MODEL 1
REMARK VINA RESULT:      -9.2      0.000      0.000
REMARK  2 active torsions:
REMARK  status: ('A' for Active; 'I' for Inactive)
REMARK    1  A    between atoms: CBF_31  and  CBG_32 
REMARK    2  A    between atoms: CBG_32  and  NBH_33 
ROOT
HETATM    1  CBD   D T1374     -28.312  -1.766   5.126  1.00 18.24     0.056 C 
HETATM    2  CBB   D T1374     -28.614  -0.313   4.848  1.00 13.77     0.109 C 
HETATM    3  NAW   D T1374     -27.667   0.699   5.345  1.00 11.00    -0.326 N 
HETATM    4  CAV   D T1374     -27.172   0.738   6.633  1.00  9.70     0.076 A 
HETATM    5  CAX   D T1374     -27.336   1.836   4.768  1.00 10.89     0.060 A 
HETATM    6  CAY   D T1374     -27.651   2.345   3.493  1.00 13.31     0.017 A 
HETATM    7  CAZ   D T1374     -27.134   3.603   3.111  1.00 12.88     0.002 A 
HETATM    8  CAP   D T1374     -26.302   4.355   3.944  1.00 12.85     0.000 A 
HETATM    9  CAO   D T1374     -25.999   3.853   5.233  1.00 12.21     0.002 A 
HETATM   10  CAN   D T1374     -26.534   2.585   5.642  1.00 11.16     0.017 A 
HETATM   11  CAM   D T1374     -26.393   1.841   6.812  1.00 10.47     0.023 A 
HETATM   12  CAH   D T1374     -25.825   2.163   8.101  1.00 11.61     0.064 A 
HETATM   13  CAE   D T1374     -25.948   3.445   8.730  1.00 11.67     0.282 A 
HETATM   14  OAF   D T1374     -26.451   4.482   8.249  1.00 12.38    -0.265 OA
HETATM   15  NAD   D T1374     -25.422   3.423   9.987  1.00 11.58    -0.169 NA
HETATM   16  CAC   D T1374     -24.997   2.196  10.208  1.00 11.36     0.282 A 
HETATM   17  OAB   D T1374     -24.521   1.843  11.298  1.00 13.28    -0.265 OA
HETATM   18  CAG   D T1374     -25.181   1.341   9.082  1.00 10.54     0.064 A 
HETATM   19  CAL   D T1374     -24.904  -0.060   8.951  1.00 12.92     0.023 A 
HETATM   20  CAU   D T1374     -24.643  -0.641   7.749  1.00 12.44     0.076 A 
HETATM   21  CAK   D T1374     -24.916  -1.118   9.893  1.00 12.61     0.017 A 
HETATM   22  CAJ   D T1374     -25.131  -1.185  11.306  1.00 13.95     0.002 A 
HETATM   23  CAI   D T1374     -25.086  -2.441  11.921  1.00 15.63     0.000 A 
HETATM   24  CAQ   D T1374     -24.844  -3.619  11.196  1.00 14.37     0.002 A 
HETATM   25  CAR   D T1374     -24.644  -3.553   9.815  1.00 13.26     0.017 A 
HETATM   26  CAS   D T1374     -24.687  -2.297   9.177  1.00 11.92     0.060 A 
HETATM   27  NAT   D T1374     -24.519  -1.977   7.892  1.00 12.89    -0.324 N 
HETATM   28  CBA   D T1374     -24.292  -2.872   6.723  1.00 13.69     0.138 C 
HETATM   29  CBC   D T1374     -25.685  -3.191   6.159  1.00 16.12     0.167 C 
HETATM   30  OBE   D T1374     -25.932  -2.096   5.243  1.00 16.41    -0.352 OA
HETATM   31  CBF   D T1374     -27.068  -2.249   4.379  1.00 19.48     0.151 C 
ENDROOT
BRANCH  31  32
HETATM   32  CBG   D T1374     -26.669  -1.352   3.183  1.00 23.41     0.280 C 
BRANCH  32  33
HETATM   33  NBH   D T1374     -26.736  -2.055   1.858  1.00 26.24     0.144 N 
HETATM   34  CBI   D T1374     -25.895  -3.264   1.901  1.00 27.90     0.286 C 
HETATM   35  CBJ   D T1374     -28.100  -2.583   1.590  1.00 27.31     0.286 C 
ENDBRANCH  32  33
ENDBRANCH  31  32
TORSDOF 2
ENDMDL
MODEL 2
REMARK VINA RESULT:      -8.6      2.768      8.743
REMARK  2 active torsions:
REMARK  status: ('A' for Active; 'I' for Inactive)
REMARK    1  A    between atoms: CBF_31  and  CBG_32 
REMARK    2  A    between atoms: CBG_32  and  NBH_33 
ROOT
HETATM    1  CBD   D T1374     -25.808  -1.061  10.965  1.00 18.24     0.056 C 
HETATM    2  CBB   D T1374     -25.322  -2.347  11.587  1.00 13.77     0.109 C 
HETATM    3  NAW   D T1374     -24.530  -3.265  10.750  1.00 11.00    -0.326 N 
HETATM    4  CAV   D T1374     -24.887  -3.665   9.478  1.00  9.70     0.076 A 
HETATM    5  CAX   D T1374     -23.530  -4.033  11.131  1.00 10.89     0.060 A 
HETATM    6  CAY   D T1374     -22.842  -4.104  12.359  1.00 13.31     0.017 A 
HETATM    7  CAZ   D T1374     -21.771  -5.016  12.492  1.00 12.88     0.002 A 
HETATM    8  CAP   D T1374     -21.353  -5.840  11.443  1.00 12.85     0.000 A 
HETATM    9  CAO   D T1374     -22.056  -5.782  10.214  1.00 12.21     0.002 A 
HETATM   10  CAN   D T1374     -23.159  -4.874  10.072  1.00 11.16     0.017 A 
HETATM   11  CAM   D T1374     -24.003  -4.586   9.001  1.00 10.47     0.023 A 
HETATM   12  CAH   D T1374     -24.200  -5.230   7.723  1.00 11.61     0.064 A 
HETATM   13  CAE   D T1374     -24.164  -6.650   7.530  1.00 11.67     0.282 A 
HETATM   14  OAF   D T1374     -23.865  -7.523   8.372  1.00 12.38    -0.265 OA
HETATM   15  NAD   D T1374     -24.503  -6.976   6.252  1.00 11.58    -0.169 NA
HETATM   16  CAC   D T1374     -24.783  -5.852   5.625  1.00 11.36     0.282 A 
HETATM   17  OAB   D T1374     -25.189  -5.827   4.454  1.00 13.28    -0.265 OA
HETATM   18  CAG   D T1374     -24.600  -4.704   6.451  1.00 10.54     0.064 A 
HETATM   19  CAL   D T1374     -24.852  -3.324   6.156  1.00 12.92     0.023 A 
HETATM   20  CAU   D T1374     -24.197  -2.312   6.788  1.00 12.44     0.076 A 
HETATM   21  CAK   D T1374     -25.797  -2.696   5.308  1.00 12.61     0.017 A 
HETATM   22  CAJ   D T1374     -26.784  -3.182   4.392  1.00 13.95     0.002 A 
HETATM   23  CAI   D T1374     -27.576  -2.245   3.719  1.00 15.63     0.000 A 
HETATM   24  CAQ   D T1374     -27.432  -0.863   3.920  1.00 14.37     0.002 A 
HETATM   25  CAR   D T1374     -26.475  -0.391   4.821  1.00 13.26     0.017 A 
HETATM   26  CAS   D T1374     -25.668  -1.319   5.510  1.00 11.92     0.060 A 
HETATM   27  NAT   D T1374     -24.693  -1.119   6.400  1.00 12.89    -0.324 N 
HETATM   28  CBA   D T1374     -24.200   0.160   6.982  1.00 13.69     0.138 C 
HETATM   29  CBC   D T1374     -25.017   0.383   8.264  1.00 16.12     0.167 C 
HETATM   30  OBE   D T1374     -24.262  -0.339   9.269  1.00 16.41    -0.352 OA
HETATM   31  CBF   D T1374     -24.657  -0.110  10.630  1.00 19.48     0.151 C 
ENDROOT
BRANCH  31  32
HETATM   32  CBG   D T1374     -23.346  -0.425  11.389  1.00 23.41     0.280 C 
BRANCH  32  33
HETATM   33  NBH   D T1374     -22.811   0.741  12.169  1.00 26.24     0.144 N 
HETATM   34  CBI   D T1374     -23.075   0.537  13.603  1.00 27.90     0.286 C 
HETATM   35  CBJ   D T1374     -21.327   0.814  12.090  1.00 27.31     0.286 C 
ENDBRANCH  32  33
ENDBRANCH  31  32
TORSDOF 2
ENDMDL
MODEL 3
REMARK VINA RESULT:      -8.4      1.793      6.038
REMARK  2 active torsions:
REMARK  status: ('A' for Active; 'I' for Inactive)
REMARK    1  A    between atoms: CBF_31  and  CBG_32 
REMARK    2  A    between atoms: CBG_32  and  NBH_33 
ROOT
HETATM    1  CBD   D T1374     -24.380  -3.267   4.437  1.00 18.24     0.056 C 
HETATM    2  CBB   D T1374     -23.726  -3.675   5.734  1.00 13.77     0.109 C 
HETATM    3  NAW   D T1374     -24.219  -3.067   6.981  1.00 11.00    -0.326 N 
HETATM    4  CAV   D T1374     -24.419  -1.712   7.162  1.00  9.70     0.076 A 
HETATM    5  CAX   D T1374     -24.308  -3.633   8.167  1.00 10.89     0.060 A 
HETATM    6  CAY   D T1374     -24.113  -4.971   8.563  1.00 13.31     0.017 A 
HETATM    7  CAZ   D T1374     -24.302  -5.317   9.920  1.00 12.88     0.002 A 
HETATM    8  CAP   D T1374     -24.698  -4.386  10.883  1.00 12.85     0.000 A 
HETATM    9  CAO   D T1374     -24.878  -3.037  10.490  1.00 12.21     0.002 A 
HETATM   10  CAN   D T1374     -24.668  -2.667   9.119  1.00 11.16     0.017 A 
HETATM   11  CAM   D T1374     -24.789  -1.451   8.447  1.00 10.47     0.023 A 
HETATM   12  CAH   D T1374     -24.976  -0.099   8.919  1.00 11.61     0.064 A 
HETATM   13  CAE   D T1374     -24.361   0.425  10.104  1.00 11.67     0.282 A 
HETATM   14  OAF   D T1374     -23.680  -0.199  10.945  1.00 12.38    -0.265 OA
HETATM   15  NAD   D T1374     -24.615   1.756  10.236  1.00 11.58    -0.169 NA
HETATM   16  CAC   D T1374     -25.329   2.121   9.190  1.00 11.36     0.282 A 
HETATM   17  OAB   D T1374     -25.665   3.298   8.992  1.00 13.28    -0.265 OA
HETATM   18  CAG   D T1374     -25.628   1.029   8.323  1.00 10.54     0.064 A 
HETATM   19  CAL   D T1374     -26.323   1.029   7.069  1.00 12.92     0.023 A 
HETATM   20  CAU   D T1374     -26.973  -0.068   6.596  1.00 12.44     0.076 A 
HETATM   21  CAK   D T1374     -26.438   2.009   6.052  1.00 12.61     0.017 A 
HETATM   22  CAJ   D T1374     -25.981   3.359   5.919  1.00 13.95     0.002 A 
HETATM   23  CAI   D T1374     -26.271   4.039   4.731  1.00 15.63     0.000 A 
HETATM   24  CAQ   D T1374     -26.985   3.439   3.682  1.00 14.37     0.002 A 
HETATM   25  CAR   D T1374     -27.421   2.118   3.809  1.00 13.26     0.017 A 
HETATM   26  CAS   D T1374     -27.138   1.415   4.998  1.00 11.92     0.060 A 
HETATM   27  NAT   D T1374     -27.452   0.169   5.357  1.00 12.89    -0.324 N 
HETATM   28  CBA   D T1374     -28.156  -0.886   4.575  1.00 13.69     0.138 C 
HETATM   29  CBC   D T1374     -27.056  -1.682   3.857  1.00 16.12     0.167 C 
HETATM   30  OBE   D T1374     -26.682  -2.687   4.832  1.00 16.41    -0.352 OA
HETATM   31  CBF   D T1374     -25.833  -3.739   4.349  1.00 19.48     0.151 C 
ENDROOT
BRANCH  31  32
HETATM   32  CBG   D T1374     -26.176  -4.887   5.329  1.00 23.41     0.280 C 
BRANCH  32  33
HETATM   33  NBH   D T1374     -26.052  -6.253   4.718  1.00 26.24     0.144 N 
HETATM   34  CBI   D T1374     -25.288  -7.129   5.622  1.00 27.90     0.286 C 
HETATM   35  CBJ   D T1374     -27.375  -6.924   4.612  1.00 27.31     0.286 C 
ENDBRANCH  32  33
ENDBRANCH  31  32
TORSDOF 2
ENDMDL
MODEL 4
REMARK VINA RESULT:      -8.3      2.362      5.642
REMARK  2 active torsions:
REMARK  status: ('A' for Active; 'I' for Inactive)
REMARK    1  A    between atoms: CBF_31  and  CBG_32 
REMARK    2  A    between atoms: CBG_32  and  NBH_33 
ROOT
HETATM    1  CBD   D T1374     -23.985   0.732   5.325  1.00 18.24     0.056 C 
HETATM    2  CBB   D T1374     -23.930  -0.590   4.598  1.00 13.77     0.109 C 
HETATM    3  NAW   D T1374     -24.486  -1.775   5.273  1.00 11.00    -0.326 N 
HETATM    4  CAV   D T1374     -24.200  -2.138   6.574  1.00  9.70     0.076 A 
HETATM    5  CAX   D T1374     -25.115  -2.790   4.717  1.00 10.89     0.060 A 
HETATM    6  CAY   D T1374     -25.563  -2.981   3.394  1.00 13.31     0.017 A 
HETATM    7  CAZ   D T1374     -26.245  -4.174   3.068  1.00 12.88     0.002 A 
HETATM    8  CAP   D T1374     -26.513  -5.167   4.014  1.00 12.85     0.000 A 
HETATM    9  CAO   D T1374     -26.048  -4.985   5.340  1.00 12.21     0.002 A 
HETATM   10  CAN   D T1374     -25.335  -3.786   5.680  1.00 11.16     0.017 A 
HETATM   11  CAM   D T1374     -24.791  -3.327   6.879  1.00 10.47     0.023 A 
HETATM   12  CAH   D T1374     -24.575  -3.972   8.153  1.00 11.61     0.064 A 
HETATM   13  CAE   D T1374     -24.170  -5.340   8.298  1.00 11.67     0.282 A 
HETATM   14  OAF   D T1374     -24.045  -6.194   7.395  1.00 12.38    -0.265 OA
HETATM   15  NAD   D T1374     -23.926  -5.640   9.604  1.00 11.58    -0.169 NA
HETATM   16  CAC   D T1374     -24.121  -4.538  10.298  1.00 11.36     0.282 A 
HETATM   17  OAB   D T1374     -23.914  -4.476  11.520  1.00 13.28    -0.265 OA
HETATM   18  CAG   D T1374     -24.553  -3.448   9.487  1.00 10.54     0.064 A 
HETATM   19  CAL   D T1374     -24.811  -2.087   9.856  1.00 12.92     0.023 A 
HETATM   20  CAU   D T1374     -25.665  -1.291   9.158  1.00 12.44     0.076 A 
HETATM   21  CAK   D T1374     -24.252  -1.258  10.861  1.00 12.61     0.017 A 
HETATM   22  CAJ   D T1374     -23.300  -1.473  11.908  1.00 13.95     0.002 A 
HETATM   23  CAI   D T1374     -22.961  -0.388  12.724  1.00 15.63     0.000 A 
HETATM   24  CAQ   D T1374     -23.521   0.887  12.542  1.00 14.37     0.002 A 
HETATM   25  CAR   D T1374     -24.443   1.097  11.514  1.00 13.26     0.017 A 
HETATM   26  CAS   D T1374     -24.796   0.016  10.680  1.00 11.92     0.060 A 
HETATM   27  NAT   D T1374     -25.647  -0.036   9.653  1.00 12.89    -0.324 N 
HETATM   28  CBA   D T1374     -26.446   1.060   9.037  1.00 13.69     0.138 C 
HETATM   29  CBC   D T1374     -25.576   1.631   7.907  1.00 16.12     0.167 C 
HETATM   30  OBE   D T1374     -25.904   0.787   6.775  1.00 16.41    -0.352 OA
HETATM   31  CBF   D T1374     -25.419   1.235   5.501  1.00 19.48     0.151 C 
ENDROOT
BRANCH  31  32
HETATM   32  CBG   D T1374     -26.434   0.578   4.535  1.00 23.41     0.280 C 
BRANCH  32  33
HETATM   33  NBH   D T1374     -27.769   0.306   5.165  1.00 26.24     0.144 N 
HETATM   34  CBI   D T1374     -28.723   1.358   4.771  1.00 27.90     0.286 C 
HETATM   35  CBJ   D T1374     -28.379  -0.941   4.631  1.00 27.31     0.286 C 
ENDBRANCH  32  33
ENDBRANCH  31  32
TORSDOF 2
ENDMDL
MODEL 5
REMARK VINA RESULT:      -8.1      3.294      7.043
REMARK  2 active torsions:
REMARK  status: ('A' for Active; 'I' for Inactive)
REMARK    1  A    between atoms: CBF_31  and  CBG_32 
REMARK    2  A    between atoms: CBG_32  and  NBH_33 
ROOT
HETATM    1  CBD   D T1374     -23.699  -2.541   5.526  1.00 18.24     0.056 C 
HETATM    2  CBB   D T1374     -23.359  -4.010   5.470  1.00 13.77     0.109 C 
HETATM    3  NAW   D T1374     -23.702  -4.845   6.635  1.00 11.00    -0.326 N 
HETATM    4  CAV   D T1374     -23.404  -4.519   7.943  1.00  9.70     0.076 A 
HETATM    5  CAX   D T1374     -24.099  -6.101   6.629  1.00 10.89     0.060 A 
HETATM    6  CAY   D T1374     -24.447  -6.950   5.560  1.00 13.31     0.017 A 
HETATM    7  CAZ   D T1374     -24.870  -8.267   5.842  1.00 12.88     0.002 A 
HETATM    8  CAP   D T1374     -24.979  -8.757   7.147  1.00 12.85     0.000 A 
HETATM    9  CAO   D T1374     -24.613  -7.910   8.222  1.00 12.21     0.002 A 
HETATM   10  CAN   D T1374     -24.160  -6.575   7.948  1.00 11.16     0.017 A 
HETATM   11  CAM   D T1374     -23.764  -5.530   8.781  1.00 10.47     0.023 A 
HETATM   12  CAH   D T1374     -23.480  -5.475  10.196  1.00 11.61     0.064 A 
HETATM   13  CAE   D T1374     -22.824  -6.524  10.920  1.00 11.67     0.282 A 
HETATM   14  OAF   D T1374     -22.499  -7.653  10.494  1.00 12.38    -0.265 OA
HETATM   15  NAD   D T1374     -22.580  -6.149  12.207  1.00 11.58    -0.169 NA
HETATM   16  CAC   D T1374     -23.012  -4.912  12.339  1.00 11.36     0.282 A 
HETATM   17  OAB   D T1374     -22.871  -4.267  13.389  1.00 13.28    -0.265 OA
HETATM   18  CAG   D T1374     -23.614  -4.411  11.147  1.00 10.54     0.064 A 
HETATM   19  CAL   D T1374     -24.146  -3.108  10.877  1.00 12.92     0.023 A 
HETATM   20  CAU   D T1374     -25.110  -2.894   9.941  1.00 12.44     0.076 A 
HETATM   21  CAK   D T1374     -23.801  -1.825  11.370  1.00 12.61     0.017 A 
HETATM   22  CAJ   D T1374     -22.868  -1.358  12.350  1.00 13.95     0.002 A 
HETATM   23  CAI   D T1374     -22.780   0.021  12.570  1.00 15.63     0.000 A 
HETATM   24  CAQ   D T1374     -23.568   0.943  11.863  1.00 14.37     0.002 A 
HETATM   25  CAR   D T1374     -24.471   0.486  10.901  1.00 13.26     0.017 A 
HETATM   26  CAS   D T1374     -24.574  -0.900  10.663  1.00 11.92     0.060 A 
HETATM   27  NAT   D T1374     -25.356  -1.573   9.816  1.00 12.89    -0.324 N 
HETATM   28  CBA   D T1374     -26.326  -1.049   8.814  1.00 13.69     0.138 C 
HETATM   29  CBC   D T1374     -25.538  -0.895   7.504  1.00 16.12     0.167 C 
HETATM   30  OBE   D T1374     -25.649  -2.204   6.893  1.00 16.41    -0.352 OA
HETATM   31  CBF   D T1374     -25.209  -2.297   5.530  1.00 19.48     0.151 C 
ENDROOT
BRANCH  31  32
HETATM   32  CBG   D T1374     -26.037  -3.500   5.018  1.00 23.41     0.280 C 
BRANCH  32  33
HETATM   33  NBH   D T1374     -27.189  -3.103   4.140  1.00 26.24     0.144 N 
HETATM   34  CBI   D T1374     -28.437  -3.132   4.922  1.00 27.90     0.286 C 
HETATM   35  CBJ   D T1374     -27.078  -1.686   3.704  1.00 27.31     0.286 C 
ENDBRANCH  32  33
ENDBRANCH  31  32
TORSDOF 2
ENDMDL
MODEL 6
REMARK VINA RESULT:      -7.8      2.479      6.421
REMARK  2 active torsions:
REMARK  status: ('A' for Active; 'I' for Inactive)
REMARK    1  A    between atoms: CBF_31  and  CBG_32 
REMARK    2  A    between atoms: CBG_32  and  NBH_33 
ROOT
HETATM    1  CBD   D T1374     -23.424   1.098   9.891  1.00 18.24     0.056 C 
HETATM    2  CBB   D T1374     -23.850   1.186   8.446  1.00 13.77     0.109 C 
HETATM    3  NAW   D T1374     -24.594   0.052   7.872  1.00 11.00    -0.326 N 
HETATM    4  CAV   D T1374     -24.213  -1.271   7.991  1.00  9.70     0.076 A 
HETATM    5  CAX   D T1374     -25.556   0.098   6.975  1.00 10.89     0.060 A 
HETATM    6  CAY   D T1374     -26.245   1.196   6.422  1.00 13.31     0.017 A 
HETATM    7  CAZ   D T1374     -27.270   0.957   5.480  1.00 12.88     0.002 A 
HETATM    8  CAP   D T1374     -27.644  -0.331   5.089  1.00 12.85     0.000 A 
HETATM    9  CAO   D T1374     -26.941  -1.435   5.631  1.00 12.21     0.002 A 
HETATM   10  CAN   D T1374     -25.883  -1.206   6.574  1.00 11.16     0.017 A 
HETATM   11  CAM   D T1374     -25.049  -2.074   7.277  1.00 10.47     0.023 A 
HETATM   12  CAH   D T1374     -24.817  -3.496   7.165  1.00 11.61     0.064 A 
HETATM   13  CAE   D T1374     -24.783  -4.204   5.919  1.00 11.67     0.282 A 
HETATM   14  OAF   D T1374     -25.042  -3.754   4.783  1.00 12.38    -0.265 OA
HETATM   15  NAD   D T1374     -24.425  -5.504   6.108  1.00 11.58    -0.169 NA
HETATM   16  CAC   D T1374     -24.197  -5.661   7.395  1.00 11.36     0.282 A 
HETATM   17  OAB   D T1374     -23.788  -6.730   7.873  1.00 13.28    -0.265 OA
HETATM   18  CAG   D T1374     -24.439  -4.472   8.144  1.00 10.54     0.064 A 
HETATM   19  CAL   D T1374     -24.252  -4.226   9.544  1.00 12.92     0.023 A 
HETATM   20  CAU   D T1374     -24.958  -3.278  10.218  1.00 12.44     0.076 A 
HETATM   21  CAK   D T1374     -23.335  -4.760  10.484  1.00 12.61     0.017 A 
HETATM   22  CAJ   D T1374     -22.324  -5.770  10.418  1.00 13.95     0.002 A 
HETATM   23  CAI   D T1374     -21.575  -6.029  11.571  1.00 15.63     0.000 A 
HETATM   24  CAQ   D T1374     -21.787  -5.331  12.772  1.00 14.37     0.002 A 
HETATM   25  CAR   D T1374     -22.768  -4.340  12.831  1.00 13.26     0.017 A 
HETATM   26  CAS   D T1374     -23.532  -4.063  11.679  1.00 11.92     0.060 A 
HETATM   27  NAT   D T1374     -24.518  -3.184  11.490  1.00 12.89    -0.324 N 
HETATM   28  CBA   D T1374     -25.075  -2.178  12.438  1.00 13.69     0.138 C 
HETATM   29  CBC   D T1374     -24.275  -0.888  12.202  1.00 16.12     0.167 C 
HETATM   30  OBE   D T1374     -24.997  -0.240  11.125  1.00 16.41    -0.352 OA
HETATM   31  CBF   D T1374     -24.619   1.116  10.847  1.00 19.48     0.151 C 
ENDROOT
BRANCH  31  32
HETATM   32  CBG   D T1374     -25.916   1.676  10.215  1.00 23.41     0.280 C 
BRANCH  32  33
HETATM   33  NBH   D T1374     -26.075   3.159  10.388  1.00 26.24     0.144 N 
HETATM   34  CBI   D T1374     -24.892   3.703  11.077  1.00 27.90     0.286 C 
HETATM   35  CBJ   D T1374     -26.075   3.863   9.078  1.00 27.31     0.286 C 
ENDBRANCH  32  33
ENDBRANCH  31  32
TORSDOF 2
ENDMDL
MODEL 7
REMARK VINA RESULT:      -7.8      3.361      6.841
REMARK  2 active torsions:
REMARK  status: ('A' for Active; 'I' for Inactive)
REMARK    1  A    between atoms: CBF_31  and  CBG_32 
REMARK    2  A    between atoms: CBG_32  and  NBH_33 
ROOT
HETATM    1  CBD   D T1374     -26.633  -1.504   7.387  1.00 18.24     0.056 C 
HETATM    2  CBB   D T1374     -26.401  -0.958   8.774  1.00 13.77     0.109 C 
HETATM    3  NAW   D T1374     -25.282  -1.509   9.558  1.00 11.00    -0.326 N 
HETATM    4  CAV   D T1374     -25.035  -2.858   9.723  1.00  9.70     0.076 A 
HETATM    5  CAX   D T1374     -24.509  -0.867  10.409  1.00 10.89     0.060 A 
HETATM    6  CAY   D T1374     -24.415   0.507  10.709  1.00 13.31     0.017 A 
HETATM    7  CAZ   D T1374     -23.464   0.936  11.662  1.00 12.88     0.002 A 
HETATM    8  CAP   D T1374     -22.595   0.051  12.305  1.00 12.85     0.000 A 
HETATM    9  CAO   D T1374     -22.700  -1.333  12.017  1.00 12.21     0.002 A 
HETATM   10  CAN   D T1374     -23.676  -1.784  11.066  1.00 11.16     0.017 A 
HETATM   11  CAM   D T1374     -23.989  -3.051  10.574  1.00 10.47     0.023 A 
HETATM   12  CAH   D T1374     -23.583  -4.375  10.983  1.00 11.61     0.064 A 
HETATM   13  CAE   D T1374     -23.398  -4.768  12.349  1.00 11.67     0.282 A 
HETATM   14  OAF   D T1374     -23.450  -4.039  13.362  1.00 12.38    -0.265 OA
HETATM   15  NAD   D T1374     -23.136  -6.101  12.442  1.00 11.58    -0.169 NA
HETATM   16  CAC   D T1374     -23.173  -6.590  11.219  1.00 11.36     0.282 A 
HETATM   17  OAB   D T1374     -23.034  -7.799  10.981  1.00 13.28    -0.265 OA
HETATM   18  CAG   D T1374     -23.419  -5.587  10.235  1.00 10.54     0.064 A 
HETATM   19  CAL   D T1374     -23.586  -5.727   8.818  1.00 12.92     0.023 A 
HETATM   20  CAU   D T1374     -23.318  -4.715   7.949  1.00 12.44     0.076 A 
HETATM   21  CAK   D T1374     -24.102  -6.783   8.026  1.00 12.61     0.017 A 
HETATM   22  CAJ   D T1374     -24.572  -8.103   8.319  1.00 13.95     0.002 A 
HETATM   23  CAI   D T1374     -25.040  -8.886   7.258  1.00 15.63     0.000 A 
HETATM   24  CAQ   D T1374     -25.064  -8.414   5.935  1.00 14.37     0.002 A 
HETATM   25  CAR   D T1374     -24.615  -7.123   5.654  1.00 13.26     0.017 A 
HETATM   26  CAS   D T1374     -24.140  -6.318   6.709  1.00 11.92     0.060 A 
HETATM   27  NAT   D T1374     -23.656  -5.074   6.693  1.00 12.89    -0.324 N 
HETATM   28  CBA   D T1374     -23.525  -4.131   5.548  1.00 13.69     0.138 C 
HETATM   29  CBC   D T1374     -24.825  -3.312   5.525  1.00 16.12     0.167 C 
HETATM   30  OBE   D T1374     -24.544  -2.216   6.430  1.00 16.41    -0.352 OA
HETATM   31  CBF   D T1374     -25.498  -1.143   6.427  1.00 19.48     0.151 C 
ENDROOT
BRANCH  31  32
HETATM   32  CBG   D T1374     -24.629   0.045   6.906  1.00 23.41     0.280 C 
BRANCH  32  33
HETATM   33  NBH   D T1374     -24.950   1.338   6.213  1.00 26.24     0.144 N 
HETATM   34  CBI   D T1374     -25.681   1.059   4.965  1.00 27.90     0.286 C 
HETATM   35  CBJ   D T1374     -25.904   2.158   7.006  1.00 27.31     0.286 C 
ENDBRANCH  32  33
ENDBRANCH  31  32
TORSDOF 2
ENDMDL
MODEL 8
REMARK VINA RESULT:      -7.6      2.604      6.823
REMARK  2 active torsions:
REMARK  status: ('A' for Active; 'I' for Inactive)
REMARK    1  A    between atoms: CBF_31  and  CBG_32 
REMARK    2  A    between atoms: CBG_32  and  NBH_33 
ROOT
HETATM    1  CBD   D T1374     -21.770   0.603  11.481  1.00 18.24     0.056 C 
HETATM    2  CBB   D T1374     -22.186   1.784  10.639  1.00 13.77     0.109 C 
HETATM    3  NAW   D T1374     -23.450   1.690   9.889  1.00 11.00    -0.326 N 
HETATM    4  CAV   D T1374     -23.808   0.617   9.096  1.00  9.70     0.076 A 
HETATM    5  CAX   D T1374     -24.306   2.659   9.639  1.00 10.89     0.060 A 
HETATM    6  CAY   D T1374     -24.356   3.985  10.113  1.00 13.31     0.017 A 
HETATM    7  CAZ   D T1374     -25.417   4.820   9.699  1.00 12.88     0.002 A 
HETATM    8  CAP   D T1374     -26.435   4.374   8.851  1.00 12.85     0.000 A 
HETATM    9  CAO   D T1374     -26.376   3.047   8.360  1.00 12.21     0.002 A 
HETATM   10  CAN   D T1374     -25.292   2.194   8.756  1.00 11.16     0.017 A 
HETATM   11  CAM   D T1374     -24.988   0.866   8.462  1.00 10.47     0.023 A 
HETATM   12  CAH   D T1374     -25.540  -0.064   7.504  1.00 11.61     0.064 A 
HETATM   13  CAE   D T1374     -25.967   0.307   6.187  1.00 11.67     0.282 A 
HETATM   14  OAF   D T1374     -26.031   1.457   5.704  1.00 12.38    -0.265 OA
HETATM   15  NAD   D T1374     -26.328  -0.791   5.465  1.00 11.58    -0.169 NA
HETATM   16  CAC   D T1374     -26.127  -1.843   6.232  1.00 11.36     0.282 A 
HETATM   17  OAB   D T1374     -26.305  -3.003   5.831  1.00 13.28    -0.265 OA
HETATM   18  CAG   D T1374     -25.661  -1.492   7.533  1.00 10.54     0.064 A 
HETATM   19  CAL   D T1374     -25.277  -2.343   8.621  1.00 12.92     0.023 A 
HETATM   20  CAU   D T1374     -25.335  -1.938   9.919  1.00 12.44     0.076 A 
HETATM   21  CAK   D T1374     -24.711  -3.642   8.651  1.00 12.61     0.017 A 
HETATM   22  CAJ   D T1374     -24.383  -4.603   7.643  1.00 13.95     0.002 A 
HETATM   23  CAI   D T1374     -23.802  -5.810   8.049  1.00 15.63     0.000 A 
HETATM   24  CAQ   D T1374     -23.535  -6.095   9.397  1.00 14.37     0.002 A 
HETATM   25  CAR   D T1374     -23.848  -5.152  10.378  1.00 13.26     0.017 A 
HETATM   26  CAS   D T1374     -24.432  -3.929   9.990  1.00 11.92     0.060 A 
HETATM   27  NAT   D T1374     -24.825  -2.889  10.729  1.00 12.89    -0.324 N 
HETATM   28  CBA   D T1374     -24.708  -2.683  12.200  1.00 13.69     0.138 C 
HETATM   29  CBC   D T1374     -23.370  -1.960  12.419  1.00 16.12     0.167 C 
HETATM   30  OBE   D T1374     -23.720  -0.561  12.274  1.00 16.41    -0.352 OA
HETATM   31  CBF   D T1374     -22.710   0.380  12.667  1.00 19.48     0.151 C 
ENDROOT
BRANCH  31  32
HETATM   32  CBG   D T1374     -23.564   1.618  13.029  1.00 23.41     0.280 C 
BRANCH  32  33
HETATM   33  NBH   D T1374     -22.852   2.599  13.914  1.00 26.24     0.144 N 
HETATM   34  CBI   D T1374     -21.657   1.961  14.494  1.00 27.90     0.286 C 
HETATM   35  CBJ   D T1374     -22.300   3.737  13.133  1.00 27.31     0.286 C 
ENDBRANCH  32  33
ENDBRANCH  31  32
TORSDOF 2
ENDMDL
MODEL 9
REMARK VINA RESULT:      -7.6      2.788      6.659
REMARK  2 active torsions:
REMARK  status: ('A' for Active; 'I' for Inactive)
REMARK    1  A    between atoms: CBF_31  and  CBG_32 
REMARK    2  A    between atoms: CBG_32  and  NBH_33 
ROOT
HETATM    1  CBD   D T1374     -23.713  -3.449   5.254  1.00 18.24     0.056 C 
HETATM    2  CBB   D T1374     -23.139  -4.574   6.080  1.00 13.77     0.109 C 
HETATM    3  NAW   D T1374     -23.599  -4.717   7.472  1.00 11.00    -0.326 N 
HETATM    4  CAV   D T1374     -23.663  -3.680   8.383  1.00  9.70     0.076 A 
HETATM    5  CAX   D T1374     -23.778  -5.835   8.145  1.00 10.89     0.060 A 
HETATM    6  CAY   D T1374     -23.733  -7.179   7.722  1.00 13.31     0.017 A 
HETATM    7  CAZ   D T1374     -23.993  -8.200   8.662  1.00 12.88     0.002 A 
HETATM    8  CAP   D T1374     -24.316  -7.929   9.994  1.00 12.85     0.000 A 
HETATM    9  CAO   D T1374     -24.344  -6.580  10.425  1.00 12.21     0.002 A 
HETATM   10  CAN   D T1374     -24.061  -5.532   9.485  1.00 11.16     0.017 A 
HETATM   11  CAM   D T1374     -24.038  -4.143   9.607  1.00 10.47     0.023 A 
HETATM   12  CAH   D T1374     -24.096  -3.273  10.758  1.00 11.61     0.064 A 
HETATM   13  CAE   D T1374     -23.462  -3.562  12.011  1.00 11.67     0.282 A 
HETATM   14  OAF   D T1374     -22.872  -4.613  12.339  1.00 12.38    -0.265 OA
HETATM   15  NAD   D T1374     -23.580  -2.512  12.871  1.00 11.58    -0.169 NA
HETATM   16  CAC   D T1374     -24.224  -1.557  12.231  1.00 11.36     0.282 A 
HETATM   17  OAB   D T1374     -24.431  -0.442  12.733  1.00 13.28    -0.265 OA
HETATM   18  CAG   D T1374     -24.612  -1.944  10.914  1.00 10.54     0.064 A 
HETATM   19  CAL   D T1374     -25.270  -1.176   9.899  1.00 12.92     0.023 A 
HETATM   20  CAU   D T1374     -26.017  -1.753   8.918  1.00 12.44     0.076 A 
HETATM   21  CAK   D T1374     -25.256   0.210   9.603  1.00 12.61     0.017 A 
HETATM   22  CAJ   D T1374     -24.658   1.350  10.227  1.00 13.95     0.002 A 
HETATM   23  CAI   D T1374     -24.844   2.602   9.630  1.00 15.63     0.000 A 
HETATM   24  CAQ   D T1374     -25.588   2.763   8.450  1.00 14.37     0.002 A 
HETATM   25  CAR   D T1374     -26.163   1.647   7.837  1.00 13.26     0.017 A 
HETATM   26  CAS   D T1374     -25.985   0.377   8.423  1.00 11.92     0.060 A 
HETATM   27  NAT   D T1374     -26.436  -0.819   8.039  1.00 12.89    -0.324 N 
HETATM   28  CBA   D T1374     -27.224  -1.182   6.828  1.00 13.69     0.138 C 
HETATM   29  CBC   D T1374     -26.194  -1.550   5.749  1.00 16.12     0.167 C 
HETATM   30  OBE   D T1374     -25.952  -2.959   5.986  1.00 16.41    -0.352 OA
HETATM   31  CBF   D T1374     -25.204  -3.644   4.970  1.00 19.48     0.151 C 
ENDROOT
BRANCH  31  32
HETATM   32  CBG   D T1374     -25.690  -5.101   5.157  1.00 23.41     0.280 C 
BRANCH  32  33
HETATM   33  NBH   D T1374     -27.031  -5.369   4.536  1.00 26.24     0.144 N 
HETATM   34  CBI   D T1374     -27.013  -4.944   3.126  1.00 27.90     0.286 C 
HETATM   35  CBJ   D T1374     -27.315  -6.826   4.463  1.00 27.31     0.286 C 
ENDBRANCH  32  33
ENDBRANCH  31  32
TORSDOF 2
ENDMDL
