MODEL 1
REMARK VINA RESULT:      -8.4      0.000      0.000
REMARK  5 active torsions:
REMARK  status: ('A' for Active; 'I' for Inactive)
REMARK    1  A    between atoms: C17_7  and  C21_10 
REMARK    2  A    between atoms: C21_10  and  O27_12 
REMARK    3  A    between atoms: O27_12  and  C15_13 
REMARK    4  A    between atoms: C14_19  and  C16_20 
REMARK    5  A    between atoms: N26_23  and  C20_25 
ROOT
HETATM    1  C15   D T9000       9.423  -5.168  -2.087  1.00 25.10     0.125 A 
HETATM    2  C4    D T9000       9.032  -4.364  -3.213  1.00 25.13     0.029 A 
HETATM    3  C19   D T9000       9.411  -4.512  -0.813  1.00 24.76     0.173 A 
HETATM    4  N22   D T9000       9.776  -5.244   0.336  1.00 21.31    -0.078 NA
HETATM    5  N23   D T9000       9.060  -3.214  -0.626  1.00 23.34    -0.228 NA
HETATM    6  C5    D T9000       8.696  -2.479  -1.714  1.00 25.82     0.100 A 
HETATM    7  C14   D T9000       8.663  -3.000  -3.045  1.00 24.84     0.024 A 
ENDROOT
BRANCH   1   8
HETATM    8  O27   D T9000       9.779  -6.520  -2.143  1.00 27.54    -0.326 OA
BRANCH   8   9
HETATM    9  C21   D T9000       9.075  -7.627  -1.477  1.00 30.12     0.145 C 
HETATM   10  C1    D T9000      10.167  -8.606  -1.019  1.00 31.63     0.038 C 
BRANCH   9  11
HETATM   11  C17   D T9000       8.017  -8.370  -2.367  1.00 31.84     0.029 A 
HETATM   12  C13   D T9000       6.878  -9.021  -1.739  1.00 30.66     0.057 A 
HETATM   13 CL     D T9000       6.606  -9.019  -0.021  1.00 30.46    -0.083 Cl
HETATM   14  C3    D T9000       5.914  -9.703  -2.535  1.00 30.46     0.013 A 
HETATM   15  C2    D T9000       6.041  -9.764  -3.945  1.00 31.74     0.031 A 
HETATM   16  C12   D T9000       7.138  -9.143  -4.600  1.00 32.80     0.150 A 
HETATM   17  F     D T9000       7.225  -9.225  -5.938  1.00 32.49    -0.203 F 
HETATM   18  C18   D T9000       8.131  -8.442  -3.832  1.00 33.48     0.084 A 
HETATM   19 CL2    D T9000       9.445  -7.705  -4.725  1.00 45.60    -0.080 Cl
ENDBRANCH   9  11
ENDBRANCH   8   9
ENDBRANCH   1   8
BRANCH   7  20
HETATM   20  C16   D T9000       8.251  -2.157  -4.238  1.00 28.58     0.041 A 
HETATM   21  C6    D T9000       7.634  -2.611  -5.489  1.00 32.07     0.122 A 
HETATM   22  N24   D T9000       7.433  -1.591  -6.249  1.00 34.71    -0.168 NA
HETATM   23  N26   D T9000       7.840  -0.519  -5.657  1.00 35.30    -0.252 N 
HETATM   24  C7    D T9000       8.374  -0.780  -4.381  1.00 31.45     0.097 A 
BRANCH  23  25
HETATM   25  C20   D T9000       7.736   0.818  -6.288  1.00 38.85     0.110 C 
HETATM   26  C8    D T9000       7.224   0.690  -7.738  1.00 41.27     0.063 C 
HETATM   27  C10   D T9000       7.126   2.095  -8.374  1.00 43.11     0.292 C 
HETATM   28  N25   D T9000       8.419   2.836  -8.312  1.00 43.93     0.339 N 
HETATM   29  C11   D T9000       8.959   2.934  -6.926  1.00 43.41     0.292 C 
HETATM   30  C9    D T9000       9.102   1.548  -6.257  1.00 42.01     0.063 C 
ENDBRANCH  23  25
ENDBRANCH   7  20
TORSDOF 5
ENDMDL
MODEL 2
REMARK VINA RESULT:      -8.2      4.293      9.695
REMARK  5 active torsions:
REMARK  status: ('A' for Active; 'I' for Inactive)
REMARK    1  A    between atoms: C17_7  and  C21_10 
REMARK    2  A    between atoms: C21_10  and  O27_12 
REMARK    3  A    between atoms: O27_12  and  C15_13 
REMARK    4  A    between atoms: C14_19  and  C16_20 
REMARK    5  A    between atoms: N26_23  and  C20_25 
ROOT
HETATM    1  C15   D T9000       9.904  -3.134  -3.353  1.00 25.10     0.125 A 
HETATM    2  C4    D T9000      10.251  -3.090  -1.959  1.00 25.13     0.029 A 
HETATM    3  C19   D T9000       9.634  -4.434  -3.892  1.00 24.76     0.173 A 
HETATM    4  N22   D T9000       9.281  -4.551  -5.252  1.00 21.31    -0.078 NA
HETATM    5  N23   D T9000       9.688  -5.585  -3.173  1.00 23.34    -0.228 NA
HETATM    6  C5    D T9000      10.021  -5.509  -1.854  1.00 25.82     0.100 A 
HETATM    7  C14   D T9000      10.318  -4.281  -1.183  1.00 24.84     0.024 A 
ENDROOT
BRANCH   1   8
HETATM    8  O27   D T9000       9.789  -2.022  -4.194  1.00 27.54    -0.326 OA
BRANCH   8   9
HETATM    9  C21   D T9000       9.041  -0.789  -3.898  1.00 30.12     0.145 C 
HETATM   10  C1    D T9000       7.736  -1.242  -3.223  1.00 31.63     0.038 C 
BRANCH   9  11
HETATM   11  C17   D T9000       8.725   0.110  -5.145  1.00 31.84     0.029 A 
HETATM   12  C13   D T9000       9.257   1.462  -5.210  1.00 30.66     0.057 A 
HETATM   13 CL     D T9000      10.252   2.157  -3.963  1.00 30.46    -0.083 Cl
HETATM   14  C3    D T9000       8.974   2.290  -6.333  1.00 30.46     0.013 A 
HETATM   15  C2    D T9000       8.172   1.821  -7.404  1.00 31.74     0.031 A 
HETATM   16  C12   D T9000       7.632   0.508  -7.381  1.00 32.80     0.150 A 
HETATM   17  F     D T9000       6.876   0.100  -8.414  1.00 32.49    -0.203 F 
HETATM   18  C18   D T9000       7.897  -0.361  -6.266  1.00 33.48     0.084 A 
HETATM   19 CL2    D T9000       7.193  -1.962  -6.327  1.00 45.60    -0.080 Cl
ENDBRANCH   9  11
ENDBRANCH   8   9
ENDBRANCH   1   8
BRANCH   7  20
HETATM   20  C16   D T9000      10.683  -4.228   0.289  1.00 28.58     0.041 A 
HETATM   21  C6    D T9000      12.020  -4.098   0.879  1.00 32.07     0.122 A 
HETATM   22  N24   D T9000      11.910  -4.085   2.162  1.00 34.71    -0.168 NA
HETATM   23  N26   D T9000      10.668  -4.189   2.494  1.00 35.30    -0.252 N 
HETATM   24  C7    D T9000       9.819  -4.287   1.375  1.00 31.45     0.097 A 
BRANCH  23  25
HETATM   25  C20   D T9000      10.229  -4.202   3.910  1.00 38.85     0.110 C 
HETATM   26  C8    D T9000      11.442  -4.375   4.847  1.00 41.27     0.063 C 
HETATM   27  C10   D T9000      10.959  -4.385   6.316  1.00 43.11     0.292 C 
HETATM   28  N25   D T9000       9.921  -5.428   6.562  1.00 43.93     0.339 N 
HETATM   29  C11   D T9000       8.757  -5.310   5.638  1.00 43.41     0.292 C 
HETATM   30  C9    D T9000       9.190  -5.324   4.154  1.00 42.01     0.063 C 
ENDBRANCH  23  25
ENDBRANCH   7  20
TORSDOF 5
ENDMDL
MODEL 3
REMARK VINA RESULT:      -8.2      3.682      8.653
REMARK  5 active torsions:
REMARK  status: ('A' for Active; 'I' for Inactive)
REMARK    1  A    between atoms: C17_7  and  C21_10 
REMARK    2  A    between atoms: C21_10  and  O27_12 
REMARK    3  A    between atoms: O27_12  and  C15_13 
REMARK    4  A    between atoms: C14_19  and  C16_20 
REMARK    5  A    between atoms: N26_23  and  C20_25 
ROOT
HETATM    1  C15   D T9000      10.267  -2.993  -2.624  1.00 25.10     0.125 A 
HETATM    2  C4    D T9000       9.720  -4.303  -2.847  1.00 25.13     0.029 A 
HETATM    3  C19   D T9000      11.032  -2.827  -1.424  1.00 24.76     0.173 A 
HETATM    4  N22   D T9000      11.604  -1.569  -1.146  1.00 21.31    -0.078 NA
HETATM    5  N23   D T9000      11.256  -3.815  -0.519  1.00 23.34    -0.228 NA
HETATM    6  C5    D T9000      10.723  -5.046  -0.759  1.00 25.82     0.100 A 
HETATM    7  C14   D T9000       9.937  -5.356  -1.913  1.00 24.84     0.024 A 
ENDROOT
BRANCH   1   8
HETATM    8  O27   D T9000      10.131  -1.902  -3.489  1.00 27.54    -0.326 OA
BRANCH   8   9
HETATM    9  C21   D T9000       9.116  -0.841  -3.387  1.00 30.12     0.145 C 
HETATM   10  C1    D T9000       7.886  -1.497  -2.741  1.00 31.63     0.038 C 
BRANCH   9  11
HETATM   11  C17   D T9000       8.722  -0.169  -4.750  1.00 31.84     0.029 A 
HETATM   12  C13   D T9000       9.089   1.216  -5.002  1.00 30.66     0.057 A 
HETATM   13 CL     D T9000       9.967   2.193  -3.861  1.00 30.46    -0.083 Cl
HETATM   14  C3    D T9000       8.732   1.839  -6.231  1.00 30.46     0.013 A 
HETATM   15  C2    D T9000       8.016   1.132  -7.229  1.00 31.74     0.031 A 
HETATM   16  C12   D T9000       7.636  -0.221  -7.024  1.00 32.80     0.150 A 
HETATM   17  F     D T9000       6.956  -0.857  -7.993  1.00 32.49    -0.203 F 
HETATM   18  C18   D T9000       7.980  -0.887  -5.797  1.00 33.48     0.084 A 
HETATM   19 CL2    D T9000       7.474  -2.555  -5.635  1.00 45.60    -0.080 Cl
ENDBRANCH   9  11
ENDBRANCH   8   9
ENDBRANCH   1   8
BRANCH   7  20
HETATM   20  C16   D T9000       9.358  -6.737  -2.155  1.00 28.58     0.041 A 
HETATM   21  C6    D T9000       9.281  -7.858  -1.211  1.00 32.07     0.122 A 
HETATM   22  N24   D T9000       8.716  -8.857  -1.794  1.00 34.71    -0.168 NA
HETATM   23  N26   D T9000       8.409  -8.537  -3.006  1.00 35.30    -0.252 N 
HETATM   24  C7    D T9000       8.779  -7.217  -3.323  1.00 31.45     0.097 A 
BRANCH  23  25
HETATM   25  C20   D T9000       7.742  -9.488  -3.927  1.00 38.85     0.110 C 
HETATM   26  C8    D T9000       7.435  -8.805  -5.275  1.00 41.27     0.063 C 
HETATM   27  C10   D T9000       6.739  -9.816  -6.217  1.00 43.11     0.292 C 
HETATM   28  N25   D T9000       5.513 -10.405  -5.606  1.00 43.93     0.339 N 
HETATM   29  C11   D T9000       5.775 -11.033  -4.279  1.00 43.41     0.292 C 
HETATM   30  C9    D T9000       6.445 -10.049  -3.293  1.00 42.01     0.063 C 
ENDBRANCH  23  25
ENDBRANCH   7  20
TORSDOF 5
ENDMDL
MODEL 4
REMARK VINA RESULT:      -8.1      5.045      9.161
REMARK  5 active torsions:
REMARK  status: ('A' for Active; 'I' for Inactive)
REMARK    1  A    between atoms: C17_7  and  C21_10 
REMARK    2  A    between atoms: C21_10  and  O27_12 
REMARK    3  A    between atoms: O27_12  and  C15_13 
REMARK    4  A    between atoms: C14_19  and  C16_20 
REMARK    5  A    between atoms: N26_23  and  C20_25 
ROOT
HETATM    1  C15   D T9000      10.133  -2.813  -2.554  1.00 25.10     0.125 A 
HETATM    2  C4    D T9000      10.580  -2.381  -1.259  1.00 25.13     0.029 A 
HETATM    3  C19   D T9000      10.036  -4.230  -2.744  1.00 24.76     0.173 A 
HETATM    4  N22   D T9000       9.596  -4.724  -3.989  1.00 21.31    -0.078 NA
HETATM    5  N23   D T9000      10.336  -5.150  -1.791  1.00 23.34    -0.228 NA
HETATM    6  C5    D T9000      10.759  -4.707  -0.574  1.00 25.82     0.100 A 
HETATM    7  C14   D T9000      10.905  -3.324  -0.243  1.00 24.84     0.024 A 
ENDROOT
BRANCH   1   8
HETATM    8  O27   D T9000       9.768  -1.968  -3.608  1.00 27.54    -0.326 OA
BRANCH   8   9
HETATM    9  C21   D T9000       8.860  -0.814  -3.515  1.00 30.12     0.145 C 
HETATM   10  C1    D T9000       7.549  -1.357  -2.925  1.00 31.63     0.038 C 
BRANCH   9  11
HETATM   11  C17   D T9000       8.581  -0.079  -4.874  1.00 31.84     0.029 A 
HETATM   12  C13   D T9000       9.067   1.278  -5.070  1.00 30.66     0.057 A 
HETATM   13 CL     D T9000       9.966   2.154  -3.865  1.00 30.46    -0.083 Cl
HETATM   14  C3    D T9000       8.816   1.958  -6.296  1.00 30.46     0.013 A 
HETATM   15  C2    D T9000       8.093   1.335  -7.344  1.00 31.74     0.031 A 
HETATM   16  C12   D T9000       7.600   0.011  -7.194  1.00 32.80     0.150 A 
HETATM   17  F     D T9000       6.917  -0.545  -8.209  1.00 32.49    -0.203 F 
HETATM   18  C18   D T9000       7.834  -0.710  -5.972  1.00 33.48     0.084 A 
HETATM   19 CL2    D T9000       7.193  -2.337  -5.880  1.00 45.60    -0.080 Cl
ENDBRANCH   9  11
ENDBRANCH   8   9
ENDBRANCH   1   8
BRANCH   7  20
HETATM   20  C16   D T9000      11.375  -2.860   1.123  1.00 28.58     0.041 A 
HETATM   21  C6    D T9000      11.385  -3.622   2.377  1.00 32.07     0.122 A 
HETATM   22  N24   D T9000      11.864  -2.879   3.313  1.00 34.71    -0.168 NA
HETATM   23  N26   D T9000      12.173  -1.721   2.835  1.00 35.30    -0.252 N 
HETATM   24  C7    D T9000      11.897  -1.617   1.458  1.00 31.45     0.097 A 
BRANCH  23  25
HETATM   25  C20   D T9000      12.751  -0.649   3.679  1.00 38.85     0.110 C 
HETATM   26  C8    D T9000      13.388   0.446   2.798  1.00 41.27     0.063 C 
HETATM   27  C10   D T9000      13.985   1.550   3.701  1.00 43.11     0.292 C 
HETATM   28  N25   D T9000      14.958   1.006   4.691  1.00 43.93     0.339 N 
HETATM   29  C11   D T9000      14.380  -0.085   5.526  1.00 43.41     0.292 C 
HETATM   30  C9    D T9000      13.796  -1.229   4.665  1.00 42.01     0.063 C 
ENDBRANCH  23  25
ENDBRANCH   7  20
TORSDOF 5
ENDMDL
MODEL 5
REMARK VINA RESULT:      -8.0      3.701      9.599
REMARK  5 active torsions:
REMARK  status: ('A' for Active; 'I' for Inactive)
REMARK    1  A    between atoms: C17_7  and  C21_10 
REMARK    2  A    between atoms: C21_10  and  O27_12 
REMARK    3  A    between atoms: O27_12  and  C15_13 
REMARK    4  A    between atoms: C14_19  and  C16_20 
REMARK    5  A    between atoms: N26_23  and  C20_25 
ROOT
HETATM    1  C15   D T9000      10.043  -3.373  -2.480  1.00 25.10     0.125 A 
HETATM    2  C4    D T9000       9.495  -4.700  -2.411  1.00 25.13     0.029 A 
HETATM    3  C19   D T9000      10.943  -3.010  -1.425  1.00 24.76     0.173 A 
HETATM    4  N22   D T9000      11.524  -1.725  -1.434  1.00 21.31    -0.078 NA
HETATM    5  N23   D T9000      11.290  -3.832  -0.401  1.00 23.34    -0.228 NA
HETATM    6  C5    D T9000      10.752  -5.083  -0.364  1.00 25.82     0.100 A 
HETATM    7  C14   D T9000       9.840  -5.581  -1.346  1.00 24.84     0.024 A 
ENDROOT
BRANCH   1   8
HETATM    8  O27   D T9000       9.787  -2.443  -3.493  1.00 27.54    -0.326 OA
BRANCH   8   9
HETATM    9  C21   D T9000       8.896  -1.277  -3.389  1.00 30.12     0.145 C 
HETATM   10  C1    D T9000       7.636  -1.774  -2.663  1.00 31.63     0.038 C 
BRANCH   9  11
HETATM   11  C17   D T9000       8.509  -0.614  -4.759  1.00 31.84     0.029 A 
HETATM   12  C13   D T9000       8.822   0.787  -4.994  1.00 30.66     0.057 A 
HETATM   13 CL     D T9000       9.624   1.795  -3.824  1.00 30.46    -0.083 Cl
HETATM   14  C3    D T9000       8.471   1.401  -6.230  1.00 30.46     0.013 A 
HETATM   15  C2    D T9000       7.815   0.669  -7.250  1.00 31.74     0.031 A 
HETATM   16  C12   D T9000       7.490  -0.701  -7.063  1.00 32.80     0.150 A 
HETATM   17  F     D T9000       6.866  -1.361  -8.053  1.00 32.49    -0.203 F 
HETATM   18  C18   D T9000       7.830  -1.359  -5.830  1.00 33.48     0.084 A 
HETATM   19 CL2    D T9000       7.394  -3.049  -5.691  1.00 45.60    -0.080 Cl
ENDBRANCH   9  11
ENDBRANCH   8   9
ENDBRANCH   1   8
BRANCH   7  20
HETATM   20  C16   D T9000       9.258  -6.981  -1.280  1.00 28.58     0.041 A 
HETATM   21  C6    D T9000       9.016  -7.906  -2.392  1.00 32.07     0.122 A 
HETATM   22  N24   D T9000       8.517  -8.998  -1.925  1.00 34.71    -0.168 NA
HETATM   23  N26   D T9000       8.399  -8.910  -0.643  1.00 35.30    -0.252 N 
HETATM   24  C7    D T9000       8.842  -7.668  -0.148  1.00 31.45     0.097 A 
BRANCH  23  25
HETATM   25  C20   D T9000       7.853 -10.017   0.176  1.00 38.85     0.110 C 
HETATM   26  C8    D T9000       7.680  -9.568   1.642  1.00 41.27     0.063 C 
HETATM   27  C10   D T9000       7.111 -10.740   2.475  1.00 43.11     0.292 C 
HETATM   28  N25   D T9000       7.952 -11.967   2.371  1.00 43.93     0.339 N 
HETATM   29  C11   D T9000       8.171 -12.397   0.961  1.00 43.41     0.292 C 
HETATM   30  C9    D T9000       8.768 -11.265   0.094  1.00 42.01     0.063 C 
ENDBRANCH  23  25
ENDBRANCH   7  20
TORSDOF 5
ENDMDL
MODEL 6
REMARK VINA RESULT:      -8.0      4.555      9.733
REMARK  5 active torsions:
REMARK  status: ('A' for Active; 'I' for Inactive)
REMARK    1  A    between atoms: C17_7  and  C21_10 
REMARK    2  A    between atoms: C21_10  and  O27_12 
REMARK    3  A    between atoms: O27_12  and  C15_13 
REMARK    4  A    between atoms: C14_19  and  C16_20 
REMARK    5  A    between atoms: N26_23  and  C20_25 
ROOT
HETATM    1  C15   D T9000       9.733  -3.221  -3.276  1.00 25.10     0.125 A 
HETATM    2  C4    D T9000      10.024  -2.983  -1.889  1.00 25.13     0.029 A 
HETATM    3  C19   D T9000       9.626  -4.596  -3.669  1.00 24.76     0.173 A 
HETATM    4  N22   D T9000       9.335  -4.902  -5.014  1.00 21.31    -0.078 NA
HETATM    5  N23   D T9000       9.781  -5.646  -2.822  1.00 23.34    -0.228 NA
HETATM    6  C5    D T9000      10.058  -5.386  -1.513  1.00 25.82     0.100 A 
HETATM    7  C14   D T9000      10.195  -4.065  -0.980  1.00 24.84     0.024 A 
ENDROOT
BRANCH   1   8
HETATM    8  O27   D T9000       9.526  -2.230  -4.242  1.00 27.54    -0.326 OA
BRANCH   8   9
HETATM    9  C21   D T9000       8.907  -0.915  -4.009  1.00 30.12     0.145 C 
HETATM   10  C1    D T9000       7.646  -1.186  -3.173  1.00 31.63     0.038 C 
BRANCH   9  11
HETATM   11  C17   D T9000       8.535  -0.119  -5.310  1.00 31.84     0.029 A 
HETATM   12  C13   D T9000       7.743  -0.763  -6.346  1.00 30.66     0.057 A 
HETATM   13 CL     D T9000       7.162  -2.398  -6.225  1.00 30.46    -0.083 Cl
HETATM   14  C3    D T9000       7.404  -0.053  -7.533  1.00 30.46     0.013 A 
HETATM   15  C2    D T9000       7.827   1.285  -7.732  1.00 31.74     0.031 A 
HETATM   16  C12   D T9000       8.603   1.952  -6.747  1.00 32.80     0.150 A 
HETATM   17  F     D T9000       8.988   3.219  -6.973  1.00 32.49    -0.203 F 
HETATM   18  C18   D T9000       8.964   1.271  -5.533  1.00 33.48     0.084 A 
HETATM   19 CL2    D T9000       9.918   2.173  -4.375  1.00 45.60    -0.080 Cl
ENDBRANCH   9  11
ENDBRANCH   8   9
ENDBRANCH   1   8
BRANCH   7  20
HETATM   20  C16   D T9000      10.501  -3.807   0.483  1.00 28.58     0.041 A 
HETATM   21  C6    D T9000      11.342  -2.748   1.052  1.00 32.07     0.122 A 
HETATM   22  N24   D T9000      11.347  -2.863   2.334  1.00 34.71    -0.168 NA
HETATM   23  N26   D T9000      10.614  -3.866   2.685  1.00 35.30    -0.252 N 
HETATM   24  C7    D T9000      10.040  -4.523   1.580  1.00 31.45     0.097 A 
BRANCH  23  25
HETATM   25  C20   D T9000      10.427  -4.246   4.105  1.00 38.85     0.110 C 
HETATM   26  C8    D T9000      11.607  -5.113   4.590  1.00 41.27     0.063 C 
HETATM   27  C10   D T9000      11.388  -5.497   6.072  1.00 43.11     0.292 C 
HETATM   28  N25   D T9000      10.079  -6.178   6.291  1.00 43.93     0.339 N 
HETATM   29  C11   D T9000       8.924  -5.380   5.790  1.00 43.41     0.292 C 
HETATM   30  C9    D T9000       9.085  -4.996   4.301  1.00 42.01     0.063 C 
ENDBRANCH  23  25
ENDBRANCH   7  20
TORSDOF 5
ENDMDL
MODEL 7
REMARK VINA RESULT:      -8.0      5.144      9.150
REMARK  5 active torsions:
REMARK  status: ('A' for Active; 'I' for Inactive)
REMARK    1  A    between atoms: C17_7  and  C21_10 
REMARK    2  A    between atoms: C21_10  and  O27_12 
REMARK    3  A    between atoms: O27_12  and  C15_13 
REMARK    4  A    between atoms: C14_19  and  C16_20 
REMARK    5  A    between atoms: N26_23  and  C20_25 
ROOT
HETATM    1  C15   D T9000      10.003  -2.994  -2.731  1.00 25.10     0.125 A 
HETATM    2  C4    D T9000      10.403  -2.558  -1.421  1.00 25.13     0.029 A 
HETATM    3  C19   D T9000       9.990  -4.411  -2.944  1.00 24.76     0.173 A 
HETATM    4  N22   D T9000       9.601  -4.909  -4.205  1.00 21.31    -0.078 NA
HETATM    5  N23   D T9000      10.325  -5.328  -2.001  1.00 23.34    -0.228 NA
HETATM    6  C5    D T9000      10.701  -4.882  -0.769  1.00 25.82     0.100 A 
HETATM    7  C14   D T9000      10.763  -3.498  -0.414  1.00 24.84     0.024 A 
ENDROOT
BRANCH   1   8
HETATM    8  O27   D T9000       9.609  -2.154  -3.779  1.00 27.54    -0.326 OA
BRANCH   8   9
HETATM    9  C21   D T9000       8.775  -0.948  -3.652  1.00 30.12     0.145 C 
HETATM   10  C1    D T9000       7.471  -1.409  -2.981  1.00 31.63     0.038 C 
BRANCH   9  11
HETATM   11  C17   D T9000       8.462  -0.214  -5.003  1.00 31.84     0.029 A 
HETATM   12  C13   D T9000       7.719  -0.908  -6.044  1.00 30.66     0.057 A 
HETATM   13 CL     D T9000       7.136  -2.539  -5.874  1.00 30.46    -0.083 Cl
HETATM   14  C3    D T9000       7.433  -0.256  -7.276  1.00 30.46     0.013 A 
HETATM   15  C2    D T9000       7.863   1.073  -7.517  1.00 31.74     0.031 A 
HETATM   16  C12   D T9000       8.592   1.788  -6.530  1.00 32.80     0.150 A 
HETATM   17  F     D T9000       8.983   3.045  -6.796  1.00 32.49    -0.203 F 
HETATM   18  C18   D T9000       8.898   1.165  -5.270  1.00 33.48     0.084 A 
HETATM   19 CL2    D T9000       9.797   2.124  -4.113  1.00 45.60    -0.080 Cl
ENDBRANCH   9  11
ENDBRANCH   8   9
ENDBRANCH   1   8
BRANCH   7  20
HETATM   20  C16   D T9000      11.183  -3.031   0.967  1.00 28.58     0.041 A 
HETATM   21  C6    D T9000      11.060  -3.755   2.237  1.00 32.07     0.122 A 
HETATM   22  N24   D T9000      11.535  -3.022   3.183  1.00 34.71    -0.168 NA
HETATM   23  N26   D T9000      11.957  -1.903   2.697  1.00 35.30    -0.252 N 
HETATM   24  C7    D T9000      11.773  -1.819   1.304  1.00 31.45     0.097 A 
BRANCH  23  25
HETATM   25  C20   D T9000      12.561  -0.852   3.550  1.00 38.85     0.110 C 
HETATM   26  C8    D T9000      13.216   0.238   2.677  1.00 41.27     0.063 C 
HETATM   27  C10   D T9000      13.838   1.321   3.589  1.00 43.11     0.292 C 
HETATM   28  N25   D T9000      14.804   0.747   4.569  1.00 43.93     0.339 N 
HETATM   29  C11   D T9000      14.208  -0.341   5.395  1.00 43.41     0.292 C 
HETATM   30  C9    D T9000      13.597  -1.463   4.525  1.00 42.01     0.063 C 
ENDBRANCH  23  25
ENDBRANCH   7  20
TORSDOF 5
ENDMDL
MODEL 8
REMARK VINA RESULT:      -8.0      4.176      9.628
REMARK  5 active torsions:
REMARK  status: ('A' for Active; 'I' for Inactive)
REMARK    1  A    between atoms: C17_7  and  C21_10 
REMARK    2  A    between atoms: C21_10  and  O27_12 
REMARK    3  A    between atoms: O27_12  and  C15_13 
REMARK    4  A    between atoms: C14_19  and  C16_20 
REMARK    5  A    between atoms: N26_23  and  C20_25 
ROOT
HETATM    1  C15   D T9000       8.992  -2.988  -1.522  1.00 25.10     0.125 A 
HETATM    2  C4    D T9000       8.612  -4.373  -1.542  1.00 25.13     0.029 A 
HETATM    3  C19   D T9000       9.589  -2.518  -0.306  1.00 24.76     0.173 A 
HETATM    4  N22   D T9000       9.993  -1.170  -0.219  1.00 21.31    -0.078 NA
HETATM    5  N23   D T9000       9.804  -3.294   0.788  1.00 23.34    -0.228 NA
HETATM    6  C5    D T9000       9.431  -4.604   0.736  1.00 25.82     0.100 A 
HETATM    7  C14   D T9000       8.823  -5.208  -0.409  1.00 24.84     0.024 A 
ENDROOT
BRANCH   1   8
HETATM    8  O27   D T9000       8.849  -2.093  -2.588  1.00 27.54    -0.326 OA
BRANCH   8   9
HETATM    9  C21   D T9000       8.979  -2.423  -4.016  1.00 30.12     0.145 C 
HETATM   10  C1    D T9000      10.424  -2.914  -4.203  1.00 31.63     0.038 C 
BRANCH   9  11
HETATM   11  C17   D T9000       8.674  -1.240  -5.000  1.00 31.84     0.029 A 
HETATM   12  C13   D T9000       7.695  -1.420  -6.061  1.00 30.66     0.057 A 
HETATM   13 CL     D T9000       6.815  -2.901  -6.305  1.00 30.46    -0.083 Cl
HETATM   14  C3    D T9000       7.413  -0.356  -6.964  1.00 30.46     0.013 A 
HETATM   15  C2    D T9000       8.075   0.893  -6.853  1.00 31.74     0.031 A 
HETATM   16  C12   D T9000       9.039   1.112  -5.833  1.00 32.80     0.150 A 
HETATM   17  F     D T9000       9.647   2.308  -5.761  1.00 32.49    -0.203 F 
HETATM   18  C18   D T9000       9.350   0.063  -4.899  1.00 33.48     0.084 A 
HETATM   19 CL2    D T9000      10.547   0.426  -3.674  1.00 45.60    -0.080 Cl
ENDBRANCH   9  11
ENDBRANCH   8   9
ENDBRANCH   1   8
BRANCH   7  20
HETATM   20  C16   D T9000       8.420  -6.671  -0.438  1.00 28.58     0.041 A 
HETATM   21  C6    D T9000       7.130  -7.240  -0.842  1.00 32.07     0.122 A 
HETATM   22  N24   D T9000       7.186  -8.521  -0.731  1.00 34.71    -0.168 NA
HETATM   23  N26   D T9000       8.352  -8.871  -0.304  1.00 35.30    -0.252 N 
HETATM   24  C7    D T9000       9.199  -7.767  -0.089  1.00 31.45     0.097 A 
BRANCH  23  25
HETATM   25  C20   D T9000       8.716 -10.290  -0.078  1.00 38.85     0.110 C 
HETATM   26  C8    D T9000       8.105 -11.183  -1.178  1.00 41.27     0.063 C 
HETATM   27  C10   D T9000       8.497 -12.657  -0.920  1.00 43.11     0.292 C 
HETATM   28  N25   D T9000       8.103 -13.116   0.443  1.00 43.93     0.339 N 
HETATM   29  C11   D T9000       8.644 -12.242   1.523  1.00 43.41     0.292 C 
HETATM   30  C9    D T9000       8.253 -10.760   1.323  1.00 42.01     0.063 C 
ENDBRANCH  23  25
ENDBRANCH   7  20
TORSDOF 5
ENDMDL
MODEL 9
REMARK VINA RESULT:      -8.0      3.990      9.681
REMARK  5 active torsions:
REMARK  status: ('A' for Active; 'I' for Inactive)
REMARK    1  A    between atoms: C17_7  and  C21_10 
REMARK    2  A    between atoms: C21_10  and  O27_12 
REMARK    3  A    between atoms: O27_12  and  C15_13 
REMARK    4  A    between atoms: C14_19  and  C16_20 
REMARK    5  A    between atoms: N26_23  and  C20_25 
ROOT
HETATM    1  C15   D T9000       9.914  -3.252  -2.824  1.00 25.10     0.125 A 
HETATM    2  C4    D T9000       9.406  -4.593  -2.731  1.00 25.13     0.029 A 
HETATM    3  C19   D T9000      10.801  -2.842  -1.776  1.00 24.76     0.173 A 
HETATM    4  N22   D T9000      11.342  -1.540  -1.809  1.00 21.31    -0.078 NA
HETATM    5  N23   D T9000      11.171  -3.633  -0.736  1.00 23.34    -0.228 NA
HETATM    6  C5    D T9000      10.671  -4.899  -0.677  1.00 25.82     0.100 A 
HETATM    7  C14   D T9000       9.775  -5.443  -1.650  1.00 24.84     0.024 A 
ENDROOT
BRANCH   1   8
HETATM    8  O27   D T9000       9.631  -2.349  -3.856  1.00 27.54    -0.326 OA
BRANCH   8   9
HETATM    9  C21   D T9000       8.787  -1.149  -3.745  1.00 30.12     0.145 C 
HETATM   10  C1    D T9000       7.520  -1.593  -2.997  1.00 31.63     0.038 C 
BRANCH   9  11
HETATM   11  C17   D T9000       8.405  -0.479  -5.112  1.00 31.84     0.029 A 
HETATM   12  C13   D T9000       7.685  -1.250  -6.114  1.00 30.66     0.057 A 
HETATM   13 CL     D T9000       7.205  -2.905  -5.881  1.00 30.46    -0.083 Cl
HETATM   14  C3    D T9000       7.338  -0.655  -7.360  1.00 30.46     0.013 A 
HETATM   15  C2    D T9000       7.682   0.688  -7.652  1.00 31.74     0.031 A 
HETATM   16  C12   D T9000       8.385   1.476  -6.703  1.00 32.80     0.150 A 
HETATM   17  F     D T9000       8.696   2.745  -7.017  1.00 32.49    -0.203 F 
HETATM   18  C18   D T9000       8.753   0.915  -5.431  1.00 33.48     0.084 A 
HETATM   19 CL2    D T9000       9.614   1.962  -4.324  1.00 45.60    -0.080 Cl
ENDBRANCH   9  11
ENDBRANCH   8   9
ENDBRANCH   1   8
BRANCH   7  20
HETATM   20  C16   D T9000       9.236  -6.858  -1.559  1.00 28.58     0.041 A 
HETATM   21  C6    D T9000       9.043  -7.819  -2.650  1.00 32.07     0.122 A 
HETATM   22  N24   D T9000       8.569  -8.913  -2.164  1.00 34.71    -0.168 NA
HETATM   23  N26   D T9000       8.425  -8.796  -0.887  1.00 35.30    -0.252 N 
HETATM   24  C7    D T9000       8.820  -7.529  -0.416  1.00 31.45     0.097 A 
BRANCH  23  25
HETATM   25  C20   D T9000       7.898  -9.899  -0.049  1.00 38.85     0.110 C 
HETATM   26  C8    D T9000       7.834  -9.468   1.430  1.00 41.27     0.063 C 
HETATM   27  C10   D T9000       7.283 -10.635   2.282  1.00 43.11     0.292 C 
HETATM   28  N25   D T9000       8.076 -11.886   2.108  1.00 43.93     0.339 N 
HETATM   29  C11   D T9000       8.190 -12.300   0.680  1.00 43.41     0.292 C 
HETATM   30  C9    D T9000       8.766 -11.173  -0.208  1.00 42.01     0.063 C 
ENDBRANCH  23  25
ENDBRANCH   7  20
TORSDOF 5
ENDMDL
