MODEL 1
REMARK VINA RESULT:      -6.7      0.000      0.000
REMARK  7 active torsions:
REMARK  status: ('A' for Active; 'I' for Inactive)
REMARK    1  A    between atoms: C1_1  and  N13_22 
REMARK    2  A    between atoms: C2_2  and  O11_20 
REMARK    3  A    between atoms: C10_10  and  N14_11 
REMARK    4  A    between atoms: N14_11  and  C15_12 
REMARK       I    between atoms: N13_22  and  C26_23 
REMARK    5  A    between atoms: C26_23  and  C24_24 
REMARK    6  A    between atoms: C24_24  and  C23_25 
REMARK    7  A    between atoms: C23_25  and  C25_26 
ROOT
HETATM    1  C1    D T9001      -6.900  -3.289  -7.262  1.00 30.38     0.107 A 
HETATM    2  C2    D T9001      -5.953  -2.214  -7.175  1.00 29.65     0.113 A 
HETATM    3  C3    D T9001      -4.652  -2.481  -6.640  1.00 28.21     0.045 A 
HETATM    4  C4    D T9001      -4.277  -3.764  -6.193  1.00 27.21     0.088 A 
HETATM    5  C5    D T9001      -5.235  -4.840  -6.267  1.00 26.27     0.055 A 
HETATM    6  C6    D T9001      -6.534  -4.584  -6.803  1.00 29.22     0.026 A 
HETATM    7  N7    D T9001      -3.022  -3.934  -5.708  1.00 25.99    -0.224 NA
HETATM    8  C8    D T9001      -2.694  -5.171  -5.286  1.00 24.59     0.200 A 
HETATM    9  N9    D T9001      -3.501  -6.255  -5.295  1.00 25.70    -0.205 NA
HETATM   10  C10   D T9001      -4.782  -6.100  -5.785  1.00 27.48     0.166 A 
ENDROOT
BRANCH  10  11
HETATM   11  N14   D T9001      -5.665  -7.226  -5.804  1.00 23.22    -0.227 NA
BRANCH  11  12
HETATM   12  C15   D T9001      -5.628  -8.319  -6.706  1.00 24.25     0.084 A 
HETATM   13  C16   D T9001      -6.813  -8.819  -7.336  1.00 25.06     0.033 A 
HETATM   14  C17   D T9001      -6.763  -9.906  -8.221  1.00 28.28     0.087 A 
HETATM   15  C18   D T9001      -5.523 -10.529  -8.505  1.00 25.55     0.151 A 
HETATM   16 CL     D T9001      -8.232 -10.454  -8.933  1.00 31.70    -0.080 Cl
HETATM   17  C19   D T9001      -4.330 -10.058  -7.900  1.00 24.70     0.032 A 
HETATM   18  F21   D T9001      -5.455 -11.571  -9.346  1.00 27.22    -0.203 F 
HETATM   19  C20   D T9001      -4.385  -8.955  -7.003  1.00 24.32     0.021 A 
ENDBRANCH  11  12
ENDBRANCH  10  11
BRANCH   1  20
HETATM   20  N13   D T9001      -8.174  -3.007  -7.832  1.00 34.61    -0.210 NA
HETATM   21  C26   D T9001      -9.284  -2.679  -7.035  1.00 36.24     0.256 C 
HETATM   22  O27   D T9001      -9.294  -2.597  -5.806  1.00 39.97    -0.270 OA
BRANCH  21  23
HETATM   23  C24   D T9001     -10.539  -2.463  -7.865  1.00 35.38     0.092 C 
BRANCH  23  24
HETATM   24  C23   D T9001     -10.549  -1.091  -8.561  1.00 34.93     0.051 C 
BRANCH  24  25
HETATM   25  C25   D T9001     -10.946  -0.014  -7.544  1.00 37.23     0.339 C 
HETATM   26  N33   D T9001     -10.018   1.172  -7.627  1.00 41.10     0.618 N 
ENDBRANCH  24  25
ENDBRANCH  23  24
ENDBRANCH  21  23
ENDBRANCH   1  20
BRANCH   2  27
HETATM   27  O11   D T9001      -6.410  -0.983  -7.638  1.00 31.09    -0.327 OA
HETATM   28  C12   D T9001      -6.723   0.059  -6.709  1.00 29.66     0.181 C 
ENDBRANCH   2  27
TORSDOF 7
ENDMDL
MODEL 2
REMARK VINA RESULT:      -6.7      3.888      7.498
REMARK  7 active torsions:
REMARK  status: ('A' for Active; 'I' for Inactive)
REMARK    1  A    between atoms: C1_1  and  N13_22 
REMARK    2  A    between atoms: C2_2  and  O11_20 
REMARK    3  A    between atoms: C10_10  and  N14_11 
REMARK    4  A    between atoms: N14_11  and  C15_12 
REMARK       I    between atoms: N13_22  and  C26_23 
REMARK    5  A    between atoms: C26_23  and  C24_24 
REMARK    6  A    between atoms: C24_24  and  C23_25 
REMARK    7  A    between atoms: C23_25  and  C25_26 
ROOT
HETATM    1  C1    D T9001      -5.260  -5.412  -6.273  1.00 30.38     0.107 A 
HETATM    2  C2    D T9001      -3.886  -5.265  -5.882  1.00 29.65     0.113 A 
HETATM    3  C3    D T9001      -3.382  -3.954  -5.608  1.00 28.21     0.045 A 
HETATM    4  C4    D T9001      -4.192  -2.804  -5.715  1.00 27.21     0.088 A 
HETATM    5  C5    D T9001      -5.568  -2.952  -6.121  1.00 26.27     0.055 A 
HETATM    6  C6    D T9001      -6.080  -4.257  -6.393  1.00 29.22     0.026 A 
HETATM    7  N7    D T9001      -3.638  -1.600  -5.428  1.00 25.99    -0.224 NA
HETATM    8  C8    D T9001      -4.437  -0.520  -5.542  1.00 24.59     0.200 A 
HETATM    9  N9    D T9001      -5.734  -0.526  -5.920  1.00 25.70    -0.205 NA
HETATM   10  C10   D T9001      -6.313  -1.743  -6.216  1.00 27.48     0.166 A 
ENDROOT
BRANCH  10  11
HETATM   11  N14   D T9001      -7.683  -1.785  -6.625  1.00 23.22    -0.227 NA
BRANCH  11  12
HETATM   12  C15   D T9001      -8.823  -1.768  -5.781  1.00 24.25     0.084 A 
HETATM   13  C16   D T9001      -9.522  -2.969  -5.432  1.00 25.06     0.033 A 
HETATM   14  C17   D T9001     -10.652  -2.937  -4.602  1.00 28.28     0.087 A 
HETATM   15  C18   D T9001     -11.121  -1.701  -4.094  1.00 25.55     0.151 A 
HETATM   16 CL     D T9001     -11.442  -4.422  -4.233  1.00 31.70    -0.080 Cl
HETATM   17  C19   D T9001     -10.451  -0.494  -4.419  1.00 24.70     0.032 A 
HETATM   18  F21   D T9001     -12.201  -1.649  -3.301  1.00 27.22    -0.203 F 
HETATM   19  C20   D T9001      -9.305  -0.530  -5.260  1.00 24.32     0.021 A 
ENDBRANCH  11  12
ENDBRANCH  10  11
BRANCH   1  20
HETATM   20  N13   D T9001      -5.747  -6.729  -6.504  1.00 34.61    -0.210 NA
HETATM   21  C26   D T9001      -6.505  -7.417  -5.540  1.00 36.24     0.256 C 
HETATM   22  O27   D T9001      -6.828  -6.987  -4.432  1.00 39.97    -0.270 OA
BRANCH  21  23
HETATM   23  C24   D T9001      -6.873  -8.819  -5.998  1.00 35.38     0.092 C 
BRANCH  23  24
HETATM   24  C23   D T9001      -6.477  -9.077  -7.461  1.00 34.93     0.051 C 
BRANCH  24  25
HETATM   25  C25   D T9001      -5.501 -10.259  -7.518  1.00 37.23     0.339 C 
HETATM   26  N33   D T9001      -4.075  -9.775  -7.616  1.00 41.10     0.618 N 
ENDBRANCH  24  25
ENDBRANCH  23  24
ENDBRANCH  21  23
ENDBRANCH   1  20
BRANCH   2  27
HETATM   27  O11   D T9001      -3.162  -6.452  -5.805  1.00 31.09    -0.327 OA
HETATM   28  C12   D T9001      -2.069  -6.565  -4.889  1.00 29.66     0.181 C 
ENDBRANCH   2  27
TORSDOF 7
ENDMDL
MODEL 3
REMARK VINA RESULT:      -6.6      3.844      7.001
REMARK  7 active torsions:
REMARK  status: ('A' for Active; 'I' for Inactive)
REMARK    1  A    between atoms: C1_1  and  N13_22 
REMARK    2  A    between atoms: C2_2  and  O11_20 
REMARK    3  A    between atoms: C10_10  and  N14_11 
REMARK    4  A    between atoms: N14_11  and  C15_12 
REMARK       I    between atoms: N13_22  and  C26_23 
REMARK    5  A    between atoms: C26_23  and  C24_24 
REMARK    6  A    between atoms: C24_24  and  C23_25 
REMARK    7  A    between atoms: C23_25  and  C25_26 
ROOT
HETATM    1  C1    D T9001      -6.201  -6.928  -6.581  1.00 30.38     0.107 A 
HETATM    2  C2    D T9001      -4.925  -7.576  -6.452  1.00 29.65     0.113 A 
HETATM    3  C3    D T9001      -3.799  -6.804  -6.024  1.00 28.21     0.045 A 
HETATM    4  C4    D T9001      -3.903  -5.429  -5.729  1.00 27.21     0.088 A 
HETATM    5  C5    D T9001      -5.182  -4.777  -5.873  1.00 26.27     0.055 A 
HETATM    6  C6    D T9001      -6.313  -5.540  -6.297  1.00 29.22     0.026 A 
HETATM    7  N7    D T9001      -2.789  -4.773  -5.320  1.00 25.99    -0.224 NA
HETATM    8  C8    D T9001      -2.920  -3.459  -5.048  1.00 24.59     0.200 A 
HETATM    9  N9    D T9001      -4.057  -2.735  -5.152  1.00 25.70    -0.205 NA
HETATM   10  C10   D T9001      -5.200  -3.387  -5.567  1.00 27.48     0.166 A 
ENDROOT
BRANCH  10  11
HETATM   11  N14   D T9001      -6.419  -2.649  -5.694  1.00 23.22    -0.227 NA
BRANCH  11  12
HETATM   12  C15   D T9001      -6.881  -1.963  -6.846  1.00 24.25     0.084 A 
HETATM   13  C16   D T9001      -8.179  -2.209  -7.401  1.00 25.06     0.033 A 
HETATM   14  C17   D T9001      -8.621  -1.529  -8.545  1.00 28.28     0.087 A 
HETATM   15  C18   D T9001      -7.778  -0.579  -9.172  1.00 25.55     0.151 A 
HETATM   16 CL     D T9001     -10.191  -1.883  -9.156  1.00 31.70    -0.080 Cl
HETATM   17  C19   D T9001      -6.488  -0.310  -8.648  1.00 24.70     0.032 A 
HETATM   18  F21   D T9001      -8.180   0.080 -10.268  1.00 27.22    -0.203 F 
HETATM   19  C20   D T9001      -6.043  -1.002  -7.486  1.00 24.32     0.021 A 
ENDBRANCH  11  12
ENDBRANCH  10  11
BRANCH   1  20
HETATM   20  N13   D T9001      -7.313  -7.725  -6.973  1.00 34.61    -0.210 NA
HETATM   21  C26   D T9001      -8.215  -7.300  -7.963  1.00 36.24     0.256 C 
HETATM   22  O27   D T9001      -8.158  -6.238  -8.586  1.00 39.97    -0.270 OA
BRANCH  21  23
HETATM   23  C24   D T9001      -9.341  -8.298  -8.178  1.00 35.38     0.092 C 
BRANCH  23  24
HETATM   24  C23   D T9001      -9.085  -9.630  -7.451  1.00 34.93     0.051 C 
BRANCH  24  25
HETATM   25  C25   D T9001      -8.941 -10.750  -8.489  1.00 37.23     0.339 C 
HETATM   26  N33   D T9001      -9.212 -10.233  -9.880  1.00 41.10     0.618 N 
ENDBRANCH  24  25
ENDBRANCH  23  24
ENDBRANCH  21  23
ENDBRANCH   1  20
BRANCH   2  27
HETATM   27  O11   D T9001      -4.916  -8.932  -6.765  1.00 31.09    -0.327 OA
HETATM   28  C12   D T9001      -3.767  -9.514  -7.388  1.00 29.66     0.181 C 
ENDBRANCH   2  27
TORSDOF 7
ENDMDL
MODEL 4
REMARK VINA RESULT:      -6.2      3.595      5.747
REMARK  7 active torsions:
REMARK  status: ('A' for Active; 'I' for Inactive)
REMARK    1  A    between atoms: C1_1  and  N13_22 
REMARK    2  A    between atoms: C2_2  and  O11_20 
REMARK    3  A    between atoms: C10_10  and  N14_11 
REMARK    4  A    between atoms: N14_11  and  C15_12 
REMARK       I    between atoms: N13_22  and  C26_23 
REMARK    5  A    between atoms: C26_23  and  C24_24 
REMARK    6  A    between atoms: C24_24  and  C23_25 
REMARK    7  A    between atoms: C23_25  and  C25_26 
ROOT
HETATM    1  C1    D T9001     -10.413  -2.418  -6.950  1.00 30.38     0.107 A 
HETATM    2  C2    D T9001     -10.801  -1.752  -8.162  1.00 29.65     0.113 A 
HETATM    3  C3    D T9001      -9.800  -1.073  -8.928  1.00 28.21     0.045 A 
HETATM    4  C4    D T9001      -8.450  -1.034  -8.525  1.00 27.21     0.088 A 
HETATM    5  C5    D T9001      -8.064  -1.690  -7.299  1.00 26.27     0.055 A 
HETATM    6  C6    D T9001      -9.056  -2.374  -6.531  1.00 29.22     0.026 A 
HETATM    7  N7    D T9001      -7.563  -0.376  -9.312  1.00 25.99    -0.224 NA
HETATM    8  C8    D T9001      -6.280  -0.354  -8.900  1.00 24.59     0.200 A 
HETATM    9  N9    D T9001      -5.798  -0.921  -7.771  1.00 25.70    -0.205 NA
HETATM   10  C10   D T9001      -6.686  -1.594  -6.958  1.00 27.48     0.166 A 
ENDROOT
BRANCH  10  11
HETATM   11  N14   D T9001      -6.210  -2.201  -5.753  1.00 23.22    -0.227 NA
BRANCH  11  12
HETATM   12  C15   D T9001      -5.198  -3.189  -5.642  1.00 24.25     0.084 A 
HETATM   13  C16   D T9001      -5.436  -4.556  -5.999  1.00 25.06     0.033 A 
HETATM   14  C17   D T9001      -4.429  -5.524  -5.877  1.00 28.28     0.087 A 
HETATM   15  C18   D T9001      -3.150  -5.157  -5.394  1.00 25.55     0.151 A 
HETATM   16 CL     D T9001      -4.794  -7.148  -6.320  1.00 31.70    -0.080 Cl
HETATM   17  C19   D T9001      -2.881  -3.812  -5.033  1.00 24.70     0.032 A 
HETATM   18  F21   D T9001      -2.174  -6.068  -5.268  1.00 27.22    -0.203 F 
HETATM   19  C20   D T9001      -3.904  -2.831  -5.159  1.00 24.32     0.021 A 
ENDBRANCH  11  12
ENDBRANCH  10  11
BRANCH   1  20
HETATM   20  N13   D T9001     -11.420  -3.117  -6.226  1.00 34.61    -0.210 NA
HETATM   21  C26   D T9001     -12.134  -2.511  -5.179  1.00 36.24     0.256 C 
HETATM   22  O27   D T9001     -11.987  -1.356  -4.777  1.00 39.97    -0.270 OA
BRANCH  21  23
HETATM   23  C24   D T9001     -13.122  -3.468  -4.532  1.00 35.38     0.092 C 
BRANCH  23  24
HETATM   24  C23   D T9001     -12.619  -4.922  -4.546  1.00 34.93     0.051 C 
BRANCH  24  25
HETATM   25  C25   D T9001     -13.733  -5.835  -5.071  1.00 37.23     0.339 C 
HETATM   26  N33   D T9001     -14.545  -6.402  -3.933  1.00 41.10     0.618 N 
ENDBRANCH  24  25
ENDBRANCH  23  24
ENDBRANCH  21  23
ENDBRANCH   1  20
BRANCH   2  27
HETATM   27  O11   D T9001     -12.153  -1.841  -8.480  1.00 31.09    -0.327 OA
HETATM   28  C12   D T9001     -12.996  -0.693  -8.348  1.00 29.66     0.181 C 
ENDBRANCH   2  27
TORSDOF 7
ENDMDL
MODEL 5
REMARK VINA RESULT:      -6.0      2.488      3.131
REMARK  7 active torsions:
REMARK  status: ('A' for Active; 'I' for Inactive)
REMARK    1  A    between atoms: C1_1  and  N13_22 
REMARK    2  A    between atoms: C2_2  and  O11_20 
REMARK    3  A    between atoms: C10_10  and  N14_11 
REMARK    4  A    between atoms: N14_11  and  C15_12 
REMARK       I    between atoms: N13_22  and  C26_23 
REMARK    5  A    between atoms: C26_23  and  C24_24 
REMARK    6  A    between atoms: C24_24  and  C23_25 
REMARK    7  A    between atoms: C23_25  and  C25_26 
ROOT
HETATM    1  C1    D T9001      -8.554  -1.602  -6.906  1.00 30.38     0.107 A 
HETATM    2  C2    D T9001      -8.076  -0.466  -7.644  1.00 29.65     0.113 A 
HETATM    3  C3    D T9001      -6.682  -0.387  -7.963  1.00 28.21     0.045 A 
HETATM    4  C4    D T9001      -5.768  -1.386  -7.570  1.00 27.21     0.088 A 
HETATM    5  C5    D T9001      -6.248  -2.519  -6.816  1.00 26.27     0.055 A 
HETATM    6  C6    D T9001      -7.637  -2.608  -6.497  1.00 29.22     0.026 A 
HETATM    7  N7    D T9001      -4.466  -1.239  -7.920  1.00 25.99    -0.224 NA
HETATM    8  C8    D T9001      -3.616  -2.208  -7.528  1.00 24.59     0.200 A 
HETATM    9  N9    D T9001      -3.939  -3.309  -6.814  1.00 25.70    -0.205 NA
HETATM   10  C10   D T9001      -5.260  -3.475  -6.449  1.00 27.48     0.166 A 
ENDROOT
BRANCH  10  11
HETATM   11  N14   D T9001      -5.636  -4.626  -5.687  1.00 23.22    -0.227 NA
BRANCH  11  12
HETATM   12  C15   D T9001      -5.565  -5.980  -6.103  1.00 24.25     0.084 A 
HETATM   13  C16   D T9001      -6.737  -6.722  -6.460  1.00 25.06     0.033 A 
HETATM   14  C17   D T9001      -6.654  -8.063  -6.863  1.00 28.28     0.087 A 
HETATM   15  C18   D T9001      -5.393  -8.706  -6.922  1.00 25.55     0.151 A 
HETATM   16 CL     D T9001      -8.108  -8.890  -7.270  1.00 31.70    -0.080 Cl
HETATM   17  C19   D T9001      -4.213  -7.999  -6.577  1.00 24.70     0.032 A 
HETATM   18  F21   D T9001      -5.292  -9.988  -7.302  1.00 27.22    -0.203 F 
HETATM   19  C20   D T9001      -4.301  -6.639  -6.169  1.00 24.32     0.021 A 
ENDBRANCH  11  12
ENDBRANCH  10  11
BRANCH   1  20
HETATM   20  N13   D T9001      -9.950  -1.676  -6.634  1.00 34.61    -0.210 NA
HETATM   21  C26   D T9001     -10.500  -1.160  -5.449  1.00 36.24     0.256 C 
HETATM   22  O27   D T9001      -9.877  -0.606  -4.543  1.00 39.97    -0.270 OA
BRANCH  21  23
HETATM   23  C24   D T9001     -11.999  -1.395  -5.366  1.00 35.38     0.092 C 
BRANCH  23  24
HETATM   24  C23   D T9001     -12.415  -2.042  -4.033  1.00 34.93     0.051 C 
BRANCH  24  25
HETATM   25  C25   D T9001     -13.837  -1.592  -3.677  1.00 37.23     0.339 C 
HETATM   26  N33   D T9001     -14.479  -0.870  -4.835  1.00 41.10     0.618 N 
ENDBRANCH  24  25
ENDBRANCH  23  24
ENDBRANCH  21  23
ENDBRANCH   1  20
BRANCH   2  27
HETATM   27  O11   D T9001      -9.047   0.469  -7.988  1.00 31.09    -0.327 OA
HETATM   28  C12   D T9001      -8.996   1.788  -7.437  1.00 29.66     0.181 C 
ENDBRANCH   2  27
TORSDOF 7
ENDMDL
MODEL 6
REMARK VINA RESULT:      -5.9      4.661      8.175
REMARK  7 active torsions:
REMARK  status: ('A' for Active; 'I' for Inactive)
REMARK    1  A    between atoms: C1_1  and  N13_22 
REMARK    2  A    between atoms: C2_2  and  O11_20 
REMARK    3  A    between atoms: C10_10  and  N14_11 
REMARK    4  A    between atoms: N14_11  and  C15_12 
REMARK       I    between atoms: N13_22  and  C26_23 
REMARK    5  A    between atoms: C26_23  and  C24_24 
REMARK    6  A    between atoms: C24_24  and  C23_25 
REMARK    7  A    between atoms: C23_25  and  C25_26 
ROOT
HETATM    1  C1    D T9001      -5.101  -5.390  -6.348  1.00 30.38     0.107 A 
HETATM    2  C2    D T9001      -3.782  -5.334  -5.781  1.00 29.65     0.113 A 
HETATM    3  C3    D T9001      -3.230  -4.058  -5.439  1.00 28.21     0.045 A 
HETATM    4  C4    D T9001      -3.940  -2.858  -5.645  1.00 27.21     0.088 A 
HETATM    5  C5    D T9001      -5.259  -2.914  -6.228  1.00 26.27     0.055 A 
HETATM    6  C6    D T9001      -5.819  -4.183  -6.569  1.00 29.22     0.026 A 
HETATM    7  N7    D T9001      -3.349  -1.692  -5.285  1.00 25.99    -0.224 NA
HETATM    8  C8    D T9001      -4.051  -0.561  -5.496  1.00 24.59     0.200 A 
HETATM    9  N9    D T9001      -5.286  -0.482  -6.040  1.00 25.70    -0.205 NA
HETATM   10  C10   D T9001      -5.902  -1.659  -6.413  1.00 27.48     0.166 A 
ENDROOT
BRANCH  10  11
HETATM   11  N14   D T9001      -7.207  -1.610  -6.997  1.00 23.22    -0.227 NA
BRANCH  11  12
HETATM   12  C15   D T9001      -8.080  -0.492  -7.037  1.00 24.25     0.084 A 
HETATM   13  C16   D T9001      -7.641   0.821  -6.670  1.00 25.06     0.033 A 
HETATM   14  C17   D T9001      -8.516   1.917  -6.707  1.00 28.28     0.087 A 
HETATM   15  C18   D T9001      -9.860   1.734  -7.113  1.00 25.55     0.151 A 
HETATM   16 CL     D T9001      -7.916   3.463  -6.246  1.00 31.70    -0.080 Cl
HETATM   17  C19   D T9001     -10.327   0.447  -7.484  1.00 24.70     0.032 A 
HETATM   18  F21   D T9001     -10.714   2.767  -7.152  1.00 27.22    -0.203 F 
HETATM   19  C20   D T9001      -9.437  -0.662  -7.446  1.00 24.32     0.021 A 
ENDBRANCH  11  12
ENDBRANCH  10  11
BRANCH   1  20
HETATM   20  N13   D T9001      -5.641  -6.673  -6.645  1.00 34.61    -0.210 NA
HETATM   21  C26   D T9001      -6.440  -7.370  -5.723  1.00 36.24     0.256 C 
HETATM   22  O27   D T9001      -6.759  -6.979  -4.600  1.00 39.97    -0.270 OA
BRANCH  21  23
HETATM   23  C24   D T9001      -6.863  -8.732  -6.250  1.00 35.38     0.092 C 
BRANCH  23  24
HETATM   24  C23   D T9001      -7.475  -8.648  -7.659  1.00 34.93     0.051 C 
BRANCH  24  25
HETATM   25  C25   D T9001      -8.097 -10.003  -8.019  1.00 37.23     0.339 C 
HETATM   26  N33   D T9001      -8.915  -9.900  -9.282  1.00 41.10     0.618 N 
ENDBRANCH  24  25
ENDBRANCH  23  24
ENDBRANCH  21  23
ENDBRANCH   1  20
BRANCH   2  27
HETATM   27  O11   D T9001      -3.156  -6.566  -5.616  1.00 31.09    -0.327 OA
HETATM   28  C12   D T9001      -1.980  -6.669  -4.808  1.00 29.66     0.181 C 
ENDBRANCH   2  27
TORSDOF 7
ENDMDL
MODEL 7
REMARK VINA RESULT:      -5.9      3.713      5.711
REMARK  7 active torsions:
REMARK  status: ('A' for Active; 'I' for Inactive)
REMARK    1  A    between atoms: C1_1  and  N13_22 
REMARK    2  A    between atoms: C2_2  and  O11_20 
REMARK    3  A    between atoms: C10_10  and  N14_11 
REMARK    4  A    between atoms: N14_11  and  C15_12 
REMARK       I    between atoms: N13_22  and  C26_23 
REMARK    5  A    between atoms: C26_23  and  C24_24 
REMARK    6  A    between atoms: C24_24  and  C23_25 
REMARK    7  A    between atoms: C23_25  and  C25_26 
ROOT
HETATM    1  C1    D T9001     -10.219  -0.478  -5.143  1.00 30.38     0.107 A 
HETATM    2  C2    D T9001     -10.299   0.763  -5.862  1.00 29.65     0.113 A 
HETATM    3  C3    D T9001      -9.295   1.062  -6.837  1.00 28.21     0.045 A 
HETATM    4  C4    D T9001      -8.230   0.178  -7.109  1.00 27.21     0.088 A 
HETATM    5  C5    D T9001      -8.143  -1.061  -6.375  1.00 26.27     0.055 A 
HETATM    6  C6    D T9001      -9.142  -1.369  -5.402  1.00 29.22     0.026 A 
HETATM    7  N7    D T9001      -7.326   0.534  -8.055  1.00 25.99    -0.224 NA
HETATM    8  C8    D T9001      -6.318  -0.330  -8.290  1.00 24.59     0.200 A 
HETATM    9  N9    D T9001      -6.122  -1.513  -7.666  1.00 25.70    -0.205 NA
HETATM   10  C10   D T9001      -7.033  -1.890  -6.700  1.00 27.48     0.166 A 
ENDROOT
BRANCH  10  11
HETATM   11  N14   D T9001      -6.852  -3.133  -6.016  1.00 23.22    -0.227 NA
BRANCH  11  12
HETATM   12  C15   D T9001      -5.629  -3.826  -5.822  1.00 24.25     0.084 A 
HETATM   13  C16   D T9001      -5.471  -5.198  -6.203  1.00 25.06     0.033 A 
HETATM   14  C17   D T9001      -4.259  -5.873  -5.999  1.00 28.28     0.087 A 
HETATM   15  C18   D T9001      -3.164  -5.197  -5.406  1.00 25.55     0.151 A 
HETATM   16 CL     D T9001      -4.147  -7.524  -6.478  1.00 31.70    -0.080 Cl
HETATM   17  C19   D T9001      -3.287  -3.839  -5.019  1.00 24.70     0.032 A 
HETATM   18  F21   D T9001      -1.998  -5.826  -5.200  1.00 27.22    -0.203 F 
HETATM   19  C20   D T9001      -4.518  -3.156  -5.227  1.00 24.32     0.021 A 
ENDBRANCH  11  12
ENDBRANCH  10  11
BRANCH   1  20
HETATM   20  N13   D T9001     -11.249  -0.769  -4.205  1.00 34.61    -0.210 NA
HETATM   21  C26   D T9001     -12.420  -1.450  -4.580  1.00 36.24     0.256 C 
HETATM   22  O27   D T9001     -12.688  -1.860  -5.710  1.00 39.97    -0.270 OA
BRANCH  21  23
HETATM   23  C24   D T9001     -13.388  -1.605  -3.419  1.00 35.38     0.092 C 
BRANCH  23  24
HETATM   24  C23   D T9001     -14.585  -0.645  -3.526  1.00 34.93     0.051 C 
BRANCH  24  25
HETATM   25  C25   D T9001     -15.798  -1.411  -4.067  1.00 37.23     0.339 C 
HETATM   26  N33   D T9001     -15.934  -2.752  -3.389  1.00 41.10     0.618 N 
ENDBRANCH  24  25
ENDBRANCH  23  24
ENDBRANCH  21  23
ENDBRANCH   1  20
BRANCH   2  27
HETATM   27  O11   D T9001     -11.381   1.572  -5.528  1.00 31.09    -0.327 OA
HETATM   28  C12   D T9001     -11.256   2.995  -5.593  1.00 29.66     0.181 C 
ENDBRANCH   2  27
TORSDOF 7
ENDMDL
MODEL 8
REMARK VINA RESULT:      -5.9     16.084     19.419
REMARK  7 active torsions:
REMARK  status: ('A' for Active; 'I' for Inactive)
REMARK    1  A    between atoms: C1_1  and  N13_22 
REMARK    2  A    between atoms: C2_2  and  O11_20 
REMARK    3  A    between atoms: C10_10  and  N14_11 
REMARK    4  A    between atoms: N14_11  and  C15_12 
REMARK       I    between atoms: N13_22  and  C26_23 
REMARK    5  A    between atoms: C26_23  and  C24_24 
REMARK    6  A    between atoms: C24_24  and  C23_25 
REMARK    7  A    between atoms: C23_25  and  C25_26 
ROOT
HETATM    1  C1    D T9001       4.502 -15.063   0.873  1.00 30.38     0.107 A 
HETATM    2  C2    D T9001       4.906 -14.108  -0.120  1.00 29.65     0.113 A 
HETATM    3  C3    D T9001       6.028 -13.262   0.152  1.00 28.21     0.045 A 
HETATM    4  C4    D T9001       6.743 -13.335   1.365  1.00 27.21     0.088 A 
HETATM    5  C5    D T9001       6.326 -14.285   2.368  1.00 26.27     0.055 A 
HETATM    6  C6    D T9001       5.210 -15.136   2.104  1.00 29.22     0.026 A 
HETATM    7  N7    D T9001       7.800 -12.503   1.539  1.00 25.99    -0.224 NA
HETATM    8  C8    D T9001       8.462 -12.595   2.710  1.00 24.59     0.200 A 
HETATM    9  N9    D T9001       8.165 -13.434   3.727  1.00 25.70    -0.205 NA
HETATM   10  C10   D T9001       7.092 -14.287   3.567  1.00 27.48     0.166 A 
ENDROOT
BRANCH  10  11
HETATM   11  N14   D T9001       6.748 -15.184   4.627  1.00 23.22    -0.227 NA
BRANCH  11  12
HETATM   12  C15   D T9001       6.171 -14.841   5.877  1.00 24.25     0.084 A 
HETATM   13  C16   D T9001       5.794 -13.495   6.190  1.00 25.06     0.033 A 
HETATM   14  C17   D T9001       5.231 -13.169   7.433  1.00 28.28     0.087 A 
HETATM   15  C18   D T9001       5.027 -14.180   8.403  1.00 25.55     0.151 A 
HETATM   16 CL     D T9001       4.809 -11.527   7.737  1.00 31.70    -0.080 Cl
HETATM   17  C19   D T9001       5.388 -15.523   8.125  1.00 24.70     0.032 A 
HETATM   18  F21   D T9001       4.493 -13.888   9.598  1.00 27.22    -0.203 F 
HETATM   19  C20   D T9001       5.958 -15.851   6.863  1.00 24.32     0.021 A 
ENDBRANCH  11  12
ENDBRANCH  10  11
BRANCH   1  20
HETATM   20  N13   D T9001       3.407 -15.919   0.564  1.00 34.61    -0.210 NA
HETATM   21  C26   D T9001       3.585 -17.125  -0.134  1.00 36.24     0.256 C 
HETATM   22  O27   D T9001       4.657 -17.573  -0.544  1.00 39.97    -0.270 OA
BRANCH  21  23
HETATM   23  C24   D T9001       2.268 -17.841  -0.382  1.00 35.38     0.092 C 
BRANCH  23  24
HETATM   24  C23   D T9001       2.445 -19.110  -1.233  1.00 34.93     0.051 C 
BRANCH  24  25
HETATM   25  C25   D T9001       2.030 -20.334  -0.407  1.00 37.23     0.339 C 
HETATM   26  N33   D T9001       3.028 -20.605   0.690  1.00 41.10     0.618 N 
ENDBRANCH  24  25
ENDBRANCH  23  24
ENDBRANCH  21  23
ENDBRANCH   1  20
BRANCH   2  27
HETATM   27  O11   D T9001       4.143 -14.105  -1.284  1.00 31.09    -0.327 OA
HETATM   28  C12   D T9001       3.342 -12.966  -1.611  1.00 29.66     0.181 C 
ENDBRANCH   2  27
TORSDOF 7
ENDMDL
MODEL 9
REMARK VINA RESULT:      -5.9      3.687      6.112
REMARK  7 active torsions:
REMARK  status: ('A' for Active; 'I' for Inactive)
REMARK    1  A    between atoms: C1_1  and  N13_22 
REMARK    2  A    between atoms: C2_2  and  O11_20 
REMARK    3  A    between atoms: C10_10  and  N14_11 
REMARK    4  A    between atoms: N14_11  and  C15_12 
REMARK       I    between atoms: N13_22  and  C26_23 
REMARK    5  A    between atoms: C26_23  and  C24_24 
REMARK    6  A    between atoms: C24_24  and  C23_25 
REMARK    7  A    between atoms: C23_25  and  C25_26 
ROOT
HETATM    1  C1    D T9001      -7.217  -5.775  -7.500  1.00 30.38     0.107 A 
HETATM    2  C2    D T9001      -6.863  -7.074  -7.002  1.00 29.65     0.113 A 
HETATM    3  C3    D T9001      -5.619  -7.234  -6.312  1.00 28.21     0.045 A 
HETATM    4  C4    D T9001      -4.732  -6.157  -6.112  1.00 27.21     0.088 A 
HETATM    5  C5    D T9001      -5.082  -4.855  -6.625  1.00 26.27     0.055 A 
HETATM    6  C6    D T9001      -6.323  -4.686  -7.312  1.00 29.22     0.026 A 
HETATM    7  N7    D T9001      -3.578  -6.392  -5.439  1.00 25.99    -0.224 NA
HETATM    8  C8    D T9001      -2.749  -5.342  -5.265  1.00 24.59     0.200 A 
HETATM    9  N9    D T9001      -2.959  -4.082  -5.705  1.00 25.70    -0.205 NA
HETATM   10  C10   D T9001      -4.128  -3.825  -6.391  1.00 27.48     0.166 A 
ENDROOT
BRANCH  10  11
HETATM   11  N14   D T9001      -4.379  -2.503  -6.875  1.00 23.22    -0.227 NA
BRANCH  11  12
HETATM   12  C15   D T9001      -5.558  -1.737  -6.683  1.00 24.25     0.084 A 
HETATM   13  C16   D T9001      -6.396  -1.916  -5.535  1.00 25.06     0.033 A 
HETATM   14  C17   D T9001      -7.563  -1.157  -5.361  1.00 28.28     0.087 A 
HETATM   15  C18   D T9001      -7.930  -0.193  -6.332  1.00 25.55     0.151 A 
HETATM   16 CL     D T9001      -8.521  -1.434  -3.958  1.00 31.70    -0.080 Cl
HETATM   17  C19   D T9001      -7.122   0.010  -7.480  1.00 24.70     0.032 A 
HETATM   18  F21   D T9001      -9.042   0.540  -6.186  1.00 27.22    -0.203 F 
HETATM   19  C20   D T9001      -5.938  -0.761  -7.653  1.00 24.32     0.021 A 
ENDBRANCH  11  12
ENDBRANCH  10  11
BRANCH   1  20
HETATM   20  N13   D T9001      -8.475  -5.634  -8.151  1.00 34.61    -0.210 NA
HETATM   21  C26   D T9001      -9.569  -5.019  -7.518  1.00 36.24     0.256 C 
HETATM   22  O27   D T9001      -9.576  -4.547  -6.381  1.00 39.97    -0.270 OA
BRANCH  21  23
HETATM   23  C24   D T9001     -10.812  -5.025  -8.394  1.00 35.38     0.092 C 
BRANCH  23  24
HETATM   24  C23   D T9001     -11.615  -3.718  -8.274  1.00 34.93     0.051 C 
BRANCH  24  25
HETATM   25  C25   D T9001     -10.828  -2.580  -8.935  1.00 37.23     0.339 C 
HETATM   26  N33   D T9001     -11.158  -1.255  -8.294  1.00 41.10     0.618 N 
ENDBRANCH  24  25
ENDBRANCH  23  24
ENDBRANCH  21  23
ENDBRANCH   1  20
BRANCH   2  27
HETATM   27  O11   D T9001      -7.796  -8.077  -7.248  1.00 31.09    -0.327 OA
HETATM   28  C12   D T9001      -7.636  -9.366  -6.649  1.00 29.66     0.181 C 
ENDBRANCH   2  27
TORSDOF 7
ENDMDL
