MODEL 1
REMARK VINA RESULT:      -8.4      0.000      0.000
REMARK  7 active torsions:
REMARK  status: ('A' for Active; 'I' for Inactive)
REMARK    1  A    between atoms: N3_2  and  C20_12 
REMARK    2  A    between atoms: C4_3  and  C5_4 
REMARK    3  A    between atoms: C13_9  and  N2_29 
REMARK    4  A    between atoms: C17_11  and  C19_33 
REMARK    5  A    between atoms: C20_12  and  C16_31 
REMARK    6  A    between atoms: C2_23  and  C3_24 
REMARK    7  A    between atoms: C9_25  and  C12_27 
REMARK       I    between atoms: C12_27  and  N2_29 
ROOT
HETATM    1  C12   D T 801       2.949  -3.952  -4.897  1.00 44.92     0.279 C 
HETATM    2  O1    D T 801       3.443  -3.347  -5.831  1.00 47.76    -0.265 OA
HETATM    3  N2    D T 801       2.285  -3.265  -3.923  1.00 46.59    -0.208 NA
ENDROOT
BRANCH   1   4
HETATM    4  C9    D T 801       3.053  -5.445  -4.862  1.00 40.68     0.059 A 
HETATM    5  C8    D T 801       3.891  -6.180  -5.728  1.00 40.60     0.004 A 
HETATM    6  C7    D T 801       3.978  -7.562  -5.645  1.00 42.33    -0.004 A 
HETATM    7  C6    D T 801       3.252  -8.274  -4.706  1.00 44.57    -0.014 A 
HETATM    8  C5    D T 801       2.410  -7.573  -3.823  1.00 44.90     0.038 A 
HETATM    9  C11   D T 801       3.377  -9.775  -4.654  1.00 40.34     0.032 C 
HETATM   10  C10   D T 801       2.321  -6.171  -3.908  1.00 44.55     0.013 A 
BRANCH   8  11
HETATM   11  C4    D T 801       1.609  -8.201  -2.813  1.00 43.57    -0.058 C 
HETATM   12  C3    D T 801       0.917  -8.709  -2.007  1.00 44.10    -0.039 C 
BRANCH  12  13
HETATM   13  C2    D T 801       0.129  -9.362  -1.004  1.00 46.85     0.145 A 
HETATM   14  N82   D T 801       0.517 -10.042   0.125  1.00 45.71    -0.203 N 
HETATM   15  N81   D T 801       1.774 -10.351   0.667  1.00 48.41    -0.162 NA
HETATM   16  C84   D T 801      -0.644 -10.446   0.755  1.00 48.08     0.165 A 
HETATM   17  C83   D T 801       1.857 -11.034   1.783  1.00 54.40     0.121 A 
HETATM   18  C82   D T 801       0.694 -11.463   2.451  1.00 53.21     0.026 A 
HETATM   19  C81   D T 801      -0.549 -11.178   1.955  1.00 48.83     0.041 A 
HETATM   20  N1    D T 801      -1.685 -10.033   0.048  1.00 46.84    -0.223 NA
HETATM   21  C1    D T 801      -1.252  -9.377  -1.015  1.00 46.95     0.128 A 
ENDBRANCH  12  13
ENDBRANCH   8  11
ENDBRANCH   1   4
BRANCH   3  22
HETATM   22  C13   D T 801       2.082  -1.871  -3.870  1.00 45.13     0.085 A 
HETATM   23  C14   D T 801       1.000  -1.288  -4.526  1.00 45.97     0.019 A 
HETATM   24  C15   D T 801       0.818   0.088  -4.514  1.00 43.20    -0.001 A 
HETATM   25  C16   D T 801       1.718   0.934  -3.862  1.00 40.99     0.015 A 
HETATM   26  C17   D T 801       2.835   0.351  -3.221  1.00 44.10     0.071 A 
HETATM   27  C18   D T 801       3.005  -1.037  -3.241  1.00 42.25     0.023 A 
BRANCH  25  28
HETATM   28  C20   D T 801       1.481   2.443  -3.883  1.00 39.15     0.277 C 
BRANCH  28  29
HETATM   29  N3    D T 801       1.336   3.042  -5.223  1.00 38.29     0.146 N 
HETATM   30  C21   D T 801       2.605   3.658  -5.667  1.00 41.73     0.286 C 
HETATM   31  C22   D T 801       2.460   4.287  -7.056  1.00 41.71     0.286 C 
HETATM   32  N4    D T 801       1.345   5.244  -7.050  1.00 48.22     0.143 N 
HETATM   33  C23   D T 801       0.086   4.569  -6.684  1.00 42.74     0.286 C 
HETATM   34  C25   D T 801       1.229   5.937  -8.341  1.00 47.13     0.285 C 
HETATM   35  C24   D T 801       0.229   4.012  -5.263  1.00 36.93     0.286 C 
ENDBRANCH  28  29
ENDBRANCH  25  28
BRANCH  26  36
HETATM   36  C19   D T 801       3.870   1.182  -2.488  1.00 42.98     0.419 C 
HETATM   37  F1    D T 801       4.275   2.301  -3.228  1.00 48.85    -0.166 F 
HETATM   38  F2    D T 801       3.366   1.614  -1.257  1.00 43.91    -0.166 F 
HETATM   39  F3    D T 801       4.985   0.381  -2.266  1.00 45.50    -0.166 F 
ENDBRANCH  26  36
ENDBRANCH   3  22
TORSDOF 7
ENDMDL
MODEL 2
REMARK VINA RESULT:      -8.1      0.878      1.807
REMARK  7 active torsions:
REMARK  status: ('A' for Active; 'I' for Inactive)
REMARK    1  A    between atoms: N3_2  and  C20_12 
REMARK    2  A    between atoms: C4_3  and  C5_4 
REMARK    3  A    between atoms: C13_9  and  N2_29 
REMARK    4  A    between atoms: C17_11  and  C19_33 
REMARK    5  A    between atoms: C20_12  and  C16_31 
REMARK    6  A    between atoms: C2_23  and  C3_24 
REMARK    7  A    between atoms: C9_25  and  C12_27 
REMARK       I    between atoms: C12_27  and  N2_29 
ROOT
HETATM    1  C12   D T 801       2.604  -4.006  -4.930  1.00 44.92     0.279 C 
HETATM    2  O1    D T 801       2.686  -3.479  -6.025  1.00 47.76    -0.265 OA
HETATM    3  N2    D T 801       2.338  -3.242  -3.831  1.00 46.59    -0.208 NA
ENDROOT
BRANCH   1   4
HETATM    4  C9    D T 801       2.762  -5.492  -4.826  1.00 40.68     0.059 A 
HETATM    5  C8    D T 801       3.603  -6.239  -5.677  1.00 40.60     0.004 A 
HETATM    6  C7    D T 801       3.741  -7.612  -5.530  1.00 42.33    -0.004 A 
HETATM    7  C6    D T 801       3.063  -8.301  -4.538  1.00 44.57    -0.014 A 
HETATM    8  C5    D T 801       2.220  -7.586  -3.669  1.00 44.90     0.038 A 
HETATM    9  C11   D T 801       3.243  -9.793  -4.418  1.00 40.34     0.032 C 
HETATM   10  C10   D T 801       2.079  -6.194  -3.819  1.00 44.55     0.013 A 
BRANCH   8  11
HETATM   11  C4    D T 801       1.466  -8.191  -2.609  1.00 43.57    -0.058 C 
HETATM   12  C3    D T 801       0.815  -8.692  -1.766  1.00 44.10    -0.039 C 
BRANCH  12  13
HETATM   13  C2    D T 801       0.081  -9.319  -0.706  1.00 46.85     0.145 A 
HETATM   14  N82   D T 801      -1.267  -9.320  -0.441  1.00 45.71    -0.203 N 
HETATM   15  N81   D T 801      -2.363  -8.711  -1.071  1.00 48.41    -0.162 NA
HETATM   16  C84   D T 801      -1.442 -10.103   0.683  1.00 48.08     0.165 A 
HETATM   17  C83   D T 801      -3.571  -8.879  -0.592  1.00 54.40     0.121 A 
HETATM   18  C82   D T 801      -3.787  -9.670   0.553  1.00 53.21     0.026 A 
HETATM   19  C81   D T 801      -2.744 -10.282   1.192  1.00 48.83     0.041 A 
HETATM   20  N1    D T 801      -0.264 -10.557   1.081  1.00 46.84    -0.223 NA
HETATM   21  C1    D T 801       0.672 -10.103   0.264  1.00 46.95     0.128 A 
ENDBRANCH  12  13
ENDBRANCH   8  11
ENDBRANCH   1   4
BRANCH   3  22
HETATM   22  C13   D T 801       2.127  -1.850  -3.809  1.00 45.13     0.085 A 
HETATM   23  C14   D T 801       1.051  -1.287  -4.493  1.00 45.97     0.019 A 
HETATM   24  C15   D T 801       0.861   0.088  -4.512  1.00 43.20    -0.001 A 
HETATM   25  C16   D T 801       1.746   0.953  -3.864  1.00 40.99     0.015 A 
HETATM   26  C17   D T 801       2.856   0.390  -3.195  1.00 44.10     0.071 A 
HETATM   27  C18   D T 801       3.035  -0.997  -3.183  1.00 42.25     0.023 A 
BRANCH  25  28
HETATM   28  C20   D T 801       1.500   2.460  -3.919  1.00 39.15     0.277 C 
BRANCH  28  29
HETATM   29  N3    D T 801       1.368   3.030  -5.273  1.00 38.29     0.146 N 
HETATM   30  C21   D T 801       2.624   3.688  -5.693  1.00 41.73     0.286 C 
HETATM   31  C22   D T 801       2.493   4.288  -7.097  1.00 41.71     0.286 C 
HETATM   32  N4    D T 801       1.342   5.201  -7.137  1.00 48.22     0.143 N 
HETATM   33  C23   D T 801       0.101   4.482  -6.793  1.00 42.74     0.286 C 
HETATM   34  C25   D T 801       1.234   5.866  -8.443  1.00 47.13     0.285 C 
HETATM   35  C24   D T 801       0.226   3.955  -5.359  1.00 36.93     0.286 C 
ENDBRANCH  28  29
ENDBRANCH  25  28
BRANCH  26  36
HETATM   36  C19   D T 801       3.875   1.243  -2.463  1.00 42.98     0.419 C 
HETATM   37  F1    D T 801       5.013   0.514  -2.094  1.00 48.85    -0.166 F 
HETATM   38  F2    D T 801       4.271   2.321  -3.261  1.00 43.91    -0.166 F 
HETATM   39  F3    D T 801       3.276   1.730  -1.306  1.00 45.50    -0.166 F 
ENDBRANCH  26  36
ENDBRANCH   3  22
TORSDOF 7
ENDMDL
MODEL 3
REMARK VINA RESULT:      -7.8      1.470      2.176
REMARK  7 active torsions:
REMARK  status: ('A' for Active; 'I' for Inactive)
REMARK    1  A    between atoms: N3_2  and  C20_12 
REMARK    2  A    between atoms: C4_3  and  C5_4 
REMARK    3  A    between atoms: C13_9  and  N2_29 
REMARK    4  A    between atoms: C17_11  and  C19_33 
REMARK    5  A    between atoms: C20_12  and  C16_31 
REMARK    6  A    between atoms: C2_23  and  C3_24 
REMARK    7  A    between atoms: C9_25  and  C12_27 
REMARK       I    between atoms: C12_27  and  N2_29 
ROOT
HETATM    1  C12   D T 801       3.105  -4.372  -4.935  1.00 44.92     0.279 C 
HETATM    2  O1    D T 801       3.627  -3.812  -5.881  1.00 47.76    -0.265 OA
HETATM    3  N2    D T 801       2.368  -3.649  -4.042  1.00 46.59    -0.208 NA
ENDROOT
BRANCH   1   4
HETATM    4  C9    D T 801       3.255  -5.856  -4.796  1.00 40.68     0.059 A 
HETATM    5  C8    D T 801       4.187  -6.609  -5.542  1.00 40.60     0.004 A 
HETATM    6  C7    D T 801       4.313  -7.979  -5.365  1.00 42.33    -0.004 A 
HETATM    7  C6    D T 801       3.535  -8.661  -4.445  1.00 44.57    -0.014 A 
HETATM    8  C5    D T 801       2.599  -7.940  -3.681  1.00 44.90     0.038 A 
HETATM    9  C11   D T 801       3.706 -10.150  -4.288  1.00 40.34     0.032 C 
HETATM   10  C10   D T 801       2.470  -6.550  -3.861  1.00 44.55     0.013 A 
BRANCH   8  11
HETATM   11  C4    D T 801       1.737  -8.537  -2.701  1.00 43.57    -0.058 C 
HETATM   12  C3    D T 801       1.062  -9.052  -1.886  1.00 44.10    -0.039 C 
BRANCH  12  13
HETATM   13  C2    D T 801       0.200  -9.622  -0.893  1.00 46.85     0.145 A 
HETATM   14  N82   D T 801       0.505 -10.287   0.270  1.00 45.71    -0.203 N 
HETATM   15  N81   D T 801       1.720 -10.655   0.867  1.00 48.41    -0.162 NA
HETATM   16  C84   D T 801      -0.700 -10.599   0.868  1.00 48.08     0.165 A 
HETATM   17  C83   D T 801       1.721 -11.305   2.005  1.00 54.40     0.121 A 
HETATM   18  C82   D T 801       0.511 -11.640   2.643  1.00 53.21     0.026 A 
HETATM   19  C81   D T 801      -0.693 -11.295   2.093  1.00 48.83     0.041 A 
HETATM   20  N1    D T 801      -1.688 -10.146   0.111  1.00 46.84    -0.223 NA
HETATM   21  C1    D T 801      -1.178  -9.553  -0.955  1.00 46.95     0.128 A 
ENDBRANCH  12  13
ENDBRANCH   8  11
ENDBRANCH   1   4
BRANCH   3  22
HETATM   22  C13   D T 801       2.118  -2.263  -4.091  1.00 45.13     0.085 A 
HETATM   23  C14   D T 801       1.118  -1.753  -4.918  1.00 45.97     0.019 A 
HETATM   24  C15   D T 801       0.895  -0.386  -5.004  1.00 43.20    -0.001 A 
HETATM   25  C16   D T 801       1.671   0.524  -4.282  1.00 40.99     0.015 A 
HETATM   26  C17   D T 801       2.705   0.015  -3.466  1.00 44.10     0.071 A 
HETATM   27  C18   D T 801       2.919  -1.365  -3.388  1.00 42.25     0.023 A 
BRANCH  25  28
HETATM   28  C20   D T 801       1.393   2.020  -4.415  1.00 39.15     0.277 C 
BRANCH  28  29
HETATM   29  N3    D T 801      -0.012   2.423  -4.212  1.00 38.29     0.146 N 
HETATM   30  C21   D T 801      -0.672   1.552  -3.215  1.00 41.73     0.286 C 
HETATM   31  C22   D T 801      -2.133   1.960  -3.004  1.00 41.71     0.286 C 
HETATM   32  N4    D T 801      -2.836   1.966  -4.295  1.00 48.22     0.143 N 
HETATM   33  C23   D T 801      -2.193   2.910  -5.228  1.00 42.74     0.286 C 
HETATM   34  C25   D T 801      -4.264   2.266  -4.124  1.00 47.13     0.285 C 
HETATM   35  C24   D T 801      -0.757   2.440  -5.482  1.00 36.93     0.286 C 
ENDBRANCH  28  29
ENDBRANCH  25  28
BRANCH  26  36
HETATM   36  C19   D T 801       3.604   0.919  -2.644  1.00 42.98     0.419 C 
HETATM   37  F1    D T 801       4.142   1.966  -3.402  1.00 48.85    -0.166 F 
HETATM   38  F2    D T 801       2.897   1.460  -1.565  1.00 43.91    -0.166 F 
HETATM   39  F3    D T 801       4.656   0.150  -2.157  1.00 45.50    -0.166 F 
ENDBRANCH  26  36
ENDBRANCH   3  22
TORSDOF 7
ENDMDL
MODEL 4
REMARK VINA RESULT:      -7.4      6.028     11.071
REMARK  7 active torsions:
REMARK  status: ('A' for Active; 'I' for Inactive)
REMARK    1  A    between atoms: N3_2  and  C20_12 
REMARK    2  A    between atoms: C4_3  and  C5_4 
REMARK    3  A    between atoms: C13_9  and  N2_29 
REMARK    4  A    between atoms: C17_11  and  C19_33 
REMARK    5  A    between atoms: C20_12  and  C16_31 
REMARK    6  A    between atoms: C2_23  and  C3_24 
REMARK    7  A    between atoms: C9_25  and  C12_27 
REMARK       I    between atoms: C12_27  and  N2_29 
ROOT
HETATM    1  C12   D T 801      -1.176   1.528  -5.541  1.00 44.92     0.279 C 
HETATM    2  O1    D T 801      -0.137   2.146  -5.685  1.00 47.76    -0.265 OA
HETATM    3  N2    D T 801      -1.141   0.171  -5.398  1.00 46.59    -0.208 NA
ENDROOT
BRANCH   1   4
HETATM    4  C9    D T 801      -2.469   2.281  -5.489  1.00 40.68     0.059 A 
HETATM    5  C8    D T 801      -2.769   3.359  -6.350  1.00 40.60     0.004 A 
HETATM    6  C7    D T 801      -3.989   4.014  -6.286  1.00 42.33    -0.004 A 
HETATM    7  C6    D T 801      -4.964   3.634  -5.379  1.00 44.57    -0.014 A 
HETATM    8  C5    D T 801      -4.701   2.560  -4.509  1.00 44.90     0.038 A 
HETATM    9  C11   D T 801      -6.275   4.377  -5.345  1.00 40.34     0.032 C 
HETATM   10  C10   D T 801      -3.462   1.896  -4.574  1.00 44.55     0.013 A 
BRANCH   8  11
HETATM   11  C4    D T 801      -5.631   2.079  -3.529  1.00 43.57    -0.058 C 
HETATM   12  C3    D T 801      -6.361   1.674  -2.699  1.00 44.10    -0.039 C 
BRANCH  12  13
HETATM   13  C2    D T 801      -7.299   1.221  -1.715  1.00 46.85     0.145 A 
HETATM   14  N82   D T 801      -8.345   1.880  -1.117  1.00 45.71    -0.203 N 
HETATM   15  N81   D T 801      -8.836   3.190  -1.230  1.00 48.41    -0.162 NA
HETATM   16  C84   D T 801      -8.944   0.972  -0.266  1.00 48.08     0.165 A 
HETATM   17  C83   D T 801      -9.872   3.566  -0.520  1.00 54.40     0.121 A 
HETATM   18  C82   D T 801     -10.506   2.666   0.358  1.00 53.21     0.026 A 
HETATM   19  C81   D T 801     -10.059   1.380   0.492  1.00 48.83     0.041 A 
HETATM   20  N1    D T 801      -8.298  -0.182  -0.343  1.00 46.84    -0.223 NA
HETATM   21  C1    D T 801      -7.304  -0.063  -1.207  1.00 46.95     0.128 A 
ENDBRANCH  12  13
ENDBRANCH   8  11
ENDBRANCH   1   4
BRANCH   3  22
HETATM   22  C13   D T 801       0.011  -0.641  -5.385  1.00 45.13     0.085 A 
HETATM   23  C14   D T 801       0.212  -1.600  -6.376  1.00 45.97     0.019 A 
HETATM   24  C15   D T 801       1.322  -2.432  -6.346  1.00 43.20    -0.001 A 
HETATM   25  C16   D T 801       2.265  -2.349  -5.318  1.00 40.99     0.015 A 
HETATM   26  C17   D T 801       2.051  -1.399  -4.294  1.00 44.10     0.071 A 
HETATM   27  C18   D T 801       0.928  -0.567  -4.338  1.00 42.25     0.023 A 
BRANCH  25  28
HETATM   28  C20   D T 801       3.468  -3.291  -5.323  1.00 39.15     0.277 C 
BRANCH  28  29
HETATM   29  N3    D T 801       3.144  -4.730  -5.281  1.00 38.29     0.146 N 
HETATM   30  C21   D T 801       2.348  -5.056  -4.079  1.00 41.73     0.286 C 
HETATM   31  C22   D T 801       2.012  -6.551  -4.026  1.00 41.71     0.286 C 
HETATM   32  N4    D T 801       3.251  -7.338  -4.108  1.00 48.22     0.143 N 
HETATM   33  C23   D T 801       3.969  -7.040  -5.361  1.00 42.74     0.286 C 
HETATM   34  C25   D T 801       2.980  -8.775  -3.970  1.00 47.13     0.285 C 
HETATM   35  C24   D T 801       4.359  -5.558  -5.358  1.00 36.93     0.286 C 
ENDBRANCH  28  29
ENDBRANCH  25  28
BRANCH  26  36
HETATM   36  C19   D T 801       3.013  -1.231  -3.134  1.00 42.98     0.419 C 
HETATM   37  F1    D T 801       3.113  -2.390  -2.353  1.00 48.85    -0.166 F 
HETATM   38  F2    D T 801       4.287  -0.892  -3.602  1.00 43.91    -0.166 F 
HETATM   39  F3    D T 801       2.538  -0.202  -2.328  1.00 45.50    -0.166 F 
ENDBRANCH  26  36
ENDBRANCH   3  22
TORSDOF 7
ENDMDL
MODEL 5
REMARK VINA RESULT:      -7.3      5.470     11.799
REMARK  7 active torsions:
REMARK  status: ('A' for Active; 'I' for Inactive)
REMARK    1  A    between atoms: N3_2  and  C20_12 
REMARK    2  A    between atoms: C4_3  and  C5_4 
REMARK    3  A    between atoms: C13_9  and  N2_29 
REMARK    4  A    between atoms: C17_11  and  C19_33 
REMARK    5  A    between atoms: C20_12  and  C16_31 
REMARK    6  A    between atoms: C2_23  and  C3_24 
REMARK    7  A    between atoms: C9_25  and  C12_27 
REMARK       I    between atoms: C12_27  and  N2_29 
ROOT
HETATM    1  C12   D T 801      -0.353   2.487  -5.885  1.00 44.92     0.279 C 
HETATM    2  O1    D T 801       0.815   2.824  -5.949  1.00 47.76    -0.265 OA
HETATM    3  N2    D T 801      -0.668   1.168  -5.726  1.00 46.59    -0.208 NA
ENDROOT
BRANCH   1   4
HETATM    4  C9    D T 801      -1.418   3.538  -5.945  1.00 40.68     0.059 A 
HETATM    5  C8    D T 801      -1.156   4.880  -6.295  1.00 40.60     0.004 A 
HETATM    6  C7    D T 801      -2.176   5.819  -6.365  1.00 42.33    -0.004 A 
HETATM    7  C6    D T 801      -3.490   5.474  -6.099  1.00 44.57    -0.014 A 
HETATM    8  C5    D T 801      -3.787   4.144  -5.752  1.00 44.90     0.038 A 
HETATM    9  C11   D T 801      -4.565   6.528  -6.186  1.00 40.34     0.032 C 
HETATM   10  C10   D T 801      -2.753   3.192  -5.681  1.00 44.55     0.013 A 
BRANCH   8  11
HETATM   11  C4    D T 801      -5.108   3.671  -5.453  1.00 43.57    -0.058 C 
HETATM   12  C3    D T 801      -6.208   3.317  -5.228  1.00 44.10    -0.039 C 
BRANCH  12  13
HETATM   13  C2    D T 801      -7.524   2.823  -4.948  1.00 46.85     0.145 A 
HETATM   14  N82   D T 801      -8.369   3.095  -3.900  1.00 45.71    -0.203 N 
HETATM   15  N81   D T 801      -8.244   3.903  -2.760  1.00 48.41    -0.162 NA
HETATM   16  C84   D T 801      -9.524   2.374  -4.133  1.00 48.08     0.165 A 
HETATM   17  C83   D T 801      -9.230   3.977  -1.898  1.00 54.40     0.121 A 
HETATM   18  C82   D T 801     -10.421   3.256  -2.104  1.00 53.21     0.026 A 
HETATM   19  C81   D T 801     -10.581   2.460  -3.205  1.00 48.83     0.041 A 
HETATM   20  N1    D T 801      -9.391   1.699  -5.265  1.00 46.84    -0.223 NA
HETATM   21  C1    D T 801      -8.198   1.950  -5.779  1.00 46.95     0.128 A 
ENDBRANCH  12  13
ENDBRANCH   8  11
ENDBRANCH   1   4
BRANCH   3  22
HETATM   22  C13   D T 801       0.241   0.098  -5.611  1.00 45.13     0.085 A 
HETATM   23  C14   D T 801       0.254  -0.924  -6.558  1.00 45.97     0.019 A 
HETATM   24  C15   D T 801       1.116  -2.004  -6.428  1.00 43.20    -0.001 A 
HETATM   25  C16   D T 801       1.987  -2.112  -5.341  1.00 40.99     0.015 A 
HETATM   26  C17   D T 801       1.957  -1.093  -4.362  1.00 44.10     0.071 A 
HETATM   27  C18   D T 801       1.083  -0.011  -4.505  1.00 42.25     0.023 A 
BRANCH  25  28
HETATM   28  C20   D T 801       2.914  -3.322  -5.237  1.00 39.15     0.277 C 
BRANCH  28  29
HETATM   29  N3    D T 801       2.242  -4.635  -5.256  1.00 38.29     0.146 N 
HETATM   30  C21   D T 801       2.087  -5.168  -3.885  1.00 41.73     0.286 C 
HETATM   31  C22   D T 801       1.395  -6.535  -3.898  1.00 41.71     0.286 C 
HETATM   32  N4    D T 801       2.134  -7.454  -4.775  1.00 48.22     0.143 N 
HETATM   33  C23   D T 801       2.192  -6.921  -6.149  1.00 42.74     0.286 C 
HETATM   34  C25   D T 801       1.554  -8.804  -4.745  1.00 47.13     0.285 C 
HETATM   35  C24   D T 801       2.952  -5.591  -6.123  1.00 36.93     0.286 C 
ENDBRANCH  28  29
ENDBRANCH  25  28
BRANCH  26  36
HETATM   36  C19   D T 801       2.860  -1.119  -3.143  1.00 42.98     0.419 C 
HETATM   37  F1    D T 801       2.736  -2.307  -2.413  1.00 48.85    -0.166 F 
HETATM   38  F2    D T 801       4.197  -0.961  -3.524  1.00 43.91    -0.166 F 
HETATM   39  F3    D T 801       2.496  -0.060  -2.317  1.00 45.50    -0.166 F 
ENDBRANCH  26  36
ENDBRANCH   3  22
TORSDOF 7
ENDMDL
MODEL 6
REMARK VINA RESULT:      -7.0      6.320      8.497
REMARK  7 active torsions:
REMARK  status: ('A' for Active; 'I' for Inactive)
REMARK    1  A    between atoms: N3_2  and  C20_12 
REMARK    2  A    between atoms: C4_3  and  C5_4 
REMARK    3  A    between atoms: C13_9  and  N2_29 
REMARK    4  A    between atoms: C17_11  and  C19_33 
REMARK    5  A    between atoms: C20_12  and  C16_31 
REMARK    6  A    between atoms: C2_23  and  C3_24 
REMARK    7  A    between atoms: C9_25  and  C12_27 
REMARK       I    between atoms: C12_27  and  N2_29 
ROOT
HETATM    1  C12   D T 801      -4.631   1.461  -2.013  1.00 44.92     0.279 C 
HETATM    2  O1    D T 801      -4.114   2.100  -1.115  1.00 47.76    -0.265 OA
HETATM    3  N2    D T 801      -3.951   1.261  -3.179  1.00 46.59    -0.208 NA
ENDROOT
BRANCH   1   4
HETATM    4  C9    D T 801      -5.994   0.878  -1.797  1.00 40.68     0.059 A 
HETATM    5  C8    D T 801      -7.175   1.650  -1.817  1.00 40.60     0.004 A 
HETATM    6  C7    D T 801      -8.420   1.067  -1.639  1.00 42.33    -0.004 A 
HETATM    7  C6    D T 801      -8.555  -0.297  -1.441  1.00 44.57    -0.014 A 
HETATM    8  C5    D T 801      -7.399  -1.098  -1.420  1.00 44.90     0.038 A 
HETATM    9  C11   D T 801      -9.929  -0.886  -1.250  1.00 40.34     0.032 C 
HETATM   10  C10   D T 801      -6.135  -0.506  -1.600  1.00 44.55     0.013 A 
BRANCH   8  11
HETATM   11  C4    D T 801      -7.413  -2.518  -1.221  1.00 43.57    -0.058 C 
HETATM   12  C3    D T 801      -7.403  -3.688  -1.093  1.00 44.10    -0.039 C 
BRANCH  12  13
HETATM   13  C2    D T 801      -7.400  -5.104  -0.871  1.00 46.85     0.145 A 
HETATM   14  N82   D T 801      -8.437  -5.958  -0.583  1.00 45.71    -0.203 N 
HETATM   15  N81   D T 801      -9.811  -5.757  -0.386  1.00 48.41    -0.162 NA
HETATM   16  C84   D T 801      -7.887  -7.223  -0.495  1.00 48.08     0.165 A 
HETATM   17  C83   D T 801     -10.591  -6.775  -0.111  1.00 54.40     0.121 A 
HETATM   18  C82   D T 801     -10.064  -8.077  -0.014  1.00 53.21     0.026 A 
HETATM   19  C81   D T 801      -8.730  -8.313  -0.203  1.00 48.83     0.041 A 
HETATM   20  N1    D T 801      -6.585  -7.144  -0.720  1.00 46.84    -0.223 NA
HETATM   21  C1    D T 801      -6.262  -5.882  -0.950  1.00 46.95     0.128 A 
ENDBRANCH  12  13
ENDBRANCH   8  11
ENDBRANCH   1   4
BRANCH   3  22
HETATM   22  C13   D T 801      -2.653   1.718  -3.481  1.00 45.13     0.085 A 
HETATM   23  C14   D T 801      -2.468   2.861  -4.256  1.00 45.97     0.019 A 
HETATM   24  C15   D T 801      -1.194   3.293  -4.594  1.00 43.20    -0.001 A 
HETATM   25  C16   D T 801      -0.056   2.592  -4.185  1.00 40.99     0.015 A 
HETATM   26  C17   D T 801      -0.239   1.415  -3.424  1.00 44.10     0.071 A 
HETATM   27  C18   D T 801      -1.529   0.992  -3.091  1.00 42.25     0.023 A 
BRANCH  25  28
HETATM   28  C20   D T 801       1.326   3.102  -4.587  1.00 39.15     0.277 C 
BRANCH  28  29
HETATM   29  N3    D T 801       1.378   3.859  -5.852  1.00 38.29     0.146 N 
HETATM   30  C21   D T 801       2.756   3.898  -6.388  1.00 41.73     0.286 C 
HETATM   31  C22   D T 801       2.818   4.688  -7.699  1.00 41.71     0.286 C 
HETATM   32  N4    D T 801       2.258   6.031  -7.494  1.00 48.22     0.143 N 
HETATM   33  C23   D T 801       0.858   5.943  -7.040  1.00 42.74     0.286 C 
HETATM   34  C25   D T 801       2.381   6.852  -8.705  1.00 47.13     0.285 C 
HETATM   35  C24   D T 801       0.828   5.215  -5.692  1.00 36.93     0.286 C 
ENDBRANCH  28  29
ENDBRANCH  25  28
BRANCH  26  36
HETATM   36  C19   D T 801       0.930   0.582  -2.933  1.00 42.98     0.419 C 
HETATM   37  F1    D T 801       1.740   0.131  -3.983  1.00 48.85    -0.166 F 
HETATM   38  F2    D T 801       1.716   1.321  -2.043  1.00 43.91    -0.166 F 
HETATM   39  F3    D T 801       0.417  -0.529  -2.272  1.00 45.50    -0.166 F 
ENDBRANCH  26  36
ENDBRANCH   3  22
TORSDOF 7
ENDMDL
MODEL 7
REMARK VINA RESULT:      -6.9      6.232     10.180
REMARK  7 active torsions:
REMARK  status: ('A' for Active; 'I' for Inactive)
REMARK    1  A    between atoms: N3_2  and  C20_12 
REMARK    2  A    between atoms: C4_3  and  C5_4 
REMARK    3  A    between atoms: C13_9  and  N2_29 
REMARK    4  A    between atoms: C17_11  and  C19_33 
REMARK    5  A    between atoms: C20_12  and  C16_31 
REMARK    6  A    between atoms: C2_23  and  C3_24 
REMARK    7  A    between atoms: C9_25  and  C12_27 
REMARK       I    between atoms: C12_27  and  N2_29 
ROOT
HETATM    1  C12   D T 801       0.130  -9.534  -0.025  1.00 44.92     0.279 C 
HETATM    2  O1    D T 801       1.189  -9.451   0.569  1.00 47.76    -0.265 OA
HETATM    3  N2    D T 801       0.068  -9.202  -1.348  1.00 46.59    -0.208 NA
ENDROOT
BRANCH   1   4
HETATM    4  C9    D T 801      -1.077 -10.035   0.707  1.00 40.68     0.059 A 
HETATM    5  C8    D T 801      -1.031 -11.108   1.623  1.00 40.60     0.004 A 
HETATM    6  C7    D T 801      -2.167 -11.526   2.301  1.00 42.33    -0.004 A 
HETATM    7  C6    D T 801      -3.389 -10.903   2.110  1.00 44.57    -0.014 A 
HETATM    8  C5    D T 801      -3.469  -9.826   1.208  1.00 44.90     0.038 A 
HETATM    9  C11   D T 801      -4.596 -11.392   2.868  1.00 40.34     0.032 C 
HETATM   10  C10   D T 801      -2.316  -9.403   0.520  1.00 44.55     0.013 A 
BRANCH   8  11
HETATM   11  C4    D T 801      -4.678  -9.107   0.927  1.00 43.57    -0.058 C 
HETATM   12  C3    D T 801      -5.660  -8.490   0.729  1.00 44.10    -0.039 C 
BRANCH  12  13
HETATM   13  C2    D T 801      -6.857  -7.762   0.423  1.00 46.85     0.145 A 
HETATM   14  N82   D T 801      -8.147  -7.957   0.851  1.00 45.71    -0.203 N 
HETATM   15  N81   D T 801      -8.739  -8.915   1.688  1.00 48.41    -0.162 NA
HETATM   16  C84   D T 801      -8.904  -6.955   0.276  1.00 48.08     0.165 A 
HETATM   17  C83   D T 801     -10.027  -8.868   1.930  1.00 54.40     0.121 A 
HETATM   18  C82   D T 801     -10.829  -7.861   1.360  1.00 53.21     0.026 A 
HETATM   19  C81   D T 801     -10.287  -6.908   0.542  1.00 48.83     0.041 A 
HETATM   20  N1    D T 801      -8.117  -6.188  -0.462  1.00 46.84    -0.223 NA
HETATM   21  C1    D T 801      -6.879  -6.648  -0.393  1.00 46.95     0.128 A 
ENDBRANCH  12  13
ENDBRANCH   8  11
ENDBRANCH   1   4
BRANCH   3  22
HETATM   22  C13   D T 801       1.139  -8.764  -2.152  1.00 45.13     0.085 A 
HETATM   23  C14   D T 801       2.249  -9.580  -2.360  1.00 45.97     0.019 A 
HETATM   24  C15   D T 801       3.326  -9.138  -3.115  1.00 43.20    -0.001 A 
HETATM   25  C16   D T 801       3.343  -7.859  -3.678  1.00 40.99     0.015 A 
HETATM   26  C17   D T 801       2.233  -7.016  -3.445  1.00 44.10     0.071 A 
HETATM   27  C18   D T 801       1.155  -7.474  -2.682  1.00 42.25     0.023 A 
BRANCH  25  28
HETATM   28  C20   D T 801       4.553  -7.413  -4.496  1.00 39.15     0.277 C 
BRANCH  28  29
HETATM   29  N3    D T 801       5.550  -8.465  -4.774  1.00 38.29     0.146 N 
HETATM   30  C21   D T 801       6.858  -8.123  -4.173  1.00 41.73     0.286 C 
HETATM   31  C22   D T 801       7.900  -9.209  -4.462  1.00 41.71     0.286 C 
HETATM   32  N4    D T 801       7.991  -9.432  -5.912  1.00 48.22     0.143 N 
HETATM   33  C23   D T 801       6.684  -9.851  -6.453  1.00 42.74     0.286 C 
HETATM   34  C25   D T 801       9.045 -10.402  -6.238  1.00 47.13     0.285 C 
HETATM   35  C24   D T 801       5.677  -8.720  -6.218  1.00 36.93     0.286 C 
ENDBRANCH  28  29
ENDBRANCH  25  28
BRANCH  26  36
HETATM   36  C19   D T 801       2.156  -5.609  -4.009  1.00 42.98     0.419 C 
HETATM   37  F1    D T 801       3.229  -5.317  -4.861  1.00 48.85    -0.166 F 
HETATM   38  F2    D T 801       0.960  -5.432  -4.713  1.00 43.91    -0.166 F 
HETATM   39  F3    D T 801       2.191  -4.717  -2.943  1.00 45.50    -0.166 F 
ENDBRANCH  26  36
ENDBRANCH   3  22
TORSDOF 7
ENDMDL
MODEL 8
REMARK VINA RESULT:      -6.9      2.003      2.798
REMARK  7 active torsions:
REMARK  status: ('A' for Active; 'I' for Inactive)
REMARK    1  A    between atoms: N3_2  and  C20_12 
REMARK    2  A    between atoms: C4_3  and  C5_4 
REMARK    3  A    between atoms: C13_9  and  N2_29 
REMARK    4  A    between atoms: C17_11  and  C19_33 
REMARK    5  A    between atoms: C20_12  and  C16_31 
REMARK    6  A    between atoms: C2_23  and  C3_24 
REMARK    7  A    between atoms: C9_25  and  C12_27 
REMARK       I    between atoms: C12_27  and  N2_29 
ROOT
HETATM    1  C12   D T 801       1.839  -2.108  -5.329  1.00 44.92     0.279 C 
HETATM    2  O1    D T 801       1.524  -1.674  -6.422  1.00 47.76    -0.265 OA
HETATM    3  N2    D T 801       1.667  -1.335  -4.218  1.00 46.59    -0.208 NA
ENDROOT
BRANCH   1   4
HETATM    4  C9    D T 801       2.376  -3.503  -5.229  1.00 40.68     0.059 A 
HETATM    5  C8    D T 801       3.647  -3.876  -5.715  1.00 40.60     0.004 A 
HETATM    6  C7    D T 801       4.118  -5.173  -5.580  1.00 42.33    -0.004 A 
HETATM    7  C6    D T 801       3.363  -6.152  -4.957  1.00 44.57    -0.014 A 
HETATM    8  C5    D T 801       2.093  -5.814  -4.456  1.00 44.90     0.038 A 
HETATM    9  C11   D T 801       3.916  -7.549  -4.835  1.00 40.34     0.032 C 
HETATM   10  C10   D T 801       1.614  -4.498  -4.594  1.00 44.55     0.013 A 
BRANCH   8  11
HETATM   11  C4    D T 801       1.220  -6.742  -3.796  1.00 43.57    -0.058 C 
HETATM   12  C3    D T 801       0.535  -7.533  -3.259  1.00 44.10    -0.039 C 
BRANCH  12  13
HETATM   13  C2    D T 801      -0.334  -8.445  -2.574  1.00 46.85     0.145 A 
HETATM   14  N82   D T 801      -0.171  -9.096  -1.376  1.00 45.71    -0.203 N 
HETATM   15  N81   D T 801       0.876  -9.123  -0.441  1.00 48.41    -0.162 NA
HETATM   16  C84   D T 801      -1.322  -9.831  -1.171  1.00 48.08     0.165 A 
HETATM   17  C83   D T 801       0.768  -9.854   0.642  1.00 54.40     0.121 A 
HETATM   18  C82   D T 801      -0.391 -10.616   0.883  1.00 53.21     0.026 A 
HETATM   19  C81   D T 801      -1.433 -10.612  -0.004  1.00 48.83     0.041 A 
HETATM   20  N1    D T 801      -2.146  -9.635  -2.189  1.00 46.84    -0.223 NA
HETATM   21  C1    D T 801      -1.580  -8.805  -3.049  1.00 46.95     0.128 A 
ENDBRANCH  12  13
ENDBRANCH   8  11
ENDBRANCH   1   4
BRANCH   3  22
HETATM   22  C13   D T 801       1.132  -0.032  -4.179  1.00 45.13     0.085 A 
HETATM   23  C14   D T 801      -0.225   0.169  -3.930  1.00 45.97     0.019 A 
HETATM   24  C15   D T 801      -0.767   1.447  -3.934  1.00 43.20    -0.001 A 
HETATM   25  C16   D T 801       0.021   2.570  -4.201  1.00 40.99     0.015 A 
HETATM   26  C17   D T 801       1.390   2.369  -4.484  1.00 44.10     0.071 A 
HETATM   27  C18   D T 801       1.923   1.076  -4.477  1.00 42.25     0.023 A 
BRANCH  25  28
HETATM   28  C20   D T 801      -0.622   3.956  -4.201  1.00 39.15     0.277 C 
BRANCH  28  29
HETATM   29  N3    D T 801      -1.098   4.432  -5.513  1.00 38.29     0.146 N 
HETATM   30  C21   D T 801      -0.916   5.894  -5.642  1.00 41.73     0.286 C 
HETATM   31  C22   D T 801      -1.414   6.397  -7.001  1.00 41.71     0.286 C 
HETATM   32  N4    D T 801      -2.811   5.987  -7.197  1.00 48.22     0.143 N 
HETATM   33  C23   D T 801      -2.932   4.518  -7.143  1.00 42.74     0.286 C 
HETATM   34  C25   D T 801      -3.355   6.527  -8.450  1.00 47.13     0.285 C 
HETATM   35  C24   D T 801      -2.499   4.046  -5.751  1.00 36.93     0.286 C 
ENDBRANCH  28  29
ENDBRANCH  25  28
BRANCH  26  36
HETATM   36  C19   D T 801       2.329   3.522  -4.789  1.00 42.98     0.419 C 
HETATM   37  F1    D T 801       1.892   4.727  -4.225  1.00 48.85    -0.166 F 
HETATM   38  F2    D T 801       3.615   3.242  -4.316  1.00 43.91    -0.166 F 
HETATM   39  F3    D T 801       2.378   3.680  -6.170  1.00 45.50    -0.166 F 
ENDBRANCH  26  36
ENDBRANCH   3  22
TORSDOF 7
ENDMDL
MODEL 9
REMARK VINA RESULT:      -6.7      7.730     14.318
REMARK  7 active torsions:
REMARK  status: ('A' for Active; 'I' for Inactive)
REMARK    1  A    between atoms: N3_2  and  C20_12 
REMARK    2  A    between atoms: C4_3  and  C5_4 
REMARK    3  A    between atoms: C13_9  and  N2_29 
REMARK    4  A    between atoms: C17_11  and  C19_33 
REMARK    5  A    between atoms: C20_12  and  C16_31 
REMARK    6  A    between atoms: C2_23  and  C3_24 
REMARK    7  A    between atoms: C9_25  and  C12_27 
REMARK       I    between atoms: C12_27  and  N2_29 
ROOT
HETATM    1  C12   D T 801      -7.271  -1.486  -1.414  1.00 44.92     0.279 C 
HETATM    2  O1    D T 801      -7.326  -1.387  -0.202  1.00 47.76    -0.265 OA
HETATM    3  N2    D T 801      -7.373  -2.716  -1.997  1.00 46.59    -0.208 NA
ENDROOT
BRANCH   1   4
HETATM    4  C9    D T 801      -7.128  -0.244  -2.239  1.00 40.68     0.059 A 
HETATM    5  C8    D T 801      -8.230   0.517  -2.682  1.00 40.60     0.004 A 
HETATM    6  C7    D T 801      -8.054   1.676  -3.423  1.00 42.33    -0.004 A 
HETATM    7  C6    D T 801      -6.790   2.136  -3.751  1.00 44.57    -0.014 A 
HETATM    8  C5    D T 801      -5.668   1.404  -3.321  1.00 44.90     0.038 A 
HETATM    9  C11   D T 801      -6.647   3.400  -4.560  1.00 40.34     0.032 C 
HETATM   10  C10   D T 801      -5.847   0.227  -2.570  1.00 44.55     0.013 A 
BRANCH   8  11
HETATM   11  C4    D T 801      -4.312   1.779  -3.602  1.00 43.57    -0.058 C 
HETATM   12  C3    D T 801      -3.187   2.052  -3.811  1.00 44.10    -0.039 C 
BRANCH  12  13
HETATM   13  C2    D T 801      -1.837   2.422  -4.121  1.00 46.85     0.145 A 
HETATM   14  N82   D T 801      -0.649   1.861  -3.720  1.00 45.71    -0.203 N 
HETATM   15  N81   D T 801      -0.342   0.782  -2.876  1.00 48.41    -0.162 NA
HETATM   16  C84   D T 801       0.352   2.589  -4.331  1.00 48.08     0.165 A 
HETATM   17  C83   D T 801       0.909   0.457  -2.657  1.00 54.40     0.121 A 
HETATM   18  C82   D T 801       1.956   1.178  -3.263  1.00 53.21     0.026 A 
HETATM   19  C81   D T 801       1.695   2.233  -4.094  1.00 48.83     0.041 A 
HETATM   20  N1    D T 801      -0.196   3.542  -5.068  1.00 46.84    -0.223 NA
HETATM   21  C1    D T 801      -1.512   3.467  -4.963  1.00 46.95     0.128 A 
ENDBRANCH  12  13
ENDBRANCH   8  11
ENDBRANCH   1   4
BRANCH   3  22
HETATM   22  C13   D T 801      -7.554  -3.945  -1.333  1.00 45.13     0.085 A 
HETATM   23  C14   D T 801      -6.465  -4.622  -0.787  1.00 45.97     0.019 A 
HETATM   24  C15   D T 801      -6.630  -5.854  -0.170  1.00 43.20    -0.001 A 
HETATM   25  C16   D T 801      -7.884  -6.464  -0.088  1.00 40.99     0.015 A 
HETATM   26  C17   D T 801      -8.987  -5.797  -0.666  1.00 44.10     0.071 A 
HETATM   27  C18   D T 801      -8.806  -4.556  -1.285  1.00 42.25     0.023 A 
BRANCH  25  28
HETATM   28  C20   D T 801      -8.016  -7.824   0.595  1.00 39.15     0.277 C 
BRANCH  28  29
HETATM   29  N3    D T 801      -6.743  -8.470   0.968  1.00 38.29     0.146 N 
HETATM   30  C21   D T 801      -6.545  -9.723   0.207  1.00 41.73     0.286 C 
HETATM   31  C22   D T 801      -5.227 -10.403   0.593  1.00 41.71     0.286 C 
HETATM   32  N4    D T 801      -5.190 -10.618   2.047  1.00 48.22     0.143 N 
HETATM   33  C23   D T 801      -5.307  -9.334   2.762  1.00 42.74     0.286 C 
HETATM   34  C25   D T 801      -3.980 -11.349   2.448  1.00 47.13     0.285 C 
HETATM   35  C24   D T 801      -6.663  -8.708   2.418  1.00 36.93     0.286 C 
ENDBRANCH  28  29
ENDBRANCH  25  28
BRANCH  26  36
HETATM   36  C19   D T 801     -10.389  -6.375  -0.633  1.00 42.98     0.419 C 
HETATM   37  F1    D T 801     -10.402  -7.753  -0.886  1.00 48.85    -0.166 F 
HETATM   38  F2    D T 801     -10.985  -6.139   0.610  1.00 43.91    -0.166 F 
HETATM   39  F3    D T 801     -11.137  -5.745  -1.622  1.00 45.50    -0.166 F 
ENDBRANCH  26  36
ENDBRANCH   3  22
TORSDOF 7
ENDMDL
