MODEL 1
REMARK VINA RESULT:   -10.525      0.000      0.000
REMARK INTER + INTRA:         -12.165
REMARK INTER:                 -11.756
REMARK INTRA:                  -0.409
REMARK UNBOUND:                -0.409
REMARK  2 active torsions:
REMARK  status: ('A' for Active; 'I' for Inactive)
REMARK    1  A    between atoms: CAX_24  and  NBD_30 
REMARK    2  A    between atoms: CAY_25  and  CAZ_26 
ROOT
HETATM    1  CAE   D T 501      -2.821  -2.273  11.373  1.00 28.11     0.002 A 
HETATM    2  CAF   D T 501      -4.597  -3.500  10.300  1.00 31.06     0.002 A 
HETATM    3  CAG   D T 501      -3.488  -1.072  11.078  1.00 28.67     0.017 A 
HETATM    4  CAH   D T 501      -5.248  -2.301   9.980  1.00 30.46     0.017 A 
HETATM    5  CAK   D T 501      -3.362  -5.982  11.255  1.00 23.78     0.102 A 
HETATM    6  CAL   D T 501       0.849  -7.512  12.054  1.00 24.69     0.124 A 
HETATM    7  CAM   D T 501      -1.357  -4.698  11.456  1.00 24.63     0.104 A 
HETATM    8  NAS   D T 501      -2.655  -7.111  11.466  1.00 20.85    -0.225 NA
HETATM    9  NAT   D T 501       0.798  -6.157  11.939  1.00 25.16    -0.162 NA
HETATM   10  CAV   D T 501      -3.390  -3.495  11.006  1.00 25.80     0.003 A 
HETATM   11  CAW   D T 501      -2.724  -4.720  11.268  1.00 25.02     0.038 A 
HETATM   12  CAX   D T 501      -4.677  -1.081  10.357  1.00 27.25     0.056 A 
HETATM   13  CAZ   D T 501      -0.331  -7.930  11.888  1.00 24.84     0.057 A 
HETATM   14  CBC   D T 501      -1.324  -7.078  11.673  1.00 23.94     0.165 A 
HETATM   15  NBE   D T 501      -0.673  -5.836  11.670  1.00 26.21    -0.211 N 
ENDROOT
BRANCH  13  16
HETATM   16  CAY   D T 501      -0.482  -9.350  11.992  1.00 23.50     0.007 A 
HETATM   17  CAD   D T 501      -0.198 -10.106  10.891  1.00 28.61     0.021 A 
HETATM   18  CAC   D T 501      -0.354 -11.479  10.913  1.00 31.28     0.099 A 
HETATM   19  NAR   D T 501      -0.789 -12.122  11.984  1.00 29.97    -0.244 NA
HETATM   20  CBA   D T 501      -1.086 -11.459  13.103  1.00 29.39     0.081 A 
HETATM   21  CAI   D T 501      -1.548 -12.149  14.237  1.00 24.64     0.019 A 
HETATM   22  CBB   D T 501      -0.963 -10.026  13.148  1.00 25.45     0.018 A 
HETATM   23  CAA   D T 501      -1.880 -11.460  15.372  1.00 25.05     0.002 A 
HETATM   24  CAB   D T 501      -1.766 -10.093  15.433  1.00 24.88     0.000 A 
HETATM   25  CAJ   D T 501      -1.323  -9.371  14.332  1.00 27.86     0.002 A 
ENDBRANCH  13  16
BRANCH  12  26
HETATM   26  NBD   D T 501      -5.358   0.204  10.023  1.00 33.43    -0.344 N 
HETATM   27  CAP   D T 501      -5.914   0.319   8.673  1.00 26.51     0.140 C 
HETATM   28  CAN   D T 501      -4.781   0.930   7.781  1.00 28.69     0.314 C 
HETATM   29  NAU   D T 501      -4.245   2.113   8.360  1.00 26.40     0.343 N 
HETATM   30  CAO   D T 501      -3.700   1.928   9.679  1.00 27.47     0.314 C 
HETATM   31  CAQ   D T 501      -4.800   1.400  10.616  1.00 29.57     0.140 C 
ENDBRANCH  12  26
TORSDOF 2
ENDMDL
MODEL 2
REMARK VINA RESULT:   -10.207      1.915     10.608
REMARK INTER + INTRA:         -11.810
REMARK INTER:                 -12.898
REMARK INTRA:                   1.088
REMARK UNBOUND:                -0.409
REMARK  2 active torsions:
REMARK  status: ('A' for Active; 'I' for Inactive)
REMARK    1  A    between atoms: CAX_24  and  NBD_30 
REMARK    2  A    between atoms: CAY_25  and  CAZ_26 
ROOT
HETATM    1  CAE   D T 501      -3.638  -7.627  12.218  1.00 28.11     0.002 A 
HETATM    2  CAF   D T 501      -1.292  -7.084  12.330  1.00 31.06     0.002 A 
HETATM    3  CAG   D T 501      -3.339  -8.947  12.596  1.00 28.67     0.017 A 
HETATM    4  CAH   D T 501      -0.990  -8.407  12.678  1.00 30.46     0.017 A 
HETATM    5  CAK   D T 501      -1.997  -4.270  11.903  1.00 23.78     0.102 A 
HETATM    6  CAL   D T 501      -5.180  -1.943   9.630  1.00 24.69     0.124 A 
HETATM    7  CAM   D T 501      -4.042  -5.104  10.991  1.00 24.63     0.104 A 
HETATM    8  NAS   D T 501      -2.302  -3.037  11.447  1.00 20.85    -0.225 NA
HETATM    9  NAT   D T 501      -5.501  -3.257   9.782  1.00 25.16    -0.162 NA
HETATM   10  CAV   D T 501      -2.614  -6.683  12.109  1.00 25.80     0.003 A 
HETATM   11  CAW   D T 501      -2.886  -5.351  11.704  1.00 25.02     0.038 A 
HETATM   12  CAX   D T 501      -2.021  -9.346  12.792  1.00 27.25     0.056 A 
HETATM   13  CAZ   D T 501      -4.056  -1.784  10.182  1.00 24.84     0.057 A 
HETATM   14  CBC   D T 501      -3.444  -2.801  10.773  1.00 23.94     0.165 A 
HETATM   15  NBE   D T 501      -4.328  -3.866  10.550  1.00 26.21    -0.211 N 
ENDROOT
BRANCH  13  16
HETATM   16  CAY   D T 501      -3.555  -0.443  10.140  1.00 23.50     0.007 A 
HETATM   17  CAD   D T 501      -2.471  -0.141  10.916  1.00 28.61     0.021 A 
HETATM   18  CAC   D T 501      -1.956   1.141  10.948  1.00 31.28     0.099 A 
HETATM   19  NAR   D T 501      -2.485   2.131  10.247  1.00 29.97    -0.244 NA
HETATM   20  CBA   D T 501      -3.542   1.920   9.461  1.00 29.39     0.081 A 
HETATM   21  CAI   D T 501      -4.097   2.977   8.719  1.00 24.64     0.019 A 
HETATM   22  CBB   D T 501      -4.141   0.614   9.390  1.00 25.45     0.018 A 
HETATM   23  CAA   D T 501      -5.201   2.762   7.938  1.00 25.05     0.002 A 
HETATM   24  CAB   D T 501      -5.783   1.520   7.856  1.00 24.88     0.000 A 
HETATM   25  CAJ   D T 501      -5.272   0.451   8.581  1.00 27.86     0.002 A 
ENDBRANCH  13  16
BRANCH  12  26
HETATM   26  NBD   D T 501      -1.715 -10.758  13.163  1.00 33.43    -0.344 N 
HETATM   27  CAP   D T 501      -2.843 -11.575  13.618  1.00 26.51     0.140 C 
HETATM   28  CAN   D T 501      -2.913 -11.402  15.172  1.00 28.69     0.314 C 
HETATM   29  NAU   D T 501      -1.652 -11.651  15.780  1.00 26.40     0.343 N 
HETATM   30  CAO   D T 501      -0.591 -10.804  15.302  1.00 27.47     0.314 C 
HETATM   31  CAQ   D T 501      -0.430 -10.996  13.784  1.00 29.57     0.140 C 
ENDBRANCH  12  26
TORSDOF 2
ENDMDL
MODEL 3
REMARK VINA RESULT:    -9.870      1.475      2.874
REMARK INTER + INTRA:         -11.433
REMARK INTER:                 -11.307
REMARK INTRA:                  -0.127
REMARK UNBOUND:                -0.409
REMARK  2 active torsions:
REMARK  status: ('A' for Active; 'I' for Inactive)
REMARK    1  A    between atoms: CAX_24  and  NBD_30 
REMARK    2  A    between atoms: CAY_25  and  CAZ_26 
ROOT
HETATM    1  CAE   D T 501      -4.679  -3.702  10.157  1.00 28.11     0.002 A 
HETATM    2  CAF   D T 501      -2.837  -2.523  11.170  1.00 31.06     0.002 A 
HETATM    3  CAG   D T 501      -5.193  -2.480   9.694  1.00 28.67     0.017 A 
HETATM    4  CAH   D T 501      -3.364  -1.300  10.734  1.00 30.46     0.017 A 
HETATM    5  CAK   D T 501      -1.616  -5.113  11.796  1.00 23.78     0.102 A 
HETATM    6  CAL   D T 501      -3.049  -9.292  12.892  1.00 24.69     0.124 A 
HETATM    7  CAM   D T 501      -3.819  -6.009  11.561  1.00 24.63     0.104 A 
HETATM    8  NAS   D T 501      -1.198  -6.289  12.309  1.00 20.85    -0.225 NA
HETATM    9  NAT   D T 501      -4.039  -8.521  12.364  1.00 25.16    -0.162 NA
HETATM   10  CAV   D T 501      -3.482  -3.728  10.877  1.00 25.80     0.003 A 
HETATM   11  CAW   D T 501      -2.957  -4.947  11.379  1.00 25.02     0.038 A 
HETATM   12  CAX   D T 501      -4.560  -1.281  10.007  1.00 27.25     0.056 A 
HETATM   13  CAZ   D T 501      -2.012  -8.573  12.919  1.00 24.84     0.057 A 
HETATM   14  CBC   D T 501      -2.041  -7.329  12.461  1.00 23.94     0.165 A 
HETATM   15  NBE   D T 501      -3.378  -7.174  12.069  1.00 26.21    -0.211 N 
ENDROOT
BRANCH  13  16
HETATM   16  CAY   D T 501      -0.845  -9.226  13.433  1.00 23.50     0.007 A 
HETATM   17  CAD   D T 501      -0.457  -8.930  14.709  1.00 28.61     0.021 A 
HETATM   18  CAC   D T 501       0.677  -9.499  15.256  1.00 31.28     0.099 A 
HETATM   19  NAR   D T 501       1.441 -10.341  14.578  1.00 29.97    -0.244 NA
HETATM   20  CBA   D T 501       1.131 -10.685  13.327  1.00 29.39     0.081 A 
HETATM   21  CAI   D T 501       1.947 -11.580  12.613  1.00 24.64     0.019 A 
HETATM   22  CBB   D T 501      -0.027 -10.119  12.688  1.00 25.45     0.018 A 
HETATM   23  CAA   D T 501       1.641 -11.906  11.319  1.00 25.05     0.002 A 
HETATM   24  CAB   D T 501       0.537 -11.378  10.695  1.00 24.88     0.000 A 
HETATM   25  CAJ   D T 501      -0.290 -10.482  11.360  1.00 27.86     0.002 A 
ENDBRANCH  13  16
BRANCH  12  26
HETATM   26  NBD   D T 501      -5.134   0.013   9.535  1.00 33.43    -0.344 N 
HETATM   27  CAP   D T 501      -4.868   0.377   8.142  1.00 26.51     0.140 C 
HETATM   28  CAN   D T 501      -3.541   1.208   8.149  1.00 28.69     0.314 C 
HETATM   29  NAU   D T 501      -3.598   2.271   9.092  1.00 26.40     0.343 N 
HETATM   30  CAO   D T 501      -3.845   1.844  10.445  1.00 27.47     0.314 C 
HETATM   31  CAQ   D T 501      -5.182   1.086  10.505  1.00 29.57     0.140 C 
ENDBRANCH  12  26
TORSDOF 2
ENDMDL
MODEL 4
REMARK VINA RESULT:    -9.755      2.030     10.233
REMARK INTER + INTRA:         -11.305
REMARK INTER:                 -12.650
REMARK INTRA:                   1.346
REMARK UNBOUND:                -0.409
REMARK  2 active torsions:
REMARK  status: ('A' for Active; 'I' for Inactive)
REMARK    1  A    between atoms: CAX_24  and  NBD_30 
REMARK    2  A    between atoms: CAY_25  and  CAZ_26 
ROOT
HETATM    1  CAE   D T 501      -3.806  -7.672  11.843  1.00 28.11     0.002 A 
HETATM    2  CAF   D T 501      -1.681  -6.677  12.394  1.00 31.06     0.002 A 
HETATM    3  CAG   D T 501      -3.346  -8.903  12.338  1.00 28.67     0.017 A 
HETATM    4  CAH   D T 501      -1.210  -7.912  12.860  1.00 30.46     0.017 A 
HETATM    5  CAK   D T 501      -2.806  -4.061  11.696  1.00 23.78     0.102 A 
HETATM    6  CAL   D T 501      -5.838  -2.427   8.721  1.00 24.69     0.124 A 
HETATM    7  CAM   D T 501      -4.422  -5.290  10.436  1.00 24.63     0.104 A 
HETATM    8  NAS   D T 501      -3.240  -2.917  11.128  1.00 20.85    -0.225 NA
HETATM    9  NAT   D T 501      -5.927  -3.777   8.871  1.00 25.16    -0.162 NA
HETATM   10  CAV   D T 501      -2.981  -6.546  11.894  1.00 25.80     0.003 A 
HETATM   11  CAW   D T 501      -3.413  -5.298  11.377  1.00 25.02     0.038 A 
HETATM   12  CAX   D T 501      -2.044  -9.033  12.813  1.00 27.25     0.056 A 
HETATM   13  CAZ   D T 501      -4.903  -2.044   9.477  1.00 24.84     0.057 A 
HETATM   14  CBC   D T 501      -4.243  -2.915  10.228  1.00 23.94     0.165 A 
HETATM   15  NBE   D T 501      -4.842  -4.136   9.887  1.00 26.21    -0.211 N 
ENDROOT
BRANCH  13  16
HETATM   16  CAY   D T 501      -4.669  -0.631   9.471  1.00 23.50     0.007 A 
HETATM   17  CAD   D T 501      -5.688   0.183   9.066  1.00 28.61     0.021 A 
HETATM   18  CAC   D T 501      -5.519   1.554   9.005  1.00 31.28     0.099 A 
HETATM   19  NAR   D T 501      -4.375   2.138   9.322  1.00 29.97    -0.244 NA
HETATM   20  CBA   D T 501      -3.331   1.415   9.731  1.00 29.39     0.081 A 
HETATM   21  CAI   D T 501      -2.119   2.043  10.066  1.00 24.64     0.019 A 
HETATM   22  CBB   D T 501      -3.429  -0.018   9.803  1.00 25.45     0.018 A 
HETATM   23  CAA   D T 501      -1.042   1.294  10.455  1.00 25.05     0.002 A 
HETATM   24  CAB   D T 501      -1.120  -0.076  10.533  1.00 24.88     0.000 A 
HETATM   25  CAJ   D T 501      -2.294  -0.737  10.201  1.00 27.86     0.002 A 
ENDBRANCH  13  16
BRANCH  12  26
HETATM   26  NBD   D T 501      -1.558 -10.355  13.306  1.00 33.43    -0.344 N 
HETATM   27  CAP   D T 501      -2.553 -11.425  13.400  1.00 26.51     0.140 C 
HETATM   28  CAN   D T 501      -3.154 -11.343  14.843  1.00 28.69     0.314 C 
HETATM   29  NAU   D T 501      -2.132 -11.326  15.831  1.00 26.40     0.343 N 
HETATM   30  CAO   D T 501      -1.198 -10.239  15.693  1.00 27.47     0.314 C 
HETATM   31  CAQ   D T 501      -0.520 -10.322  14.314  1.00 29.57     0.140 C 
ENDBRANCH  12  26
TORSDOF 2
ENDMDL
MODEL 5
REMARK VINA RESULT:    -9.744      1.363      2.188
REMARK INTER + INTRA:         -11.292
REMARK INTER:                 -10.969
REMARK INTRA:                  -0.323
REMARK UNBOUND:                -0.409
REMARK  2 active torsions:
REMARK  status: ('A' for Active; 'I' for Inactive)
REMARK    1  A    between atoms: CAX_24  and  NBD_30 
REMARK    2  A    between atoms: CAY_25  and  CAZ_26 
ROOT
HETATM    1  CAE   D T 501      -4.673  -3.414  10.437  1.00 28.11     0.002 A 
HETATM    2  CAF   D T 501      -2.690  -2.357  11.309  1.00 31.06     0.002 A 
HETATM    3  CAG   D T 501      -5.193  -2.149  10.116  1.00 28.67     0.017 A 
HETATM    4  CAH   D T 501      -3.221  -1.093  11.017  1.00 30.46     0.017 A 
HETATM    5  CAK   D T 501      -1.495  -5.016  11.621  1.00 23.78     0.102 A 
HETATM    6  CAL   D T 501      -2.939  -9.221  12.595  1.00 24.69     0.124 A 
HETATM    7  CAM   D T 501      -3.740  -5.835  11.578  1.00 24.63     0.104 A 
HETATM    8  NAS   D T 501      -1.063  -6.235  12.004  1.00 20.85    -0.225 NA
HETATM    9  NAT   D T 501      -3.954  -8.389  12.234  1.00 25.16    -0.162 NA
HETATM   10  CAV   D T 501      -3.405  -3.522  11.012  1.00 25.80     0.003 A 
HETATM   11  CAW   D T 501      -2.868  -4.785  11.370  1.00 25.02     0.038 A 
HETATM   12  CAX   D T 501      -4.489  -0.993  10.434  1.00 27.25     0.056 A 
HETATM   13  CAZ   D T 501      -1.881  -8.533  12.551  1.00 24.84     0.057 A 
HETATM   14  CBC   D T 501      -1.919  -7.260  12.182  1.00 23.94     0.165 A 
HETATM   15  NBE   D T 501      -3.285  -7.043  11.956  1.00 26.21    -0.211 N 
ENDROOT
BRANCH  13  16
HETATM   16  CAY   D T 501      -0.687  -9.250  12.884  1.00 23.50     0.007 A 
HETATM   17  CAD   D T 501       0.112  -9.673  11.860  1.00 28.61     0.021 A 
HETATM   18  CAC   D T 501       1.262 -10.398  12.110  1.00 31.28     0.099 A 
HETATM   19  NAR   D T 501       1.638 -10.723  13.337  1.00 29.97    -0.244 NA
HETATM   20  CBA   D T 501       0.915 -10.346  14.393  1.00 29.39     0.081 A 
HETATM   21  CAI   D T 501       1.321 -10.696  15.692  1.00 24.64     0.019 A 
HETATM   22  CBB   D T 501      -0.302  -9.603  14.207  1.00 25.45     0.018 A 
HETATM   23  CAA   D T 501       0.560 -10.333  16.771  1.00 25.05     0.002 A 
HETATM   24  CAB   D T 501      -0.604  -9.621  16.611  1.00 24.88     0.000 A 
HETATM   25  CAJ   D T 501      -1.046  -9.264  15.345  1.00 27.86     0.002 A 
ENDBRANCH  13  16
BRANCH  12  26
HETATM   26  NBD   D T 501      -5.067   0.346  10.116  1.00 33.43    -0.344 N 
HETATM   27  CAP   D T 501      -5.940   0.420   8.942  1.00 26.51     0.140 C 
HETATM   28  CAN   D T 501      -5.015   0.763   7.726  1.00 28.69     0.314 C 
HETATM   29  NAU   D T 501      -4.202   1.898   7.996  1.00 26.40     0.343 N 
HETATM   30  CAO   D T 501      -3.355   1.754   9.152  1.00 27.47     0.314 C 
HETATM   31  CAQ   D T 501      -4.227   1.491  10.392  1.00 29.57     0.140 C 
ENDBRANCH  12  26
TORSDOF 2
ENDMDL
MODEL 6
REMARK VINA RESULT:    -9.740      1.721     10.392
REMARK INTER + INTRA:         -11.288
REMARK INTER:                 -12.535
REMARK INTRA:                   1.247
REMARK UNBOUND:                -0.409
REMARK  2 active torsions:
REMARK  status: ('A' for Active; 'I' for Inactive)
REMARK    1  A    between atoms: CAX_24  and  NBD_30 
REMARK    2  A    between atoms: CAY_25  and  CAZ_26 
ROOT
HETATM    1  CAE   D T 501      -1.207  -7.644  12.528  1.00 28.11     0.002 A 
HETATM    2  CAF   D T 501      -3.559  -8.171  12.523  1.00 31.06     0.002 A 
HETATM    3  CAG   D T 501      -0.931  -8.929  13.024  1.00 28.67     0.017 A 
HETATM    4  CAH   D T 501      -3.287  -9.443  13.046  1.00 30.46     0.017 A 
HETATM    5  CAK   D T 501      -4.053  -5.629  11.149  1.00 23.78     0.102 A 
HETATM    6  CAL   D T 501      -2.244  -1.453  11.122  1.00 24.69     0.124 A 
HETATM    7  CAM   D T 501      -1.931  -4.952  12.014  1.00 24.63     0.104 A 
HETATM    8  NAS   D T 501      -4.296  -4.359  10.764  1.00 20.85    -0.225 NA
HETATM    9  NAT   D T 501      -1.422  -2.376  11.693  1.00 25.16    -0.162 NA
HETATM   10  CAV   D T 501      -2.524  -7.271  12.251  1.00 25.80     0.003 A 
HETATM   11  CAW   D T 501      -2.832  -5.970  11.774  1.00 25.02     0.038 A 
HETATM   12  CAX   D T 501      -1.965  -9.813  13.314  1.00 27.25     0.056 A 
HETATM   13  CAZ   D T 501      -3.289  -2.070  10.776  1.00 24.84     0.057 A 
HETATM   14  CBC   D T 501      -3.400  -3.376  10.981  1.00 23.94     0.165 A 
HETATM   15  NBE   D T 501      -2.192  -3.694  11.617  1.00 26.21    -0.211 N 
ENDROOT
BRANCH  13  16
HETATM   16  CAY   D T 501      -4.277  -1.259  10.131  1.00 23.50     0.007 A 
HETATM   17  CAD   D T 501      -5.491  -1.824   9.861  1.00 28.61     0.021 A 
HETATM   18  CAC   D T 501      -6.479  -1.108   9.212  1.00 31.28     0.099 A 
HETATM   19  NAR   D T 501      -6.299   0.142   8.816  1.00 29.97    -0.244 NA
HETATM   20  CBA   D T 501      -5.144   0.769   9.044  1.00 29.39     0.081 A 
HETATM   21  CAI   D T 501      -4.960   2.096   8.619  1.00 24.64     0.019 A 
HETATM   22  CBB   D T 501      -4.065   0.080   9.700  1.00 25.45     0.018 A 
HETATM   23  CAA   D T 501      -3.762   2.724   8.829  1.00 25.05     0.002 A 
HETATM   24  CAB   D T 501      -2.722   2.082   9.457  1.00 24.88     0.000 A 
HETATM   25  CAJ   D T 501      -2.858   0.767   9.882  1.00 27.86     0.002 A 
ENDBRANCH  13  16
BRANCH  12  26
HETATM   26  NBD   D T 501      -1.660 -11.163  13.870  1.00 33.43    -0.344 N 
HETATM   27  CAP   D T 501      -0.604 -11.925  13.199  1.00 26.51     0.140 C 
HETATM   28  CAN   D T 501      -1.311 -12.772  12.088  1.00 28.69     0.314 C 
HETATM   29  NAU   D T 501      -2.403 -13.514  12.616  1.00 26.40     0.343 N 
HETATM   30  CAO   D T 501      -3.413 -12.706  13.247  1.00 27.47     0.314 C 
HETATM   31  CAQ   D T 501      -2.781 -11.908  14.401  1.00 29.57     0.140 C 
ENDBRANCH  12  26
TORSDOF 2
ENDMDL
MODEL 7
REMARK VINA RESULT:    -9.570      1.747     10.519
REMARK INTER + INTRA:         -11.098
REMARK INTER:                 -12.521
REMARK INTRA:                   1.423
REMARK UNBOUND:                -0.409
REMARK  2 active torsions:
REMARK  status: ('A' for Active; 'I' for Inactive)
REMARK    1  A    between atoms: CAX_24  and  NBD_30 
REMARK    2  A    between atoms: CAY_25  and  CAZ_26 
ROOT
HETATM    1  CAE   D T 501      -3.262  -9.170  12.897  1.00 28.11     0.002 A 
HETATM    2  CAF   D T 501      -0.931  -8.612  12.641  1.00 31.06     0.002 A 
HETATM    3  CAG   D T 501      -2.896 -10.469  13.290  1.00 28.67     0.017 A 
HETATM    4  CAH   D T 501      -0.566  -9.915  13.005  1.00 30.46     0.017 A 
HETATM    5  CAK   D T 501      -1.722  -5.825  12.188  1.00 23.78     0.102 A 
HETATM    6  CAL   D T 501      -5.228  -3.626  10.294  1.00 24.69     0.124 A 
HETATM    7  CAM   D T 501      -3.868  -6.712  11.623  1.00 24.63     0.104 A 
HETATM    8  NAS   D T 501      -2.104  -4.618  11.723  1.00 20.85    -0.225 NA
HETATM    9  NAT   D T 501      -5.508  -4.933  10.552  1.00 25.16    -0.162 NA
HETATM   10  CAV   D T 501      -2.275  -8.228  12.596  1.00 25.80     0.003 A 
HETATM   11  CAW   D T 501      -2.619  -6.919  12.172  1.00 25.02     0.038 A 
HETATM   12  CAX   D T 501      -1.559 -10.852  13.311  1.00 27.25     0.056 A 
HETATM   13  CAZ   D T 501      -4.038  -3.435  10.668  1.00 24.84     0.057 A 
HETATM   14  CBC   D T 501      -3.335  -4.419  11.211  1.00 23.94     0.165 A 
HETATM   15  NBE   D T 501      -4.229  -5.498  11.171  1.00 26.21    -0.211 N 
ENDROOT
BRANCH  13  16
HETATM   16  CAY   D T 501      -3.563  -2.095  10.490  1.00 23.50     0.007 A 
HETATM   17  CAD   D T 501      -2.335  -1.780  10.998  1.00 28.61     0.021 A 
HETATM   18  CAC   D T 501      -1.830  -0.498  10.891  1.00 31.28     0.099 A 
HETATM   19  NAR   D T 501      -2.505   0.479  10.307  1.00 29.97    -0.244 NA
HETATM   20  CBA   D T 501      -3.710   0.254   9.782  1.00 29.39     0.081 A 
HETATM   21  CAI   D T 501      -4.421   1.297   9.163  1.00 24.64     0.019 A 
HETATM   22  CBB   D T 501      -4.305  -1.052   9.871  1.00 25.45     0.018 A 
HETATM   23  CAA   D T 501      -5.671   1.068   8.653  1.00 25.05     0.002 A 
HETATM   24  CAB   D T 501      -6.252  -0.174   8.726  1.00 24.88     0.000 A 
HETATM   25  CAJ   D T 501      -5.589  -1.229   9.338  1.00 27.86     0.002 A 
ENDBRANCH  13  16
BRANCH  12  26
HETATM   26  NBD   D T 501      -1.187 -12.243  13.700  1.00 33.43    -0.344 N 
HETATM   27  CAP   D T 501      -0.985 -13.197  12.607  1.00 26.51     0.140 C 
HETATM   28  CAN   D T 501      -2.375 -13.866  12.342  1.00 28.69     0.314 C 
HETATM   29  NAU   D T 501      -2.944 -14.374  13.542  1.00 26.40     0.343 N 
HETATM   30  CAO   D T 501      -3.133 -13.383  14.570  1.00 27.47     0.314 C 
HETATM   31  CAQ   D T 501      -1.776 -12.748  14.921  1.00 29.57     0.140 C 
ENDBRANCH  12  26
TORSDOF 2
ENDMDL
MODEL 8
REMARK VINA RESULT:    -9.471      1.649      2.844
REMARK INTER + INTRA:         -10.987
REMARK INTER:                 -10.695
REMARK INTRA:                  -0.292
REMARK UNBOUND:                -0.409
REMARK  2 active torsions:
REMARK  status: ('A' for Active; 'I' for Inactive)
REMARK    1  A    between atoms: CAX_24  and  NBD_30 
REMARK    2  A    between atoms: CAY_25  and  CAZ_26 
ROOT
HETATM    1  CAE   D T 501      -2.404  -3.751  11.503  1.00 28.11     0.002 A 
HETATM    2  CAF   D T 501      -4.483  -4.716  10.756  1.00 31.06     0.002 A 
HETATM    3  CAG   D T 501      -2.810  -2.508  10.990  1.00 28.67     0.017 A 
HETATM    4  CAH   D T 501      -4.876  -3.483  10.218  1.00 30.46     0.017 A 
HETATM    5  CAK   D T 501      -3.757  -7.187  12.158  1.00 23.78     0.102 A 
HETATM    6  CAL   D T 501       0.062  -9.466  13.125  1.00 24.69     0.124 A 
HETATM    7  CAM   D T 501      -1.509  -6.387  12.034  1.00 24.63     0.104 A 
HETATM    8  NAS   D T 501      -3.302  -8.387  12.574  1.00 20.85    -0.225 NA
HETATM    9  NAT   D T 501       0.302  -8.184  12.739  1.00 25.16    -0.162 NA
HETATM   10  CAV   D T 501      -3.254  -4.856  11.409  1.00 25.80     0.003 A 
HETATM   11  CAW   D T 501      -2.857  -6.128  11.896  1.00 25.02     0.038 A 
HETATM   12  CAX   D T 501      -4.023  -2.379  10.321  1.00 27.25     0.056 A 
HETATM   13  CAZ   D T 501      -1.190  -9.624  13.083  1.00 24.84     0.057 A 
HETATM   14  CBC   D T 501      -1.985  -8.623  12.730  1.00 23.94     0.165 A 
HETATM   15  NBE   D T 501      -1.078  -7.590  12.454  1.00 26.21    -0.211 N 
ENDROOT
BRANCH  13  16
HETATM   16  CAY   D T 501      -1.643 -10.924  13.479  1.00 23.50     0.007 A 
HETATM   17  CAD   D T 501      -2.126 -11.073  14.748  1.00 28.61     0.021 A 
HETATM   18  CAC   D T 501      -2.550 -12.307  15.206  1.00 31.28     0.099 A 
HETATM   19  NAR   D T 501      -2.500 -13.393  14.452  1.00 29.97    -0.244 NA
HETATM   20  CBA   D T 501      -2.045 -13.333  13.200  1.00 29.39     0.081 A 
HETATM   21  CAI   D T 501      -1.996 -14.492  12.406  1.00 24.64     0.019 A 
HETATM   22  CBB   D T 501      -1.573 -12.086  12.662  1.00 25.45     0.018 A 
HETATM   23  CAA   D T 501      -1.500 -14.431  11.131  1.00 25.05     0.002 A 
HETATM   24  CAB   D T 501      -1.048 -13.247  10.601  1.00 24.88     0.000 A 
HETATM   25  CAJ   D T 501      -1.069 -12.081  11.355  1.00 27.86     0.002 A 
ENDBRANCH  13  16
BRANCH  12  26
HETATM   26  NBD   D T 501      -4.428  -1.060   9.754  1.00 33.43    -0.344 N 
HETATM   27  CAP   D T 501      -3.394  -0.024   9.703  1.00 26.51     0.140 C 
HETATM   28  CAN   D T 501      -3.490   0.762  11.053  1.00 28.69     0.314 C 
HETATM   29  NAU   D T 501      -4.821   1.193  11.309  1.00 26.40     0.343 N 
HETATM   30  CAO   D T 501      -5.785   0.126  11.365  1.00 27.47     0.314 C 
HETATM   31  CAQ   D T 501      -5.783  -0.633  10.026  1.00 29.57     0.140 C 
ENDBRANCH  12  26
TORSDOF 2
ENDMDL
MODEL 9
REMARK VINA RESULT:    -8.980      5.577      8.535
REMARK INTER + INTRA:         -10.439
REMARK INTER:                 -10.270
REMARK INTRA:                  -0.169
REMARK UNBOUND:                -0.409
REMARK  2 active torsions:
REMARK  status: ('A' for Active; 'I' for Inactive)
REMARK    1  A    between atoms: CAX_24  and  NBD_30 
REMARK    2  A    between atoms: CAY_25  and  CAZ_26 
ROOT
HETATM    1  CAE   D T 501       2.578   1.008  11.287  1.00 28.11     0.002 A 
HETATM    2  CAF   D T 501       2.307   0.737   8.907  1.00 31.06     0.002 A 
HETATM    3  CAG   D T 501       3.714   1.801  11.056  1.00 28.67     0.017 A 
HETATM    4  CAH   D T 501       3.457   1.504   8.676  1.00 30.46     0.017 A 
HETATM    5  CAK   D T 501      -0.252  -0.597   9.422  1.00 23.78     0.102 A 
HETATM    6  CAL   D T 501      -2.015  -3.287  12.643  1.00 24.69     0.124 A 
HETATM    7  CAM   D T 501       0.600  -0.994  11.620  1.00 24.63     0.104 A 
HETATM    8  NAS   D T 501      -1.281  -1.433   9.676  1.00 20.85    -0.225 NA
HETATM    9  NAT   D T 501      -0.879  -2.658  13.051  1.00 25.16    -0.162 NA
HETATM   10  CAV   D T 501       1.855   0.494  10.208  1.00 25.80     0.003 A 
HETATM   11  CAW   D T 501       0.720  -0.332  10.415  1.00 25.02     0.038 A 
HETATM   12  CAX   D T 501       4.173   2.022   9.761  1.00 27.25     0.056 A 
HETATM   13  CAZ   D T 501      -2.221  -2.917  11.454  1.00 24.84     0.057 A 
HETATM   14  CBC   D T 501      -1.404  -2.056  10.864  1.00 23.94     0.165 A 
HETATM   15  NBE   D T 501      -0.437  -1.818  11.851  1.00 26.21    -0.211 N 
ENDROOT
BRANCH  13  16
HETATM   16  CAY   D T 501      -3.399  -3.467  10.852  1.00 23.50     0.007 A 
HETATM   17  CAD   D T 501      -3.463  -4.823  10.696  1.00 28.61     0.021 A 
HETATM   18  CAC   D T 501      -4.556  -5.417  10.094  1.00 31.28     0.099 A 
HETATM   19  NAR   D T 501      -5.578  -4.712   9.636  1.00 29.97    -0.244 NA
HETATM   20  CBA   D T 501      -5.596  -3.383   9.753  1.00 29.39     0.081 A 
HETATM   21  CAI   D T 501      -6.685  -2.642   9.263  1.00 24.64     0.019 A 
HETATM   22  CBB   D T 501      -4.485  -2.696  10.354  1.00 25.45     0.018 A 
HETATM   23  CAA   D T 501      -6.685  -1.276   9.358  1.00 25.05     0.002 A 
HETATM   24  CAB   D T 501      -5.633  -0.604   9.933  1.00 24.88     0.000 A 
HETATM   25  CAJ   D T 501      -4.533  -1.297  10.419  1.00 27.86     0.002 A 
ENDBRANCH  13  16
BRANCH  12  26
HETATM   26  NBD   D T 501       5.399   2.841   9.532  1.00 33.43    -0.344 N 
HETATM   27  CAP   D T 501       5.718   3.842  10.553  1.00 26.51     0.140 C 
HETATM   28  CAN   D T 501       5.006   5.164  10.111  1.00 28.69     0.314 C 
HETATM   29  NAU   D T 501       5.316   5.497   8.764  1.00 26.40     0.343 N 
HETATM   30  CAO   D T 501       4.962   4.479   7.810  1.00 27.47     0.314 C 
HETATM   31  CAQ   D T 501       5.701   3.175   8.157  1.00 29.57     0.140 C 
ENDBRANCH  12  26
TORSDOF 2
ENDMDL
