MODEL 1
REMARK VINA RESULT:     -11.7      0.000      0.000
REMARK  2 active torsions:
REMARK  status: ('A' for Active; 'I' for Inactive)
REMARK    1  A    between atoms: CBF_31  and  CBG_32 
REMARK    2  A    between atoms: CBG_32  and  NBH_33 
ROOT
HETATM    1  CBD   D T1374       4.577  13.778  -2.741  1.00 18.24     0.056 C 
HETATM    2  CBB   D T1374       3.228  13.216  -2.367  1.00 13.77     0.109 C 
HETATM    3  NAW   D T1374       2.918  13.047  -0.937  1.00 11.00    -0.326 N 
HETATM    4  CAV   D T1374       3.758  12.439  -0.024  1.00  9.70     0.076 A 
HETATM    5  CAX   D T1374       1.750  13.199  -0.348  1.00 10.89     0.060 A 
HETATM    6  CAY   D T1374       0.527  13.690  -0.846  1.00 13.31     0.017 A 
HETATM    7  CAZ   D T1374      -0.583  13.772   0.024  1.00 12.88     0.002 A 
HETATM    8  CAP   D T1374      -0.509  13.403   1.370  1.00 12.85     0.000 A 
HETATM    9  CAO   D T1374       0.716  12.892   1.867  1.00 12.21     0.002 A 
HETATM   10  CAN   D T1374       1.845  12.784   0.989  1.00 11.16     0.017 A 
HETATM   11  CAM   D T1374       3.155  12.352   1.194  1.00 10.47     0.023 A 
HETATM   12  CAH   D T1374       3.789  11.678   2.303  1.00 11.61     0.064 A 
HETATM   13  CAE   D T1374       3.152  10.663   3.090  1.00 11.67     0.282 A 
HETATM   14  OAF   D T1374       1.964  10.283   3.022  1.00 12.38    -0.265 OA
HETATM   15  NAD   D T1374       4.024  10.121   3.984  1.00 11.58    -0.169 NA
HETATM   16  CAC   D T1374       5.189  10.707   3.795  1.00 11.36     0.282 A 
HETATM   17  OAB   D T1374       6.208  10.380   4.421  1.00 13.28    -0.265 OA
HETATM   18  CAG   D T1374       5.138  11.712   2.784  1.00 10.54     0.064 A 
HETATM   19  CAL   D T1374       6.196  12.521   2.255  1.00 12.92     0.023 A 
HETATM   20  CAU   D T1374       5.971  13.740   1.694  1.00 12.44     0.076 A 
HETATM   21  CAK   D T1374       7.584  12.279   2.096  1.00 12.61     0.017 A 
HETATM   22  CAJ   D T1374       8.448  11.197   2.457  1.00 13.95     0.002 A 
HETATM   23  CAI   D T1374       9.802  11.293   2.114  1.00 15.63     0.000 A 
HETATM   24  CAQ   D T1374      10.323  12.405   1.433  1.00 14.37     0.002 A 
HETATM   25  CAR   D T1374       9.475  13.455   1.074  1.00 13.26     0.017 A 
HETATM   26  CAS   D T1374       8.108  13.377   1.409  1.00 11.92     0.060 A 
HETATM   27  NAT   D T1374       7.116  14.242   1.187  1.00 12.89    -0.324 N 
HETATM   28  CBA   D T1374       7.147  15.541   0.459  1.00 13.69     0.138 C 
HETATM   29  CBC   D T1374       6.795  15.214  -1.001  1.00 16.12     0.167 C 
HETATM   30  OBE   D T1374       5.347  15.267  -1.014  1.00 16.41    -0.352 OA
HETATM   31  CBF   D T1374       4.733  15.238  -2.312  1.00 19.48     0.151 C 
ENDROOT
BRANCH  31  32
HETATM   32  CBG   D T1374       3.389  15.954  -2.034  1.00 23.41     0.280 C 
BRANCH  32  33
HETATM   33  NBH   D T1374       3.187  17.190  -2.862  1.00 26.24     0.144 N 
HETATM   34  CBI   D T1374       3.060  18.360  -1.977  1.00 27.90     0.286 C 
HETATM   35  CBJ   D T1374       4.388  17.497  -3.683  1.00 27.31     0.286 C 
ENDBRANCH  32  33
ENDBRANCH  31  32
TORSDOF 2
ENDMDL
MODEL 2
REMARK VINA RESULT:     -10.9      0.940      1.148
REMARK  2 active torsions:
REMARK  status: ('A' for Active; 'I' for Inactive)
REMARK    1  A    between atoms: CBF_31  and  CBG_32 
REMARK    2  A    between atoms: CBG_32  and  NBH_33 
ROOT
HETATM    1  CBD   D T1374       5.604  13.584  -3.059  1.00 18.24     0.056 C 
HETATM    2  CBB   D T1374       4.232  13.094  -2.664  1.00 13.77     0.109 C 
HETATM    3  NAW   D T1374       3.892  13.065  -1.231  1.00 11.00    -0.326 N 
HETATM    4  CAV   D T1374       4.697  12.523  -0.249  1.00  9.70     0.076 A 
HETATM    5  CAX   D T1374       2.718  13.301  -0.683  1.00 10.89     0.060 A 
HETATM    6  CAY   D T1374       1.519  13.777  -1.249  1.00 13.31     0.017 A 
HETATM    7  CAZ   D T1374       0.396  13.967  -0.413  1.00 12.88     0.002 A 
HETATM    8  CAP   D T1374       0.435  13.722   0.962  1.00 12.85     0.000 A 
HETATM    9  CAO   D T1374       1.635  13.227   1.529  1.00 12.21     0.002 A 
HETATM   10  CAN   D T1374       2.777  13.009   0.688  1.00 11.16     0.017 A 
HETATM   11  CAM   D T1374       4.070  12.564   0.959  1.00 10.47     0.023 A 
HETATM   12  CAH   D T1374       4.664  11.978   2.138  1.00 11.61     0.064 A 
HETATM   13  CAE   D T1374       3.985  11.057   3.001  1.00 11.67     0.282 A 
HETATM   14  OAF   D T1374       2.788  10.704   2.944  1.00 12.38    -0.265 OA
HETATM   15  NAD   D T1374       4.826  10.577   3.959  1.00 11.58    -0.169 NA
HETATM   16  CAC   D T1374       6.009  11.112   3.741  1.00 11.36     0.282 A 
HETATM   17  OAB   D T1374       7.008  10.818   4.415  1.00 13.28    -0.265 OA
HETATM   18  CAG   D T1374       6.006  12.021   2.642  1.00 10.54     0.064 A 
HETATM   19  CAL   D T1374       7.095  12.751   2.063  1.00 12.92     0.023 A 
HETATM   20  CAU   D T1374       6.914  13.918   1.388  1.00 12.44     0.076 A 
HETATM   21  CAK   D T1374       8.478  12.458   1.956  1.00 12.61     0.017 A 
HETATM   22  CAJ   D T1374       9.305  11.392   2.432  1.00 13.95     0.002 A 
HETATM   23  CAI   D T1374      10.667  11.421   2.110  1.00 15.63     0.000 A 
HETATM   24  CAQ   D T1374      11.231  12.452   1.342  1.00 14.37     0.002 A 
HETATM   25  CAR   D T1374      10.420  13.486   0.870  1.00 13.26     0.017 A 
HETATM   26  CAS   D T1374       9.045  13.474   1.182  1.00 11.92     0.060 A 
HETATM   27  NAT   D T1374       8.082  14.341   0.862  1.00 12.89    -0.324 N 
HETATM   28  CBA   D T1374       8.162  15.566   0.018  1.00 13.69     0.138 C 
HETATM   29  CBC   D T1374       7.828  15.115  -1.412  1.00 16.12     0.167 C 
HETATM   30  OBE   D T1374       6.383  15.204  -1.461  1.00 16.41    -0.352 OA
HETATM   31  CBF   D T1374       5.792  15.073  -2.762  1.00 19.48     0.151 C 
ENDROOT
BRANCH  31  32
HETATM   32  CBG   D T1374       4.464  15.846  -2.579  1.00 23.41     0.280 C 
BRANCH  32  33
HETATM   33  NBH   D T1374       4.617  17.335  -2.701  1.00 26.24     0.144 N 
HETATM   34  CBI   D T1374       5.160  17.666  -4.029  1.00 27.90     0.286 C 
HETATM   35  CBJ   D T1374       3.298  18.021  -2.678  1.00 27.31     0.286 C 
ENDBRANCH  32  33
ENDBRANCH  31  32
TORSDOF 2
ENDMDL
MODEL 3
REMARK VINA RESULT:     -10.2      1.272      5.963
REMARK  2 active torsions:
REMARK  status: ('A' for Active; 'I' for Inactive)
REMARK    1  A    between atoms: CBF_31  and  CBG_32 
REMARK    2  A    between atoms: CBG_32  and  NBH_33 
ROOT
HETATM    1  CBD   D T1374       6.119  16.349  -0.394  1.00 18.24     0.056 C 
HETATM    2  CBB   D T1374       7.159  15.765   0.530  1.00 13.77     0.109 C 
HETATM    3  NAW   D T1374       7.029  14.349   0.913  1.00 11.00    -0.326 N 
HETATM    4  CAV   D T1374       5.862  13.769   1.373  1.00  9.70     0.076 A 
HETATM    5  CAX   D T1374       8.000  13.485   1.125  1.00 10.89     0.060 A 
HETATM    6  CAY   D T1374       9.389  13.595   0.917  1.00 13.31     0.017 A 
HETATM    7  CAZ   D T1374      10.215  12.486   1.210  1.00 12.88     0.002 A 
HETATM    8  CAP   D T1374       9.703  11.274   1.679  1.00 12.85     0.000 A 
HETATM    9  CAO   D T1374       8.309  11.167   1.905  1.00 12.21     0.002 A 
HETATM   10  CAN   D T1374       7.461  12.293   1.632  1.00 11.16     0.017 A 
HETATM   11  CAM   D T1374       6.082  12.474   1.732  1.00 10.47     0.023 A 
HETATM   12  CAH   D T1374       5.041  11.669   2.328  1.00 11.61     0.064 A 
HETATM   13  CAE   D T1374       5.202  10.929   3.545  1.00 11.67     0.282 A 
HETATM   14  OAF   D T1374       6.249  10.776   4.208  1.00 12.38    -0.265 OA
HETATM   15  NAD   D T1374       4.023  10.365   3.931  1.00 11.58    -0.169 NA
HETATM   16  CAC   D T1374       3.113  10.726   3.050  1.00 11.36     0.282 A 
HETATM   17  OAB   D T1374       1.917  10.419   3.165  1.00 13.28    -0.265 OA
HETATM   18  CAG   D T1374       3.654  11.520   1.996  1.00 10.54     0.064 A 
HETATM   19  CAL   D T1374       2.985  12.145   0.894  1.00 12.92     0.023 A 
HETATM   20  CAU   D T1374       3.618  12.433  -0.276  1.00 12.44     0.076 A 
HETATM   21  CAK   D T1374       1.673  12.663   0.755  1.00 12.61     0.017 A 
HETATM   22  CAJ   D T1374       0.525  12.696   1.609  1.00 13.95     0.002 A 
HETATM   23  CAI   D T1374      -0.631  13.327   1.136  1.00 15.63     0.000 A 
HETATM   24  CAQ   D T1374      -0.690  13.923  -0.135  1.00 14.37     0.002 A 
HETATM   25  CAR   D T1374       0.435  13.898  -0.963  1.00 13.26     0.017 A 
HETATM   26  CAS   D T1374       1.609  13.268  -0.503  1.00 11.92     0.060 A 
HETATM   27  NAT   D T1374       2.791  13.107  -1.102  1.00 12.89    -0.324 N 
HETATM   28  CBA   D T1374       3.247  13.603  -2.431  1.00 13.69     0.138 C 
HETATM   29  CBC   D T1374       3.894  14.972  -2.171  1.00 16.12     0.167 C 
HETATM   30  OBE   D T1374       5.267  14.635  -1.852  1.00 16.41    -0.352 OA
HETATM   31  CBF   D T1374       6.183  15.739  -1.795  1.00 19.48     0.151 C 
ENDROOT
BRANCH  31  32
HETATM   32  CBG   D T1374       7.528  15.040  -2.111  1.00 23.41     0.280 C 
BRANCH  32  33
HETATM   33  NBH   D T1374       8.037  15.320  -3.496  1.00 26.24     0.144 N 
HETATM   34  CBI   D T1374       7.526  14.298  -4.424  1.00 27.90     0.286 C 
HETATM   35  CBJ   D T1374       7.484  16.592  -4.032  1.00 27.31     0.286 C 
ENDBRANCH  32  33
ENDBRANCH  31  32
TORSDOF 2
ENDMDL
MODEL 4
REMARK VINA RESULT:     -10.1      1.926      6.320
REMARK  2 active torsions:
REMARK  status: ('A' for Active; 'I' for Inactive)
REMARK    1  A    between atoms: CBF_31  and  CBG_32 
REMARK    2  A    between atoms: CBG_32  and  NBH_33 
ROOT
HETATM    1  CBD   D T1374       7.595  13.621   1.968  1.00 18.24     0.056 C 
HETATM    2  CBB   D T1374       6.649  13.028   2.983  1.00 13.77     0.109 C 
HETATM    3  NAW   D T1374       5.354  12.513   2.507  1.00 11.00    -0.326 N 
HETATM    4  CAV   D T1374       4.499  13.206   1.672  1.00  9.70     0.076 A 
HETATM    5  CAX   D T1374       4.689  11.473   2.965  1.00 10.89     0.060 A 
HETATM    6  CAY   D T1374       5.057  10.487   3.903  1.00 13.31     0.017 A 
HETATM    7  CAZ   D T1374       4.146   9.449   4.197  1.00 12.88     0.002 A 
HETATM    8  CAP   D T1374       2.899   9.348   3.577  1.00 12.85     0.000 A 
HETATM    9  CAO   D T1374       2.520  10.347   2.647  1.00 12.21     0.002 A 
HETATM   10  CAN   D T1374       3.428  11.420   2.354  1.00 11.16     0.017 A 
HETATM   11  CAM   D T1374       3.344  12.508   1.487  1.00 10.47     0.023 A 
HETATM   12  CAH   D T1374       2.246  13.055   0.723  1.00 11.61     0.064 A 
HETATM   13  CAE   D T1374       0.895  13.114   1.198  1.00 11.67     0.282 A 
HETATM   14  OAF   D T1374       0.440  12.631   2.256  1.00 12.38    -0.265 OA
HETATM   15  NAD   D T1374       0.100  13.788   0.320  1.00 11.58    -0.169 NA
HETATM   16  CAC   D T1374       0.869  14.189  -0.671  1.00 11.36     0.282 A 
HETATM   17  OAB   D T1374       0.443  14.889  -1.602  1.00 13.28    -0.265 OA
HETATM   18  CAG   D T1374       2.221  13.759  -0.525  1.00 10.54     0.064 A 
HETATM   19  CAL   D T1374       3.357  14.038  -1.353  1.00 12.92     0.023 A 
HETATM   20  CAU   D T1374       4.434  13.209  -1.416  1.00 12.44     0.076 A 
HETATM   21  CAK   D T1374       3.687  15.154  -2.162  1.00 12.61     0.017 A 
HETATM   22  CAJ   D T1374       3.002  16.361  -2.512  1.00 13.95     0.002 A 
HETATM   23  CAI   D T1374       3.660  17.274  -3.344  1.00 15.63     0.000 A 
HETATM   24  CAQ   D T1374       4.955  17.039  -3.835  1.00 14.37     0.002 A 
HETATM   25  CAR   D T1374       5.624  15.864  -3.485  1.00 13.26     0.017 A 
HETATM   26  CAS   D T1374       4.979  14.933  -2.646  1.00 11.92     0.060 A 
HETATM   27  NAT   D T1374       5.399  13.753  -2.186  1.00 12.89    -0.324 N 
HETATM   28  CBA   D T1374       6.717  13.084  -2.378  1.00 13.69     0.138 C 
HETATM   29  CBC   D T1374       7.591  13.526  -1.194  1.00 16.12     0.167 C 
HETATM   30  OBE   D T1374       7.274  12.556  -0.166  1.00 16.41    -0.352 OA
HETATM   31  CBF   D T1374       8.125  12.570   0.990  1.00 19.48     0.151 C 
ENDROOT
BRANCH  31  32
HETATM   32  CBG   D T1374       7.982  11.116   1.498  1.00 23.41     0.280 C 
BRANCH  32  33
HETATM   33  NBH   D T1374       9.285  10.495   1.911  1.00 26.24     0.144 N 
HETATM   34  CBI   D T1374      10.401  11.280   1.357  1.00 27.90     0.286 C 
HETATM   35  CBJ   D T1374       9.488  10.582   3.381  1.00 27.31     0.286 C 
ENDBRANCH  32  33
ENDBRANCH  31  32
TORSDOF 2
ENDMDL
MODEL 5
REMARK VINA RESULT:      -9.6      2.346      6.458
REMARK  2 active torsions:
REMARK  status: ('A' for Active; 'I' for Inactive)
REMARK    1  A    between atoms: CBF_31  and  CBG_32 
REMARK    2  A    between atoms: CBG_32  and  NBH_33 
ROOT
HETATM    1  CBD   D T1374       7.390  16.717  -1.564  1.00 18.24     0.056 C 
HETATM    2  CBB   D T1374       8.609  16.548  -0.691  1.00 13.77     0.109 C 
HETATM    3  NAW   D T1374       8.838  15.234  -0.067  1.00 11.00    -0.326 N 
HETATM    4  CAV   D T1374       7.877  14.520   0.622  1.00  9.70     0.076 A 
HETATM    5  CAX   D T1374       9.995  14.648   0.164  1.00 10.89     0.060 A 
HETATM    6  CAY   D T1374      11.300  15.005  -0.229  1.00 13.31     0.017 A 
HETATM    7  CAZ   D T1374      12.378  14.170   0.138  1.00 12.88     0.002 A 
HETATM    8  CAP   D T1374      12.198  12.987   0.860  1.00 12.85     0.000 A 
HETATM    9  CAO   D T1374      10.889  12.636   1.271  1.00 12.21     0.002 A 
HETATM   10  CAN   D T1374       9.787  13.487   0.922  1.00 11.16     0.017 A 
HETATM   11  CAM   D T1374       8.416  13.390   1.160  1.00 10.47     0.023 A 
HETATM   12  CAH   D T1374       7.640  12.512   2.004  1.00 11.61     0.064 A 
HETATM   13  CAE   D T1374       8.067  12.064   3.298  1.00 11.67     0.282 A 
HETATM   14  OAF   D T1374       9.173  12.262   3.843  1.00 12.38    -0.265 OA
HETATM   15  NAD   D T1374       7.085  11.349   3.914  1.00 11.58    -0.169 NA
HETATM   16  CAC   D T1374       6.046  11.339   3.104  1.00 11.36     0.282 A 
HETATM   17  OAB   D T1374       4.965  10.815   3.415  1.00 13.28    -0.265 OA
HETATM   18  CAG   D T1374       6.301  12.016   1.876  1.00 10.54     0.064 A 
HETATM   19  CAL   D T1374       5.416  12.268   0.776  1.00 12.92     0.023 A 
HETATM   20  CAU   D T1374       5.867  12.457  -0.493  1.00 12.44     0.076 A 
HETATM   21  CAK   D T1374       4.014  12.465   0.717  1.00 12.61     0.017 A 
HETATM   22  CAJ   D T1374       2.965  12.416   1.689  1.00 13.95     0.002 A 
HETATM   23  CAI   D T1374       1.660  12.690   1.264  1.00 15.63     0.000 A 
HETATM   24  CAQ   D T1374       1.361  13.010  -0.070  1.00 14.37     0.002 A 
HETATM   25  CAR   D T1374       2.387  13.067  -1.015  1.00 13.26     0.017 A 
HETATM   26  CAS   D T1374       3.709  12.795  -0.606  1.00 11.92     0.060 A 
HETATM   27  NAT   D T1374       4.842  12.775  -1.311  1.00 12.89    -0.324 N 
HETATM   28  CBA   D T1374       5.059  13.097  -2.750  1.00 13.69     0.138 C 
HETATM   29  CBC   D T1374       5.397  14.594  -2.801  1.00 16.12     0.167 C 
HETATM   30  OBE   D T1374       6.832  14.619  -2.602  1.00 16.41    -0.352 OA
HETATM   31  CBF   D T1374       7.474  15.881  -2.842  1.00 19.48     0.151 C 
ENDROOT
BRANCH  31  32
HETATM   32  CBG   D T1374       8.911  15.433  -3.202  1.00 23.41     0.280 C 
BRANCH  32  33
HETATM   33  NBH   D T1374       9.063  15.000  -4.632  1.00 26.24     0.144 N 
HETATM   34  CBI   D T1374       8.395  15.973  -5.513  1.00 27.90     0.286 C 
HETATM   35  CBJ   D T1374      10.484  15.048  -5.067  1.00 27.31     0.286 C 
ENDBRANCH  32  33
ENDBRANCH  31  32
TORSDOF 2
ENDMDL
MODEL 6
REMARK VINA RESULT:      -9.1      2.231      8.304
REMARK  2 active torsions:
REMARK  status: ('A' for Active; 'I' for Inactive)
REMARK    1  A    between atoms: CBF_31  and  CBG_32 
REMARK    2  A    between atoms: CBG_32  and  NBH_33 
ROOT
HETATM    1  CBD   D T1374       8.535   9.652   2.277  1.00 18.24     0.056 C 
HETATM    2  CBB   D T1374       9.611  10.401   1.530  1.00 13.77     0.109 C 
HETATM    3  NAW   D T1374       9.372  11.817   1.204  1.00 11.00    -0.326 N 
HETATM    4  CAV   D T1374       8.215  12.299   0.624  1.00  9.70     0.076 A 
HETATM    5  CAX   D T1374      10.259  12.790   1.166  1.00 10.89     0.060 A 
HETATM    6  CAY   D T1374      11.614  12.813   1.550  1.00 13.31     0.017 A 
HETATM    7  CAZ   D T1374      12.340  14.019   1.426  1.00 12.88     0.002 A 
HETATM    8  CAP   D T1374      11.759  15.199   0.955  1.00 12.85     0.000 A 
HETATM    9  CAO   D T1374      10.401  15.172   0.552  1.00 12.21     0.002 A 
HETATM   10  CAN   D T1374       9.657  13.949   0.653  1.00 11.16     0.017 A 
HETATM   11  CAM   D T1374       8.331  13.631   0.363  1.00 10.47     0.023 A 
HETATM   12  CAH   D T1374       7.290  14.359  -0.324  1.00 11.61     0.064 A 
HETATM   13  CAE   D T1374       7.518  15.189  -1.471  1.00 11.67     0.282 A 
HETATM   14  OAF   D T1374       8.617  15.493  -1.981  1.00 12.38    -0.265 OA
HETATM   15  NAD   D T1374       6.342  15.650  -1.980  1.00 11.58    -0.169 NA
HETATM   16  CAC   D T1374       5.375  15.139  -1.247  1.00 11.36     0.282 A 
HETATM   17  OAB   D T1374       4.176  15.326  -1.503  1.00 13.28    -0.265 OA
HETATM   18  CAG   D T1374       5.865  14.340  -0.172  1.00 10.54     0.064 A 
HETATM   19  CAL   D T1374       5.136  13.579   0.799  1.00 12.92     0.023 A 
HETATM   20  CAU   D T1374       5.644  13.284   2.026  1.00 12.44     0.076 A 
HETATM   21  CAK   D T1374       3.883  12.918   0.736  1.00 12.61     0.017 A 
HETATM   22  CAJ   D T1374       2.863  12.820  -0.263  1.00 13.95     0.002 A 
HETATM   23  CAI   D T1374       1.735  12.042   0.021  1.00 15.63     0.000 A 
HETATM   24  CAQ   D T1374       1.584  11.363   1.241  1.00 14.37     0.002 A 
HETATM   25  CAR   D T1374       2.585  11.452   2.211  1.00 13.26     0.017 A 
HETATM   26  CAS   D T1374       3.730  12.230   1.943  1.00 11.92     0.060 A 
HETATM   27  NAT   D T1374       4.801  12.475   2.700  1.00 12.89    -0.324 N 
HETATM   28  CBA   D T1374       5.138  11.945   4.051  1.00 13.69     0.138 C 
HETATM   29  CBC   D T1374       5.963  10.671   3.811  1.00 16.12     0.167 C 
HETATM   30  OBE   D T1374       7.319  11.170   3.693  1.00 16.41    -0.352 OA
HETATM   31  CBF   D T1374       8.353  10.174   3.703  1.00 19.48     0.151 C 
ENDROOT
BRANCH  31  32
HETATM   32  CBG   D T1374       9.560  10.988   4.229  1.00 23.41     0.280 C 
BRANCH  32  33
HETATM   33  NBH   D T1374      10.413  10.230   5.205  1.00 26.24     0.144 N 
HETATM   34  CBI   D T1374       9.692   9.029   5.659  1.00 27.90     0.286 C 
HETATM   35  CBJ   D T1374      11.633   9.685   4.553  1.00 27.31     0.286 C 
ENDBRANCH  32  33
ENDBRANCH  31  32
TORSDOF 2
ENDMDL
MODEL 7
REMARK VINA RESULT:      -9.0      2.800      4.950
REMARK  2 active torsions:
REMARK  status: ('A' for Active; 'I' for Inactive)
REMARK    1  A    between atoms: CBF_31  and  CBG_32 
REMARK    2  A    between atoms: CBG_32  and  NBH_33 
ROOT
HETATM    1  CBD   D T1374       8.126  15.607  -4.751  1.00 18.24     0.056 C 
HETATM    2  CBB   D T1374       6.717  15.935  -5.182  1.00 13.77     0.109 C 
HETATM    3  NAW   D T1374       5.704  16.148  -4.135  1.00 11.00    -0.326 N 
HETATM    4  CAV   D T1374       5.499  15.301  -3.063  1.00  9.70     0.076 A 
HETATM    5  CAX   D T1374       4.693  16.992  -4.159  1.00 10.89     0.060 A 
HETATM    6  CAY   D T1374       4.367  18.008  -5.080  1.00 13.31     0.017 A 
HETATM    7  CAZ   D T1374       3.218  18.798  -4.849  1.00 12.88     0.002 A 
HETATM    8  CAP   D T1374       2.402  18.624  -3.728  1.00 12.85     0.000 A 
HETATM    9  CAO   D T1374       2.719  17.592  -2.811  1.00 12.21     0.002 A 
HETATM   10  CAN   D T1374       3.871  16.768  -3.045  1.00 11.16     0.017 A 
HETATM   11  CAM   D T1374       4.434  15.716  -2.323  1.00 10.47     0.023 A 
HETATM   12  CAH   D T1374       3.956  14.953  -1.194  1.00 11.61     0.064 A 
HETATM   13  CAE   D T1374       2.587  14.567  -1.014  1.00 11.67     0.282 A 
HETATM   14  OAF   D T1374       1.605  14.899  -1.711  1.00 12.38    -0.265 OA
HETATM   15  NAD   D T1374       2.449  13.753   0.070  1.00 11.58    -0.169 NA
HETATM   16  CAC   D T1374       3.652  13.570   0.574  1.00 11.36     0.282 A 
HETATM   17  OAB   D T1374       3.864  12.818   1.537  1.00 13.28    -0.265 OA
HETATM   18  CAG   D T1374       4.657  14.298  -0.129  1.00 10.54     0.064 A 
HETATM   19  CAL   D T1374       6.076  14.316   0.074  1.00 12.92     0.023 A 
HETATM   20  CAU   D T1374       6.851  15.373  -0.287  1.00 12.44     0.076 A 
HETATM   21  CAK   D T1374       6.974  13.331   0.556  1.00 12.61     0.017 A 
HETATM   22  CAJ   D T1374       6.808  12.008   1.077  1.00 13.95     0.002 A 
HETATM   23  CAI   D T1374       7.956  11.298   1.448  1.00 15.63     0.000 A 
HETATM   24  CAQ   D T1374       9.244  11.841   1.322  1.00 14.37     0.002 A 
HETATM   25  CAR   D T1374       9.404  13.128   0.804  1.00 13.26     0.017 A 
HETATM   26  CAS   D T1374       8.261  13.860   0.423  1.00 11.92     0.060 A 
HETATM   27  NAT   D T1374       8.154  15.091  -0.080  1.00 12.89    -0.324 N 
HETATM   28  CBA   D T1374       9.231  16.053  -0.448  1.00 13.69     0.138 C 
HETATM   29  CBC   D T1374       9.543  15.791  -1.929  1.00 16.12     0.167 C 
HETATM   30  OBE   D T1374       8.587  16.631  -2.624  1.00 16.41    -0.352 OA
HETATM   31  CBF   D T1374       8.798  16.780  -4.036  1.00 19.48     0.151 C 
ENDROOT
BRANCH  31  32
HETATM   32  CBG   D T1374       8.123  18.147  -4.306  1.00 23.41     0.280 C 
BRANCH  32  33
HETATM   33  NBH   D T1374       8.974  19.086  -5.111  1.00 26.24     0.144 N 
HETATM   34  CBI   D T1374      10.396  18.818  -4.837  1.00 27.90     0.286 C 
HETATM   35  CBJ   D T1374       8.840  18.826  -6.569  1.00 27.31     0.286 C 
ENDBRANCH  32  33
ENDBRANCH  31  32
TORSDOF 2
ENDMDL
