MODEL 1
REMARK VINA RESULT:    -8.706      0.000      0.000
REMARK INTER + INTRA:         -11.159
REMARK INTER:                 -10.233
REMARK INTRA:                  -0.926
REMARK UNBOUND:                -0.926
REMARK  3 active torsions:
REMARK  status: ('A' for Active; 'I' for Inactive)
REMARK    1  A    between atoms: C5_5  and  C8_8 
REMARK    2  A    between atoms: C8_8  and  C14_14 
REMARK    3  A    between atoms: C17_17  and  C20_20 
ROOT
HETATM    1  C8    D T1351       5.100  14.211  -1.447  1.00 28.40     0.042 C 
HETATM    2  C9    D T1351       5.275  15.727  -1.677  1.00 31.07     0.046 C 
HETATM    3  C10   D T1351       6.635  16.103  -2.244  1.00 30.89     0.291 C 
HETATM    4  N11   D T1351       6.852  15.372  -3.524  1.00 29.44     0.339 N 
HETATM    5  C12   D T1351       6.797  13.894  -3.325  1.00 30.13     0.291 C 
HETATM    6  C13   D T1351       5.434  13.515  -2.778  1.00 30.34     0.046 C 
ENDROOT
BRANCH   1   7
HETATM    7  C5    D T1351       5.943  13.691  -0.271  1.00 28.95    -0.019 A 
HETATM    8  C4    D T1351       5.989  14.390   0.934  1.00 28.71    -0.003 A 
HETATM    9  C3    D T1351       6.727  13.913   1.993  1.00 30.92     0.011 A 
HETATM   10  C2    D T1351       7.417  12.719   1.881  1.00 30.64     0.058 A 
HETATM   11 CL1    D T1351       8.344  12.126   3.222  1.00 40.18    -0.082 Cl
HETATM   12  C7    D T1351       7.375  12.012   0.689  1.00 32.16     0.011 A 
HETATM   13  C6    D T1351       6.639  12.489  -0.375  1.00 28.80    -0.003 A 
ENDBRANCH   1   7
BRANCH   1  14
HETATM   14  C14   D T1351       3.607  14.026  -1.119  1.00 30.67    -0.019 A 
HETATM   15  C15   D T1351       3.111  12.839  -0.587  1.00 28.60    -0.004 A 
HETATM   16  C16   D T1351       1.761  12.690  -0.346  1.00 33.11    -0.000 A 
HETATM   17  C17   D T1351       0.876  13.728  -0.614  1.00 31.57     0.003 A 
HETATM   18  C18   D T1351       1.367  14.900  -1.169  1.00 28.36    -0.000 A 
HETATM   19  C19   D T1351       2.714  15.048  -1.416  1.00 26.27    -0.004 A 
BRANCH  17  20
HETATM   20  C20   D T1351      -0.569  13.548  -0.432  1.00 34.09     0.042 A 
HETATM   21  C21   D T1351      -1.555  13.521  -1.428  1.00 35.67     0.124 A 
HETATM   22  N22   D T1351      -2.774  13.414  -0.899  1.00 33.11    -0.146 NA
HETATM   23  N23   D T1351      -2.578  13.421   0.444  1.00 34.31    -0.146 NA
HETATM   24  C24   D T1351      -1.270  13.516   0.748  1.00 32.13     0.124 A 
ENDBRANCH  17  20
ENDBRANCH   1  14
TORSDOF 3
ENDMDL
MODEL 2
REMARK VINA RESULT:    -8.376      3.813      7.173
REMARK INTER + INTRA:         -10.771
REMARK INTER:                 -10.255
REMARK INTRA:                  -0.516
REMARK UNBOUND:                -0.926
REMARK  3 active torsions:
REMARK  status: ('A' for Active; 'I' for Inactive)
REMARK    1  A    between atoms: C5_5  and  C8_8 
REMARK    2  A    between atoms: C8_8  and  C14_14 
REMARK    3  A    between atoms: C17_17  and  C20_20 
ROOT
HETATM    1  C8    D T1351       4.965  13.449  -0.663  1.00 28.40     0.042 C 
HETATM    2  C9    D T1351       5.299  12.596  -1.906  1.00 31.07     0.046 C 
HETATM    3  C10   D T1351       4.738  13.162  -3.200  1.00 30.89     0.291 C 
HETATM    4  N11   D T1351       5.248  14.549  -3.390  1.00 29.44     0.339 N 
HETATM    5  C12   D T1351       4.853  15.436  -2.258  1.00 30.13     0.291 C 
HETATM    6  C13   D T1351       5.429  14.884  -0.967  1.00 30.34     0.046 C 
ENDROOT
BRANCH   1   7
HETATM    7  C5    D T1351       3.480  13.369  -0.274  1.00 28.95    -0.019 A 
HETATM    8  C4    D T1351       2.926  12.170   0.173  1.00 28.71    -0.003 A 
HETATM    9  C3    D T1351       1.600  12.105   0.541  1.00 30.92     0.011 A 
HETATM   10  C2    D T1351       0.807  13.236   0.491  1.00 30.64     0.058 A 
HETATM   11 CL1    D T1351      -0.862  13.143   0.957  1.00 40.18    -0.082 Cl
HETATM   12  C7    D T1351       1.347  14.435   0.053  1.00 32.16     0.011 A 
HETATM   13  C6    D T1351       2.673  14.503  -0.319  1.00 28.80    -0.003 A 
ENDBRANCH   1   7
BRANCH   1  14
HETATM   14  C14   D T1351       5.817  12.852   0.472  1.00 30.67    -0.019 A 
HETATM   15  C15   D T1351       5.494  13.042   1.814  1.00 28.60    -0.004 A 
HETATM   16  C16   D T1351       6.304  12.532   2.807  1.00 33.11    -0.000 A 
HETATM   17  C17   D T1351       7.444  11.805   2.486  1.00 31.57     0.003 A 
HETATM   18  C18   D T1351       7.779  11.639   1.151  1.00 28.36    -0.000 A 
HETATM   19  C19   D T1351       6.976  12.153   0.157  1.00 26.27    -0.004 A 
BRANCH  17  20
HETATM   20  C20   D T1351       8.350  11.326   3.538  1.00 34.09     0.042 A 
HETATM   21  C21   D T1351       9.623  11.819   3.853  1.00 35.67     0.124 A 
HETATM   22  N22   D T1351      10.196  11.098   4.818  1.00 33.11    -0.146 NA
HETATM   23  N23   D T1351       9.309  10.107   5.091  1.00 34.31    -0.146 NA
HETATM   24  C24   D T1351       8.205  10.213   4.329  1.00 32.13     0.124 A 
ENDBRANCH  17  20
ENDBRANCH   1  14
TORSDOF 3
ENDMDL
MODEL 3
REMARK VINA RESULT:    -8.134      2.376      3.845
REMARK INTER + INTRA:         -10.487
REMARK INTER:                  -9.743
REMARK INTRA:                  -0.744
REMARK UNBOUND:                -0.926
REMARK  3 active torsions:
REMARK  status: ('A' for Active; 'I' for Inactive)
REMARK    1  A    between atoms: C5_5  and  C8_8 
REMARK    2  A    between atoms: C8_8  and  C14_14 
REMARK    3  A    between atoms: C17_17  and  C20_20 
ROOT
HETATM    1  C8    D T1351       5.053  13.673  -0.395  1.00 28.40     0.042 C 
HETATM    2  C9    D T1351       5.514  12.251  -0.781  1.00 31.07     0.046 C 
HETATM    3  C10   D T1351       7.004  12.020  -0.580  1.00 30.89     0.291 C 
HETATM    4  N11   D T1351       7.356  12.295   0.842  1.00 29.44     0.339 N 
HETATM    5  C12   D T1351       7.023  13.698   1.225  1.00 30.13     0.291 C 
HETATM    6  C13   D T1351       5.534  13.925   1.044  1.00 30.34     0.046 C 
ENDROOT
BRANCH   1   7
HETATM    7  C5    D T1351       5.543  14.741  -1.387  1.00 28.95    -0.019 A 
HETATM    8  C4    D T1351       5.767  14.420  -2.724  1.00 28.71    -0.003 A 
HETATM    9  C3    D T1351       6.186  15.383  -3.616  1.00 30.92     0.011 A 
HETATM   10  C2    D T1351       6.369  16.688  -3.197  1.00 30.64     0.058 A 
HETATM   11 CL1    D T1351       6.897  17.894  -4.328  1.00 40.18    -0.082 Cl
HETATM   12  C7    D T1351       6.146  17.020  -1.870  1.00 32.16     0.011 A 
HETATM   13  C6    D T1351       5.729  16.059  -0.974  1.00 28.80    -0.003 A 
ENDBRANCH   1   7
BRANCH   1  14
HETATM   14  C14   D T1351       3.515  13.618  -0.432  1.00 30.67    -0.019 A 
HETATM   15  C15   D T1351       2.762  14.531  -1.167  1.00 28.60    -0.004 A 
HETATM   16  C16   D T1351       1.385  14.482  -1.143  1.00 33.11    -0.000 A 
HETATM   17  C17   D T1351       0.724  13.510  -0.400  1.00 31.57     0.003 A 
HETATM   18  C18   D T1351       1.474  12.618   0.351  1.00 28.36    -0.000 A 
HETATM   19  C19   D T1351       2.850  12.669   0.334  1.00 26.27    -0.004 A 
BRANCH  17  20
HETATM   20  C20   D T1351      -0.741  13.501  -0.310  1.00 34.09     0.042 A 
HETATM   21  C21   D T1351      -1.658  13.553  -1.369  1.00 35.67     0.124 A 
HETATM   22  N22   D T1351      -2.913  13.602  -0.920  1.00 33.11    -0.146 NA
HETATM   23  N23   D T1351      -2.802  13.631   0.433  1.00 34.31    -0.146 NA
HETATM   24  C24   D T1351      -1.515  13.587   0.821  1.00 32.13     0.124 A 
ENDBRANCH  17  20
ENDBRANCH   1  14
TORSDOF 3
ENDMDL
MODEL 4
REMARK VINA RESULT:    -8.003      3.581      6.754
REMARK INTER + INTRA:         -10.333
REMARK INTER:                  -9.722
REMARK INTRA:                  -0.611
REMARK UNBOUND:                -0.926
REMARK  3 active torsions:
REMARK  status: ('A' for Active; 'I' for Inactive)
REMARK    1  A    between atoms: C5_5  and  C8_8 
REMARK    2  A    between atoms: C8_8  and  C14_14 
REMARK    3  A    between atoms: C17_17  and  C20_20 
ROOT
HETATM    1  C8    D T1351       5.148  14.584  -1.409  1.00 28.40     0.042 C 
HETATM    2  C9    D T1351       5.742  14.065  -2.736  1.00 31.07     0.046 C 
HETATM    3  C10   D T1351       5.294  14.857  -3.953  1.00 30.89     0.291 C 
HETATM    4  N11   D T1351       5.658  16.290  -3.767  1.00 29.44     0.339 N 
HETATM    5  C12   D T1351       5.014  16.862  -2.548  1.00 30.13     0.291 C 
HETATM    6  C13   D T1351       5.475  16.085  -1.329  1.00 30.34     0.046 C 
ENDROOT
BRANCH   1   7
HETATM    7  C5    D T1351       3.645  14.290  -1.280  1.00 28.95    -0.019 A 
HETATM    8  C4    D T1351       3.194  13.000  -1.005  1.00 28.71    -0.003 A 
HETATM    9  C3    D T1351       1.848  12.743  -0.870  1.00 30.92     0.011 A 
HETATM   10  C2    D T1351       0.927  13.768  -0.984  1.00 30.64     0.058 A 
HETATM   11 CL1    D T1351      -0.767  13.433  -0.811  1.00 40.18    -0.082 Cl
HETATM   12  C7    D T1351       1.364  15.056  -1.253  1.00 32.16     0.011 A 
HETATM   13  C6    D T1351       2.711  15.317  -1.392  1.00 28.80    -0.003 A 
ENDBRANCH   1   7
BRANCH   1  14
HETATM   14  C14   D T1351       5.908  13.823  -0.306  1.00 30.67    -0.019 A 
HETATM   15  C15   D T1351       6.749  12.752  -0.597  1.00 28.60    -0.004 A 
HETATM   16  C16   D T1351       7.380  12.063   0.417  1.00 33.11    -0.000 A 
HETATM   17  C17   D T1351       7.201  12.435   1.744  1.00 31.57     0.003 A 
HETATM   18  C18   D T1351       6.343  13.485   2.034  1.00 28.36    -0.000 A 
HETATM   19  C19   D T1351       5.706  14.171   1.023  1.00 26.27    -0.004 A 
BRANCH  17  20
HETATM   20  C20   D T1351       7.809  11.658   2.831  1.00 34.09     0.042 A 
HETATM   21  C21   D T1351       7.148  10.882   3.793  1.00 35.67     0.124 A 
HETATM   22  N22   D T1351       8.007  10.373   4.676  1.00 33.11    -0.146 NA
HETATM   23  N23   D T1351       9.220  10.863   4.312  1.00 34.31    -0.146 NA
HETATM   24  C24   D T1351       9.125  11.646   3.222  1.00 32.13     0.124 A 
ENDBRANCH  17  20
ENDBRANCH   1  14
TORSDOF 3
ENDMDL
MODEL 5
REMARK VINA RESULT:    -7.925      4.364      6.043
REMARK INTER + INTRA:         -10.241
REMARK INTER:                  -9.309
REMARK INTRA:                  -0.932
REMARK UNBOUND:                -0.926
REMARK  3 active torsions:
REMARK  status: ('A' for Active; 'I' for Inactive)
REMARK    1  A    between atoms: C5_5  and  C8_8 
REMARK    2  A    between atoms: C8_8  and  C14_14 
REMARK    3  A    between atoms: C17_17  and  C20_20 
ROOT
HETATM    1  C8    D T1351       5.622  15.466  -1.837  1.00 28.40     0.042 C 
HETATM    2  C9    D T1351       5.284  14.531  -3.018  1.00 31.07     0.046 C 
HETATM    3  C10   D T1351       5.512  15.167  -4.380  1.00 30.89     0.291 C 
HETATM    4  N11   D T1351       6.930  15.613  -4.482  1.00 29.44     0.339 N 
HETATM    5  C12   D T1351       7.269  16.603  -3.419  1.00 30.13     0.291 C 
HETATM    6  C13   D T1351       7.061  15.965  -2.058  1.00 30.34     0.046 C 
ENDROOT
BRANCH   1   7
HETATM    7  C5    D T1351       4.608  16.611  -1.682  1.00 28.95    -0.019 A 
HETATM    8  C4    D T1351       3.372  16.557  -2.323  1.00 28.71    -0.003 A 
HETATM    9  C3    D T1351       2.456  17.573  -2.166  1.00 30.92     0.011 A 
HETATM   10  C2    D T1351       2.745  18.652  -1.351  1.00 30.64     0.058 A 
HETATM   11 CL1    D T1351       1.583  19.927  -1.159  1.00 40.18    -0.082 Cl
HETATM   12  C7    D T1351       3.969  18.714  -0.704  1.00 32.16     0.011 A 
HETATM   13  C6    D T1351       4.890  17.700  -0.861  1.00 28.80    -0.003 A 
ENDBRANCH   1   7
BRANCH   1  14
HETATM   14  C14   D T1351       5.565  14.567  -0.588  1.00 30.67    -0.019 A 
HETATM   15  C15   D T1351       6.376  14.796   0.522  1.00 28.60    -0.004 A 
HETATM   16  C16   D T1351       6.332  13.946   1.606  1.00 33.11    -0.000 A 
HETATM   17  C17   D T1351       5.468  12.858   1.619  1.00 31.57     0.003 A 
HETATM   18  C18   D T1351       4.680  12.616   0.503  1.00 28.36    -0.000 A 
HETATM   19  C19   D T1351       4.727  13.460  -0.584  1.00 26.27    -0.004 A 
BRANCH  17  20
HETATM   20  C20   D T1351       5.473  11.907   2.738  1.00 34.09     0.042 A 
HETATM   21  C21   D T1351       6.584  11.267   3.304  1.00 35.67     0.124 A 
HETATM   22  N22   D T1351       6.214  10.410   4.256  1.00 33.11    -0.146 NA
HETATM   23  N23   D T1351       4.858  10.462   4.271  1.00 34.31    -0.146 NA
HETATM   24  C24   D T1351       4.391  11.338   3.362  1.00 32.13     0.124 A 
ENDBRANCH  17  20
ENDBRANCH   1  14
TORSDOF 3
ENDMDL
MODEL 6
REMARK VINA RESULT:    -7.583      3.789      7.210
REMARK INTER + INTRA:          -9.839
REMARK INTER:                  -9.241
REMARK INTRA:                  -0.598
REMARK UNBOUND:                -0.926
REMARK  3 active torsions:
REMARK  status: ('A' for Active; 'I' for Inactive)
REMARK    1  A    between atoms: C5_5  and  C8_8 
REMARK    2  A    between atoms: C8_8  and  C14_14 
REMARK    3  A    between atoms: C17_17  and  C20_20 
ROOT
HETATM    1  C8    D T1351       3.087  12.951   0.347  1.00 28.40     0.042 C 
HETATM    2  C9    D T1351       2.301  13.914   1.262  1.00 31.07     0.046 C 
HETATM    3  C10   D T1351       0.943  14.311   0.703  1.00 30.89     0.291 C 
HETATM    4  N11   D T1351       0.137  13.083   0.455  1.00 29.44     0.339 N 
HETATM    5  C12   D T1351       0.815  12.171  -0.512  1.00 30.13     0.291 C 
HETATM    6  C13   D T1351       2.161  11.757   0.052  1.00 30.34     0.046 C 
ENDROOT
BRANCH   1   7
HETATM    7  C5    D T1351       3.603  13.638  -0.928  1.00 28.95    -0.019 A 
HETATM    8  C4    D T1351       3.748  15.023  -0.980  1.00 28.71    -0.003 A 
HETATM    9  C3    D T1351       4.230  15.635  -2.116  1.00 30.92     0.011 A 
HETATM   10  C2    D T1351       4.598  14.878  -3.213  1.00 30.64     0.058 A 
HETATM   11 CL1    D T1351       5.205  15.659  -4.639  1.00 40.18    -0.082 Cl
HETATM   12  C7    D T1351       4.463  13.499  -3.171  1.00 32.16     0.011 A 
HETATM   13  C6    D T1351       3.977  12.883  -2.037  1.00 28.80    -0.003 A 
ENDBRANCH   1   7
BRANCH   1  14
HETATM   14  C14   D T1351       4.287  12.487   1.193  1.00 30.67    -0.019 A 
HETATM   15  C15   D T1351       4.141  12.076   2.515  1.00 28.60    -0.004 A 
HETATM   16  C16   D T1351       5.243  11.709   3.259  1.00 33.11    -0.000 A 
HETATM   17  C17   D T1351       6.514  11.728   2.697  1.00 31.57     0.003 A 
HETATM   18  C18   D T1351       6.661  12.162   1.389  1.00 28.36    -0.000 A 
HETATM   19  C19   D T1351       5.563  12.535   0.646  1.00 26.27    -0.004 A 
BRANCH  17  20
HETATM   20  C20   D T1351       7.697  11.412   3.507  1.00 34.09     0.042 A 
HETATM   21  C21   D T1351       8.921  12.096   3.526  1.00 35.67     0.124 A 
HETATM   22  N22   D T1351       9.800  11.490   4.325  1.00 33.11    -0.146 NA
HETATM   23  N23   D T1351       9.158  10.385   4.783  1.00 34.31    -0.146 NA
HETATM   24  C24   D T1351       7.906  10.308   4.297  1.00 32.13     0.124 A 
ENDBRANCH  17  20
ENDBRANCH   1  14
TORSDOF 3
ENDMDL
MODEL 7
REMARK VINA RESULT:    -7.271      2.173      6.090
REMARK INTER + INTRA:          -9.472
REMARK INTER:                  -9.309
REMARK INTRA:                  -0.163
REMARK UNBOUND:                -0.926
REMARK  3 active torsions:
REMARK  status: ('A' for Active; 'I' for Inactive)
REMARK    1  A    between atoms: C5_5  and  C8_8 
REMARK    2  A    between atoms: C8_8  and  C14_14 
REMARK    3  A    between atoms: C17_17  and  C20_20 
ROOT
HETATM    1  C8    D T1351       2.607  13.842  -0.378  1.00 28.40     0.042 C 
HETATM    2  C9    D T1351       1.712  12.788  -1.066  1.00 31.07     0.046 C 
HETATM    3  C10   D T1351       0.665  12.184  -0.143  1.00 30.89     0.291 C 
HETATM    4  N11   D T1351      -0.182  13.275   0.417  1.00 29.44     0.339 N 
HETATM    5  C12   D T1351       0.634  14.261   1.183  1.00 30.13     0.291 C 
HETATM    6  C13   D T1351       1.666  14.879   0.260  1.00 30.34     0.046 C 
ENDROOT
BRANCH   1   7
HETATM    7  C5    D T1351       3.584  13.218   0.631  1.00 28.95    -0.019 A 
HETATM    8  C4    D T1351       4.903  13.660   0.709  1.00 28.71    -0.003 A 
HETATM    9  C3    D T1351       5.772  13.115   1.628  1.00 30.92     0.011 A 
HETATM   10  C2    D T1351       5.338  12.134   2.501  1.00 30.64     0.058 A 
HETATM   11 CL1    D T1351       6.441  11.454   3.656  1.00 40.18    -0.082 Cl
HETATM   12  C7    D T1351       4.027  11.689   2.436  1.00 32.16     0.011 A 
HETATM   13  C6    D T1351       3.155  12.231   1.515  1.00 28.80    -0.003 A 
ENDBRANCH   1   7
BRANCH   1  14
HETATM   14  C14   D T1351       3.408  14.492  -1.521  1.00 30.67    -0.019 A 
HETATM   15  C15   D T1351       3.402  15.869  -1.733  1.00 28.60    -0.004 A 
HETATM   16  C16   D T1351       4.095  16.416  -2.793  1.00 33.11    -0.000 A 
HETATM   17  C17   D T1351       4.822  15.606  -3.656  1.00 31.57     0.003 A 
HETATM   18  C18   D T1351       4.806  14.233  -3.460  1.00 28.36    -0.000 A 
HETATM   19  C19   D T1351       4.110  13.684  -2.406  1.00 26.27    -0.004 A 
BRANCH  17  20
HETATM   20  C20   D T1351       5.497  16.174  -4.830  1.00 34.09     0.042 A 
HETATM   21  C21   D T1351       5.282  17.433  -5.407  1.00 35.67     0.124 A 
HETATM   22  N22   D T1351       6.016  17.592  -6.508  1.00 33.11    -0.146 NA
HETATM   23  N23   D T1351       6.670  16.413  -6.669  1.00 34.31    -0.146 NA
HETATM   24  C24   D T1351       6.365  15.545  -5.688  1.00 32.13     0.124 A 
ENDBRANCH  17  20
ENDBRANCH   1  14
TORSDOF 3
ENDMDL
MODEL 8
REMARK VINA RESULT:    -7.166      4.023      6.732
REMARK INTER + INTRA:          -9.349
REMARK INTER:                  -8.366
REMARK INTRA:                  -0.982
REMARK UNBOUND:                -0.926
REMARK  3 active torsions:
REMARK  status: ('A' for Active; 'I' for Inactive)
REMARK    1  A    between atoms: C5_5  and  C8_8 
REMARK    2  A    between atoms: C8_8  and  C14_14 
REMARK    3  A    between atoms: C17_17  and  C20_20 
ROOT
HETATM    1  C8    D T1351       6.024  15.007  -1.457  1.00 28.40     0.042 C 
HETATM    2  C9    D T1351       5.681  16.370  -0.819  1.00 31.07     0.046 C 
HETATM    3  C10   D T1351       4.922  17.302  -1.750  1.00 30.89     0.291 C 
HETATM    4  N11   D T1351       3.672  16.631  -2.204  1.00 29.44     0.339 N 
HETATM    5  C12   D T1351       3.967  15.357  -2.923  1.00 30.13     0.291 C 
HETATM    6  C13   D T1351       4.707  14.417  -1.990  1.00 30.34     0.046 C 
ENDROOT
BRANCH   1   7
HETATM    7  C5    D T1351       7.112  15.118  -2.538  1.00 28.95    -0.019 A 
HETATM    8  C4    D T1351       8.229  15.928  -2.341  1.00 28.71    -0.003 A 
HETATM    9  C3    D T1351       9.213  16.011  -3.301  1.00 30.92     0.011 A 
HETATM   10  C2    D T1351       9.113  15.272  -4.466  1.00 30.64     0.058 A 
HETATM   11 CL1    D T1351      10.359  15.383  -5.670  1.00 40.18    -0.082 Cl
HETATM   12  C7    D T1351       8.009  14.460  -4.671  1.00 32.16     0.011 A 
HETATM   13  C6    D T1351       7.021  14.377  -3.713  1.00 28.80    -0.003 A 
ENDBRANCH   1   7
BRANCH   1  14
HETATM   14  C14   D T1351       6.553  14.144  -0.296  1.00 30.67    -0.019 A 
HETATM   15  C15   D T1351       6.983  12.834  -0.488  1.00 28.60    -0.004 A 
HETATM   16  C16   D T1351       7.409  12.073   0.580  1.00 33.11    -0.000 A 
HETATM   17  C17   D T1351       7.432  12.606   1.864  1.00 31.57     0.003 A 
HETATM   18  C18   D T1351       6.979  13.902   2.058  1.00 28.36    -0.000 A 
HETATM   19  C19   D T1351       6.547  14.662   0.993  1.00 26.27    -0.004 A 
BRANCH  17  20
HETATM   20  C20   D T1351       7.811  11.777   3.014  1.00 34.09     0.042 A 
HETATM   21  C21   D T1351       9.088  11.630   3.571  1.00 35.67     0.124 A 
HETATM   22  N22   D T1351       9.083  10.739   4.563  1.00 33.11    -0.146 NA
HETATM   23  N23   D T1351       7.808  10.274   4.614  1.00 34.31    -0.146 NA
HETATM   24  C24   D T1351       7.033  10.868   3.688  1.00 32.13     0.124 A 
ENDBRANCH  17  20
ENDBRANCH   1  14
TORSDOF 3
ENDMDL
MODEL 9
REMARK VINA RESULT:    -7.082      3.871      7.065
REMARK INTER + INTRA:          -9.250
REMARK INTER:                  -8.580
REMARK INTRA:                  -0.670
REMARK UNBOUND:                -0.926
REMARK  3 active torsions:
REMARK  status: ('A' for Active; 'I' for Inactive)
REMARK    1  A    between atoms: C5_5  and  C8_8 
REMARK    2  A    between atoms: C8_8  and  C14_14 
REMARK    3  A    between atoms: C17_17  and  C20_20 
ROOT
HETATM    1  C8    D T1351       6.132  13.896  -0.684  1.00 28.40     0.042 C 
HETATM    2  C9    D T1351       6.611  14.927   0.360  1.00 31.07     0.046 C 
HETATM    3  C10   D T1351       6.562  14.412   1.790  1.00 30.89     0.291 C 
HETATM    4  N11   D T1351       7.383  13.173   1.893  1.00 29.44     0.339 N 
HETATM    5  C12   D T1351       6.884  12.109   0.973  1.00 30.13     0.291 C 
HETATM    6  C13   D T1351       6.952  12.614  -0.456  1.00 30.34     0.046 C 
ENDROOT
BRANCH   1   7
HETATM    7  C5    D T1351       4.615  13.657  -0.624  1.00 28.95    -0.019 A 
HETATM    8  C4    D T1351       3.724  14.634  -1.065  1.00 28.71    -0.003 A 
HETATM    9  C3    D T1351       2.365  14.410  -1.031  1.00 30.92     0.011 A 
HETATM   10  C2    D T1351       1.870  13.201  -0.577  1.00 30.64     0.058 A 
HETATM   11 CL1    D T1351       0.156  12.929  -0.538  1.00 40.18    -0.082 Cl
HETATM   12  C7    D T1351       2.746  12.221  -0.140  1.00 32.16     0.011 A 
HETATM   13  C6    D T1351       4.107  12.442  -0.170  1.00 28.80    -0.003 A 
ENDBRANCH   1   7
BRANCH   1  14
HETATM   14  C14   D T1351       6.493  14.513  -2.049  1.00 30.67    -0.019 A 
HETATM   15  C15   D T1351       6.782  15.868  -2.191  1.00 28.60    -0.004 A 
HETATM   16  C16   D T1351       7.058  16.398  -3.433  1.00 33.11    -0.000 A 
HETATM   17  C17   D T1351       7.069  15.586  -4.562  1.00 31.57     0.003 A 
HETATM   18  C18   D T1351       6.756  14.243  -4.423  1.00 28.36    -0.000 A 
HETATM   19  C19   D T1351       6.473  13.713  -3.183  1.00 26.27    -0.004 A 
BRANCH  17  20
HETATM   20  C20   D T1351       7.286  16.159  -5.896  1.00 34.09     0.042 A 
HETATM   21  C21   D T1351       8.387  15.955  -6.739  1.00 35.67     0.124 A 
HETATM   22  N22   D T1351       8.290  16.691  -7.847  1.00 33.11    -0.146 NA
HETATM   23  N23   D T1351       7.146  17.407  -7.696  1.00 34.31    -0.146 NA
HETATM   24  C24   D T1351       6.537  17.118  -6.531  1.00 32.13     0.124 A 
ENDBRANCH  17  20
ENDBRANCH   1  14
TORSDOF 3
ENDMDL
