MODEL 1
REMARK VINA RESULT:      -7.0      0.000      0.000
REMARK  2 active torsions:
REMARK  status: ('A' for Active; 'I' for Inactive)
REMARK    1  A    between atoms: C5_4  and  O7_13 
REMARK    2  A    between atoms: C8_10  and  O7_13 
ROOT
HETATM    1  O7    D T 600      -0.477   4.353  -7.319  1.00 18.03    -0.309 OA
ENDROOT
BRANCH   1   2
HETATM    2  C5    D T 600       0.924   4.331  -7.435  1.00 18.33     0.099 A 
HETATM    3  C6    D T 600       1.734   3.115  -7.198  1.00 17.53     0.132 A 
HETATM    4  C1    D T 600       3.189   3.142  -7.324  1.00 16.53     0.089 A 
HETATM    5  O17   D T 600       1.133   1.923  -6.850  1.00 20.49    -0.193 OA
HETATM    6  C2    D T 600       3.824   4.392  -7.685  1.00 14.58     0.020 A 
HETATM    7  C3    D T 600       3.032   5.595  -7.919  1.00 14.14     0.041 A 
HETATM    8 CL14   D T 600       5.477   4.498  -7.853  1.00  1.00    -0.091 Cl
HETATM    9  C4    D T 600       1.583   5.561  -7.794  1.00 16.13     0.059 A 
ENDBRANCH   1   2
BRANCH   1  10
HETATM   10  C8    D T 600      -1.265   5.535  -7.577  1.00 16.10     0.106 A 
HETATM   11  C9    D T 600      -1.661   6.367  -6.328  1.00 14.15     0.063 A 
HETATM   12  C10   D T 600      -2.467   7.564  -6.495  1.00 14.71     0.078 A 
HETATM   13 CL16   D T 600      -1.191   5.907  -4.791  1.00  1.00    -0.085 Cl
HETATM   14  C11   D T 600      -2.875   7.934  -7.905  1.00 14.35     0.041 A 
HETATM   15  C12   D T 600      -2.474   7.138  -8.992  1.00 18.52     0.009 A 
HETATM   16 CL15   D T 600      -3.819   9.318  -8.075  1.00  1.63    -0.087 Cl
HETATM   17  C13   D T 600      -1.724   6.009  -8.903  1.00 15.99     0.026 A 
ENDBRANCH   1  10
TORSDOF 2
ENDMDL
MODEL 2
REMARK VINA RESULT:      -7.0      1.268      1.772
REMARK  2 active torsions:
REMARK  status: ('A' for Active; 'I' for Inactive)
REMARK    1  A    between atoms: C5_4  and  O7_13 
REMARK    2  A    between atoms: C8_10  and  O7_13 
ROOT
HETATM    1  O7    D T 600      -0.389   4.372  -6.876  1.00 18.03    -0.309 OA
ENDROOT
BRANCH   1   2
HETATM    2  C5    D T 600       0.994   4.343  -7.122  1.00 18.33     0.099 A 
HETATM    3  C6    D T 600       1.787   3.093  -7.124  1.00 17.53     0.132 A 
HETATM    4  C1    D T 600       3.226   3.114  -7.379  1.00 16.53     0.089 A 
HETATM    5  O17   D T 600       1.187   1.875  -6.883  1.00 20.49    -0.193 OA
HETATM    6  C2    D T 600       3.861   4.390  -7.631  1.00 14.58     0.020 A 
HETATM    7  C3    D T 600       3.085   5.627  -7.630  1.00 14.14     0.041 A 
HETATM    8 CL14   D T 600       5.494   4.492  -7.936  1.00  1.00    -0.091 Cl
HETATM    9  C4    D T 600       1.652   5.599  -7.377  1.00 16.13     0.059 A 
ENDBRANCH   1   2
BRANCH   1  10
HETATM   10  C8    D T 600      -1.189   5.563  -7.040  1.00 16.10     0.106 A 
HETATM   11  C9    D T 600      -1.752   5.806  -8.466  1.00 14.15     0.063 A 
HETATM   12  C10   D T 600      -2.555   6.988  -8.723  1.00 14.71     0.078 A 
HETATM   13 CL16   D T 600      -1.442   4.741  -9.717  1.00  1.00    -0.085 Cl
HETATM   14  C11   D T 600      -2.800   7.927  -7.561  1.00 14.35     0.041 A 
HETATM   15  C12   D T 600      -2.265   7.640  -6.293  1.00 18.52     0.009 A 
HETATM   16 CL15   D T 600      -3.722   9.298  -7.885  1.00  1.63    -0.087 Cl
HETATM   17  C13   D T 600      -1.507   6.556  -5.988  1.00 15.99     0.026 A 
ENDBRANCH   1  10
TORSDOF 2
ENDMDL
MODEL 3
REMARK VINA RESULT:      -6.8      1.298      1.332
REMARK  2 active torsions:
REMARK  status: ('A' for Active; 'I' for Inactive)
REMARK    1  A    between atoms: C5_4  and  O7_13 
REMARK    2  A    between atoms: C8_10  and  O7_13 
ROOT
HETATM    1  O7    D T 600      -0.311   4.664  -7.065  1.00 18.03    -0.309 OA
ENDROOT
BRANCH   1   2
HETATM    2  C5    D T 600       1.039   4.863  -6.730  1.00 18.33     0.099 A 
HETATM    3  C6    D T 600       2.063   3.799  -6.844  1.00 17.53     0.132 A 
HETATM    4  C1    D T 600       3.455   4.052  -6.477  1.00 16.53     0.089 A 
HETATM    5  O17   D T 600       1.727   2.540  -7.296  1.00 20.49    -0.193 OA
HETATM    6  C2    D T 600       3.812   5.371  -5.999  1.00 14.58     0.020 A 
HETATM    7  C3    D T 600       2.807   6.424  -5.885  1.00 14.14     0.041 A 
HETATM    8 CL14   D T 600       5.378   5.734  -5.570  1.00  1.00    -0.091 Cl
HETATM    9  C4    D T 600       1.423   6.167  -6.252  1.00 16.13     0.059 A 
ENDBRANCH   1   2
BRANCH   1  10
HETATM   10  C8    D T 600      -1.100   5.655  -7.758  1.00 16.10     0.106 A 
HETATM   11  C9    D T 600      -1.912   6.622  -6.854  1.00 14.15     0.063 A 
HETATM   12  C10   D T 600      -2.745   7.641  -7.469  1.00 14.71     0.078 A 
HETATM   13 CL16   D T 600      -1.859   6.507  -5.188  1.00  1.00    -0.085 Cl
HETATM   14  C11   D T 600      -2.766   7.700  -8.982  1.00 14.35     0.041 A 
HETATM   15  C12   D T 600      -2.000   6.797  -9.738  1.00 18.52     0.009 A 
HETATM   16 CL15   D T 600      -3.749   8.880  -9.673  1.00  1.63    -0.087 Cl
HETATM   17  C13   D T 600      -1.205   5.822  -9.226  1.00 15.99     0.026 A 
ENDBRANCH   1  10
TORSDOF 2
ENDMDL
MODEL 4
REMARK VINA RESULT:      -6.6      1.542      6.203
REMARK  2 active torsions:
REMARK  status: ('A' for Active; 'I' for Inactive)
REMARK    1  A    between atoms: C5_4  and  O7_13 
REMARK    2  A    between atoms: C8_10  and  O7_13 
ROOT
HETATM    1  O7    D T 600      -0.162   4.697  -6.549  1.00 18.03    -0.309 OA
ENDROOT
BRANCH   1   2
HETATM    2  C5    D T 600      -1.036   5.733  -6.920  1.00 18.33     0.099 A 
HETATM    3  C6    D T 600      -1.583   5.875  -8.288  1.00 17.53     0.132 A 
HETATM    4  C1    D T 600      -2.484   6.974  -8.628  1.00 16.53     0.089 A 
HETATM    5  O17   D T 600      -1.253   4.974  -9.278  1.00 20.49    -0.193 OA
HETATM    6  C2    D T 600      -2.831   7.924  -7.593  1.00 14.58     0.020 A 
HETATM    7  C3    D T 600      -2.295   7.790  -6.242  1.00 14.14     0.041 A 
HETATM    8 CL14   D T 600      -3.857   9.197  -7.904  1.00  1.00    -0.091 Cl
HETATM    9  C4    D T 600      -1.399   6.693  -5.909  1.00 16.13     0.059 A 
ENDBRANCH   1   2
BRANCH   1  10
HETATM   10  C8    D T 600       1.244   4.703  -6.881  1.00 16.10     0.106 A 
HETATM   11  C9    D T 600       1.875   3.313  -7.167  1.00 14.15     0.063 A 
HETATM   12  C10   D T 600       3.287   3.226  -7.495  1.00 14.71     0.078 A 
HETATM   13 CL16   D T 600       0.965   1.913  -7.094  1.00  1.00    -0.085 Cl
HETATM   14  C11   D T 600       4.070   4.521  -7.541  1.00 14.35     0.041 A 
HETATM   15  C12   D T 600       3.432   5.746  -7.277  1.00 18.52     0.009 A 
HETATM   16 CL15   D T 600       5.708   4.395  -7.909  1.00  1.63    -0.087 Cl
HETATM   17  C13   D T 600       2.119   5.895  -6.964  1.00 15.99     0.026 A 
ENDBRANCH   1  10
TORSDOF 2
ENDMDL
MODEL 5
REMARK VINA RESULT:      -6.3      1.692      6.269
REMARK  2 active torsions:
REMARK  status: ('A' for Active; 'I' for Inactive)
REMARK    1  A    between atoms: C5_4  and  O7_13 
REMARK    2  A    between atoms: C8_10  and  O7_13 
ROOT
HETATM    1  O7    D T 600      -0.220   4.991  -6.776  1.00 18.03    -0.309 OA
ENDROOT
BRANCH   1   2
HETATM    2  C5    D T 600      -1.121   5.761  -7.532  1.00 18.33     0.099 A 
HETATM    3  C6    D T 600      -1.764   6.989  -7.014  1.00 17.53     0.132 A 
HETATM    4  C1    D T 600      -2.700   7.754  -7.836  1.00 16.53     0.089 A 
HETATM    5  O17   D T 600      -1.498   7.443  -5.739  1.00 20.49    -0.193 OA
HETATM    6  C2    D T 600      -2.985   7.280  -9.174  1.00 14.58     0.020 A 
HETATM    7  C3    D T 600      -2.354   6.070  -9.691  1.00 14.14     0.041 A 
HETATM    8 CL14   D T 600      -4.035   8.102 -10.170  1.00  1.00    -0.091 Cl
HETATM    9  C4    D T 600      -1.422   5.314  -8.868  1.00 16.13     0.059 A 
ENDBRANCH   1   2
BRANCH   1  10
HETATM   10  C8    D T 600       1.196   4.944  -7.056  1.00 16.10     0.106 A 
HETATM   11  C9    D T 600       1.803   3.525  -7.220  1.00 14.15     0.063 A 
HETATM   12  C10   D T 600       3.224   3.385  -7.489  1.00 14.71     0.078 A 
HETATM   13 CL16   D T 600       0.859   2.153  -7.082  1.00  1.00    -0.085 Cl
HETATM   14  C11   D T 600       4.038   4.657  -7.596  1.00 14.35     0.041 A 
HETATM   15  C12   D T 600       3.420   5.910  -7.443  1.00 18.52     0.009 A 
HETATM   16 CL15   D T 600       5.685   4.471  -7.894  1.00  1.63    -0.087 Cl
HETATM   17  C13   D T 600       2.101   6.109  -7.189  1.00 15.99     0.026 A 
ENDBRANCH   1  10
TORSDOF 2
ENDMDL
MODEL 6
REMARK VINA RESULT:      -6.3      2.129      6.390
REMARK  2 active torsions:
REMARK  status: ('A' for Active; 'I' for Inactive)
REMARK    1  A    between atoms: C5_4  and  O7_13 
REMARK    2  A    between atoms: C8_10  and  O7_13 
ROOT
HETATM    1  O7    D T 600       0.588   5.539  -8.122  1.00 18.03    -0.309 OA
ENDROOT
BRANCH   1   2
HETATM    2  C5    D T 600      -0.466   6.468  -8.080  1.00 18.33     0.099 A 
HETATM    3  C6    D T 600      -0.665   7.508  -9.114  1.00 17.53     0.132 A 
HETATM    4  C1    D T 600      -1.773   8.458  -9.024  1.00 16.53     0.089 A 
HETATM    5  O17   D T 600       0.192   7.610 -10.190  1.00 20.49    -0.193 OA
HETATM    6  C2    D T 600      -2.674   8.358  -7.895  1.00 14.58     0.020 A 
HETATM    7  C3    D T 600      -2.482   7.335  -6.872  1.00 14.14     0.041 A 
HETATM    8 CL14   D T 600      -3.961   9.399  -7.729  1.00  1.00    -0.091 Cl
HETATM    9  C4    D T 600      -1.379   6.391  -6.968  1.00 16.13     0.059 A 
ENDBRANCH   1   2
BRANCH   1  10
HETATM   10  C8    D T 600       1.814   5.713  -7.379  1.00 16.10     0.106 A 
HETATM   11  C9    D T 600       2.472   4.409  -6.851  1.00 14.15     0.063 A 
HETATM   12  C10   D T 600       3.700   4.493  -6.080  1.00 14.71     0.078 A 
HETATM   13 CL16   D T 600       1.789   2.911  -7.140  1.00  1.00    -0.085 Cl
HETATM   14  C11   D T 600       4.275   5.873  -5.838  1.00 14.35     0.041 A 
HETATM   15  C12   D T 600       3.630   7.010  -6.353  1.00 18.52     0.009 A 
HETATM   16 CL15   D T 600       5.692   5.947  -4.931  1.00  1.63    -0.087 Cl
HETATM   17  C13   D T 600       2.481   7.000  -7.077  1.00 15.99     0.026 A 
ENDBRANCH   1  10
TORSDOF 2
ENDMDL
MODEL 7
REMARK VINA RESULT:      -6.0      3.193      5.872
REMARK  2 active torsions:
REMARK  status: ('A' for Active; 'I' for Inactive)
REMARK    1  A    between atoms: C5_4  and  O7_13 
REMARK    2  A    between atoms: C8_10  and  O7_13 
ROOT
HETATM    1  O7    D T 600       0.344   7.090  -8.705  1.00 18.03    -0.309 OA
ENDROOT
BRANCH   1   2
HETATM    2  C5    D T 600       0.091   8.198  -7.879  1.00 18.33     0.099 A 
HETATM    3  C6    D T 600       1.161   8.937  -7.171  1.00 17.53     0.132 A 
HETATM    4  C1    D T 600       0.848  10.080  -6.316  1.00 16.53     0.089 A 
HETATM    5  O17   D T 600       2.482   8.562  -7.298  1.00 20.49    -0.193 OA
HETATM    6  C2    D T 600      -0.537  10.476  -6.177  1.00 14.58     0.020 A 
HETATM    7  C3    D T 600      -1.597   9.752  -6.872  1.00 14.14     0.041 A 
HETATM    8 CL14   D T 600      -0.969  11.772  -5.227  1.00  1.00    -0.091 Cl
HETATM    9  C4    D T 600      -1.279   8.615  -7.723  1.00 16.13     0.059 A 
ENDBRANCH   1   2
BRANCH   1  10
HETATM   10  C8    D T 600       0.322   5.730  -8.219  1.00 16.10     0.106 A 
HETATM   11  C9    D T 600      -0.944   4.907  -8.578  1.00 14.15     0.063 A 
HETATM   12  C10   D T 600      -1.056   3.534  -8.116  1.00 14.71     0.078 A 
HETATM   13 CL16   D T 600      -2.189   5.570  -9.474  1.00  1.00    -0.085 Cl
HETATM   14  C11   D T 600       0.094   2.981  -7.300  1.00 14.35     0.041 A 
HETATM   15  C12   D T 600       1.214   3.782  -7.019  1.00 18.52     0.009 A 
HETATM   16 CL15   D T 600      -0.063   1.393  -6.764  1.00  1.63    -0.087 Cl
HETATM   17  C13   D T 600       1.378   5.069  -7.418  1.00 15.99     0.026 A 
ENDBRANCH   1  10
TORSDOF 2
ENDMDL
MODEL 8
REMARK VINA RESULT:      -6.0      3.207      4.195
REMARK  2 active torsions:
REMARK  status: ('A' for Active; 'I' for Inactive)
REMARK    1  A    between atoms: C5_4  and  O7_13 
REMARK    2  A    between atoms: C8_10  and  O7_13 
ROOT
HETATM    1  O7    D T 600      -0.409   6.918  -8.882  1.00 18.03    -0.309 OA
ENDROOT
BRANCH   1   2
HETATM    2  C5    D T 600      -0.542   5.601  -8.412  1.00 18.33     0.099 A 
HETATM    3  C6    D T 600      -1.217   4.533  -9.184  1.00 17.53     0.132 A 
HETATM    4  C1    D T 600      -1.337   3.178  -8.650  1.00 16.53     0.089 A 
HETATM    5  O17   D T 600      -1.754   4.793 -10.428  1.00 20.49    -0.193 OA
HETATM    6  C2    D T 600      -0.779   2.902  -7.344  1.00 14.58     0.020 A 
HETATM    7  C3    D T 600      -0.111   3.950  -6.577  1.00 14.14     0.041 A 
HETATM    8 CL14   D T 600      -0.871   1.381  -6.674  1.00  1.00    -0.091 Cl
HETATM    9  C4    D T 600       0.006   5.297  -7.114  1.00 16.13     0.059 A 
ENDBRANCH   1   2
BRANCH   1  10
HETATM   10  C8    D T 600      -0.142   8.038  -8.009  1.00 16.10     0.106 A 
HETATM   11  C9    D T 600      -1.382   8.658  -7.311  1.00 14.15     0.063 A 
HETATM   12  C10   D T 600      -1.206   9.797  -6.427  1.00 14.71     0.078 A 
HETATM   13 CL16   D T 600      -2.918   8.050  -7.564  1.00  1.00    -0.085 Cl
HETATM   14  C11   D T 600       0.203  10.316  -6.236  1.00 14.35     0.041 A 
HETATM   15  C12   D T 600       1.281   9.701  -6.896  1.00 18.52     0.009 A 
HETATM   16 CL15   D T 600       0.382  11.645  -5.218  1.00  1.63    -0.087 Cl
HETATM   17  C13   D T 600       1.184   8.637  -7.734  1.00 15.99     0.026 A 
ENDBRANCH   1  10
TORSDOF 2
ENDMDL
MODEL 9
REMARK VINA RESULT:      -5.9      3.032      3.953
REMARK  2 active torsions:
REMARK  status: ('A' for Active; 'I' for Inactive)
REMARK    1  A    between atoms: C5_4  and  O7_13 
REMARK    2  A    between atoms: C8_10  and  O7_13 
ROOT
HETATM    1  O7    D T 600       0.532   6.929  -8.629  1.00 18.03    -0.309 OA
ENDROOT
BRANCH   1   2
HETATM    2  C5    D T 600       0.304   5.599  -8.236  1.00 18.33     0.099 A 
HETATM    3  C6    D T 600      -0.913   4.845  -8.612  1.00 17.53     0.132 A 
HETATM    4  C1    D T 600      -1.110   3.465  -8.174  1.00 16.53     0.089 A 
HETATM    5  O17   D T 600      -1.896   5.429  -9.383  1.00 20.49    -0.193 OA
HETATM    6  C2    D T 600      -0.082   2.849  -7.361  1.00 14.58     0.020 A 
HETATM    7  C3    D T 600       1.121   3.586  -6.987  1.00 14.14     0.041 A 
HETATM    8 CL14   D T 600      -0.233   1.278  -6.832  1.00  1.00    -0.091 Cl
HETATM    9  C4    D T 600       1.311   4.960  -7.428  1.00 16.13     0.059 A 
ENDBRANCH   1   2
BRANCH   1  10
HETATM   10  C8    D T 600       0.082   8.061  -7.854  1.00 16.10     0.106 A 
HETATM   11  C9    D T 600       1.197   8.898  -7.172  1.00 14.15     0.063 A 
HETATM   12  C10   D T 600       0.832  10.046  -6.361  1.00 14.71     0.078 A 
HETATM   13 CL16   D T 600       2.811   8.497  -7.340  1.00  1.00    -0.085 Cl
HETATM   14  C11   D T 600      -0.643  10.364  -6.232  1.00 14.35     0.041 A 
HETATM   15  C12   D T 600      -1.600   9.566  -6.884  1.00 18.52     0.009 A 
HETATM   16 CL15   D T 600      -1.045  11.690  -5.277  1.00  1.63    -0.087 Cl
HETATM   17  C13   D T 600      -1.324   8.481  -7.652  1.00 15.99     0.026 A 
ENDBRANCH   1  10
TORSDOF 2
ENDMDL
