MODEL 1
REMARK VINA RESULT:      -9.7      0.000      0.000
REMARK  6 active torsions:
REMARK  status: ('A' for Active; 'I' for Inactive)
REMARK    1  A    between atoms: NBC_2  and  CBB_4 
REMARK    2  A    between atoms: CBB_4  and  CBA_5 
REMARK    3  A    between atoms: CBA_5  and  CAY_6 
REMARK    4  A    between atoms: CAY_6  and  NAH_7 
REMARK    5  A    between atoms: CAG_15  and  CAI_16 
REMARK    6  A    between atoms: CAJ_22  and  CAK_23 
ROOT
HETATM    1  CAI   D T1001       4.975   0.676  -5.976  1.00 35.40     0.064 A 
HETATM    2  CAT   D T1001       3.940  -0.276  -5.487  1.00 36.13     0.282 A 
HETATM    3  OAZ   D T1001       3.886  -0.720  -4.283  1.00 33.53    -0.265 OA
HETATM    4  NAU   D T1001       3.101  -0.723  -6.446  1.00 33.87    -0.169 NA
HETATM    5  CAV   D T1001       3.445  -0.060  -7.558  1.00 34.90     0.282 A 
HETATM    6  OAX   D T1001       2.821  -0.248  -8.655  1.00 35.00    -0.265 OA
HETATM    7  CAJ   D T1001       4.594   0.858  -7.388  1.00 32.88     0.064 A 
ENDROOT
BRANCH   1   8
HETATM    8  CAG   D T1001       5.961   1.409  -5.105  1.00 35.34     0.023 A 
HETATM    9  CAW   D T1001       5.527   2.151  -4.031  1.00 34.78     0.076 A 
HETATM   10  NAH   D T1001       6.669   2.598  -3.424  1.00 36.88    -0.326 N 
HETATM   11  CAE   D T1001       7.762   2.136  -4.046  1.00 36.88     0.060 A 
HETATM   12  CAF   D T1001       9.132   2.277  -3.806  1.00 37.02     0.017 A 
HETATM   13  CAD   D T1001       7.346   1.332  -5.111  1.00 36.79     0.017 A 
HETATM   14  CAA   D T1001      10.052   1.668  -4.636  1.00 37.13     0.002 A 
HETATM   15  CAB   D T1001       9.627   0.882  -5.722  1.00 38.67     0.000 A 
HETATM   16  CAC   D T1001       8.262   0.726  -5.978  1.00 38.70     0.002 A 
BRANCH  10  17
HETATM   17  CAY   D T1001       6.667   3.429  -2.236  1.00 39.32     0.108 C 
BRANCH  17  18
HETATM   18  CBA   D T1001       5.263   3.777  -1.801  1.00 40.15     0.048 C 
BRANCH  18  19
HETATM   19  CBB   D T1001       5.260   5.297  -1.799  1.00 46.58     0.099 C 
BRANCH  19  20
HETATM   20  NBC   D T1001       4.471   5.811  -2.916  1.00 44.62    -0.365 N 
HETATM   21  CBD   D T1001       4.982   7.024  -3.544  1.00 48.91     0.121 C 
HETATM   22  CBE   D T1001       3.278   5.162  -3.440  1.00 49.55     0.121 C 
ENDBRANCH  19  20
ENDBRANCH  18  19
ENDBRANCH  17  18
ENDBRANCH  10  17
ENDBRANCH   1   8
BRANCH   7  23
HETATM   23  CAK   D T1001       5.161   1.737  -8.461  1.00 34.11     0.025 A 
HETATM   24  CAM   D T1001       6.108   1.390  -9.445  1.00 33.58     0.019 A 
HETATM   25  CAP   D T1001       6.777   0.201  -9.762  1.00 31.36     0.002 A 
HETATM   26  CAN   D T1001       6.300   2.580 -10.149  1.00 34.83     0.081 A 
HETATM   27  CAQ   D T1001       7.675   0.202 -10.825  1.00 33.71     0.000 A 
HETATM   28  CAR   D T1001       7.872   1.382 -11.543  1.00 32.72     0.002 A 
HETATM   29  CAS   D T1001       7.196   2.576 -11.234  1.00 35.56     0.019 A 
HETATM   30  NAO   D T1001       5.495   3.553  -9.610  1.00 33.95    -0.244 NA
HETATM   31  CAL   D T1001       4.769   3.071  -8.566  1.00 33.68     0.099 A 
ENDBRANCH   7  23
TORSDOF 6
ENDMDL
MODEL 2
REMARK VINA RESULT:      -9.2      4.800     10.188
REMARK  6 active torsions:
REMARK  status: ('A' for Active; 'I' for Inactive)
REMARK    1  A    between atoms: NBC_2  and  CBB_4 
REMARK    2  A    between atoms: CBB_4  and  CBA_5 
REMARK    3  A    between atoms: CBA_5  and  CAY_6 
REMARK    4  A    between atoms: CAY_6  and  NAH_7 
REMARK    5  A    between atoms: CAG_15  and  CAI_16 
REMARK    6  A    between atoms: CAJ_22  and  CAK_23 
ROOT
HETATM    1  CAI   D T1001       6.933   6.880  -0.307  1.00 35.40     0.064 A 
HETATM    2  CAT   D T1001       7.450   8.203  -0.750  1.00 36.13     0.282 A 
HETATM    3  OAZ   D T1001       7.452   8.599  -1.971  1.00 33.53    -0.265 OA
HETATM    4  NAU   D T1001       8.018   8.933   0.235  1.00 33.87    -0.169 NA
HETATM    5  CAV   D T1001       7.839   8.221   1.355  1.00 34.90     0.282 A 
HETATM    6  OAX   D T1001       8.254   8.653   2.481  1.00 35.00    -0.265 OA
HETATM    7  CAJ   D T1001       7.157   6.924   1.149  1.00 32.88     0.064 A 
ENDROOT
BRANCH   1   8
HETATM    8  CAG   D T1001       6.158   5.917  -1.170  1.00 35.34     0.023 A 
HETATM    9  CAW   D T1001       6.648   4.656  -1.420  1.00 34.78     0.076 A 
HETATM   10  NAH   D T1001       5.671   4.035  -2.150  1.00 36.88    -0.326 N 
HETATM   11  CAE   D T1001       4.608   4.834  -2.317  1.00 36.88     0.060 A 
HETATM   12  CAF   D T1001       3.371   4.664  -2.946  1.00 37.02     0.017 A 
HETATM   13  CAD   D T1001       4.869   6.042  -1.664  1.00 36.79     0.017 A 
HETATM   14  CAA   D T1001       2.447   5.689  -2.957  1.00 37.13     0.002 A 
HETATM   15  CAB   D T1001       2.726   6.912  -2.322  1.00 38.67     0.000 A 
HETATM   16  CAC   D T1001       3.956   7.102  -1.686  1.00 38.70     0.002 A 
BRANCH  10  17
HETATM   17  CAY   D T1001       5.779   2.671  -2.630  1.00 39.32     0.108 C 
BRANCH  17  18
HETATM   18  CBA   D T1001       6.360   2.617  -4.024  1.00 40.15     0.048 C 
BRANCH  18  19
HETATM   19  CBB   D T1001       5.587   1.486  -4.684  1.00 46.58     0.099 C 
BRANCH  19  20
HETATM   20  NBC   D T1001       4.478   2.016  -5.473  1.00 44.62    -0.365 N 
HETATM   21  CBD   D T1001       3.261   1.211  -5.472  1.00 48.91     0.121 C 
HETATM   22  CBE   D T1001       4.515   3.284  -6.186  1.00 49.55     0.121 C 
ENDBRANCH  19  20
ENDBRANCH  18  19
ENDBRANCH  17  18
ENDBRANCH  10  17
ENDBRANCH   1   8
BRANCH   7  23
HETATM   23  CAK   D T1001       6.810   5.951   2.235  1.00 34.11     0.025 A 
HETATM   24  CAM   D T1001       7.679   5.075   2.915  1.00 33.58     0.019 A 
HETATM   25  CAP   D T1001       9.058   4.840   2.846  1.00 31.36     0.002 A 
HETATM   26  CAN   D T1001       6.833   4.384   3.784  1.00 34.83     0.081 A 
HETATM   27  CAQ   D T1001       9.614   3.876   3.681  1.00 33.71     0.000 A 
HETATM   28  CAR   D T1001       8.783   3.183   4.561  1.00 32.72     0.002 A 
HETATM   29  CAS   D T1001       7.399   3.421   4.640  1.00 35.56     0.019 A 
HETATM   30  NAO   D T1001       5.551   4.850   3.626  1.00 33.95    -0.244 NA
HETATM   31  CAL   D T1001       5.494   5.825   2.679  1.00 33.68     0.099 A 
ENDBRANCH   7  23
TORSDOF 6
ENDMDL
MODEL 3
REMARK VINA RESULT:      -8.9      1.384      3.949
REMARK  6 active torsions:
REMARK  status: ('A' for Active; 'I' for Inactive)
REMARK    1  A    between atoms: NBC_2  and  CBB_4 
REMARK    2  A    between atoms: CBB_4  and  CBA_5 
REMARK    3  A    between atoms: CBA_5  and  CAY_6 
REMARK    4  A    between atoms: CAY_6  and  NAH_7 
REMARK    5  A    between atoms: CAG_15  and  CAI_16 
REMARK    6  A    between atoms: CAJ_22  and  CAK_23 
ROOT
HETATM    1  CAI   D T1001       4.862   0.567  -5.974  1.00 35.40     0.064 A 
HETATM    2  CAT   D T1001       3.812  -0.420  -5.601  1.00 36.13     0.282 A 
HETATM    3  OAZ   D T1001       3.672  -0.904  -4.420  1.00 33.53    -0.265 OA
HETATM    4  NAU   D T1001       3.062  -0.849  -6.638  1.00 33.87    -0.169 NA
HETATM    5  CAV   D T1001       3.480  -0.143  -7.697  1.00 34.90     0.282 A 
HETATM    6  OAX   D T1001       2.949  -0.305  -8.846  1.00 35.00    -0.265 OA
HETATM    7  CAJ   D T1001       4.592   0.789  -7.406  1.00 32.88     0.064 A 
ENDROOT
BRANCH   1   8
HETATM    8  CAG   D T1001       5.761   1.288  -5.003  1.00 35.34     0.023 A 
HETATM    9  CAW   D T1001       7.124   1.103  -5.045  1.00 34.78     0.076 A 
HETATM   10  NAH   D T1001       7.626   1.958  -4.102  1.00 36.88    -0.326 N 
HETATM   11  CAE   D T1001       6.650   2.673  -3.526  1.00 36.88     0.060 A 
HETATM   12  CAF   D T1001       6.645   3.674  -2.551  1.00 37.02     0.017 A 
HETATM   13  CAD   D T1001       5.437   2.298  -4.110  1.00 36.79     0.017 A 
HETATM   14  CAA   D T1001       5.456   4.246  -2.145  1.00 37.13     0.002 A 
HETATM   15  CAB   D T1001       4.236   3.845  -2.716  1.00 38.67     0.000 A 
HETATM   16  CAC   D T1001       4.219   2.847  -3.695  1.00 38.70     0.002 A 
BRANCH  10  17
HETATM   17  CAY   D T1001       9.041   2.084  -3.814  1.00 39.32     0.108 C 
BRANCH  17  18
HETATM   18  CBA   D T1001       9.858   1.069  -4.579  1.00 40.15     0.048 C 
BRANCH  18  19
HETATM   19  CBB   D T1001      10.917   1.915  -5.268  1.00 46.58     0.099 C 
BRANCH  19  20
HETATM   20  NBC   D T1001      12.077   2.092  -4.398  1.00 44.62    -0.365 N 
HETATM   21  CBD   D T1001      12.769   3.370  -4.521  1.00 48.91     0.121 C 
HETATM   22  CBE   D T1001      12.522   1.111  -3.419  1.00 49.55     0.121 C 
ENDBRANCH  19  20
ENDBRANCH  18  19
ENDBRANCH  17  18
ENDBRANCH  10  17
ENDBRANCH   1   8
BRANCH   7  23
HETATM   23  CAK   D T1001       5.224   1.714  -8.401  1.00 34.11     0.025 A 
HETATM   24  CAM   D T1001       6.158   1.388  -9.405  1.00 33.58     0.019 A 
HETATM   25  CAP   D T1001       6.755   0.188  -9.813  1.00 31.36     0.002 A 
HETATM   26  CAN   D T1001       6.432   2.616 -10.008  1.00 34.83     0.081 A 
HETATM   27  CAQ   D T1001       7.662   0.217 -10.867  1.00 33.71     0.000 A 
HETATM   28  CAR   D T1001       7.940   1.436 -11.486  1.00 32.72     0.002 A 
HETATM   29  CAS   D T1001       7.337   2.642 -11.086  1.00 35.56     0.019 A 
HETATM   30  NAO   D T1001       5.684   3.592  -9.398  1.00 33.95    -0.244 NA
HETATM   31  CAL   D T1001       4.918   3.074  -8.400  1.00 33.68     0.099 A 
ENDBRANCH   7  23
TORSDOF 6
ENDMDL
MODEL 4
REMARK VINA RESULT:      -8.7      4.987     10.363
REMARK  6 active torsions:
REMARK  status: ('A' for Active; 'I' for Inactive)
REMARK    1  A    between atoms: NBC_2  and  CBB_4 
REMARK    2  A    between atoms: CBB_4  and  CBA_5 
REMARK    3  A    between atoms: CBA_5  and  CAY_6 
REMARK    4  A    between atoms: CAY_6  and  NAH_7 
REMARK    5  A    between atoms: CAG_15  and  CAI_16 
REMARK    6  A    between atoms: CAJ_22  and  CAK_23 
ROOT
HETATM    1  CAI   D T1001       8.309   5.455   0.105  1.00 35.40     0.064 A 
HETATM    2  CAT   D T1001       9.737   5.595  -0.289  1.00 36.13     0.282 A 
HETATM    3  OAZ   D T1001      10.130   5.833  -1.488  1.00 33.53    -0.265 OA
HETATM    4  NAU   D T1001      10.614   5.355   0.711  1.00 33.87    -0.169 NA
HETATM    5  CAV   D T1001       9.863   5.143   1.800  1.00 34.90     0.282 A 
HETATM    6  OAX   D T1001      10.400   4.901   2.931  1.00 35.00    -0.265 OA
HETATM    7  CAJ   D T1001       8.404   5.196   1.553  1.00 32.88     0.064 A 
ENDROOT
BRANCH   1   8
HETATM    8  CAG   D T1001       7.130   5.773  -0.778  1.00 35.34     0.023 A 
HETATM    9  CAW   D T1001       6.377   4.760  -1.326  1.00 34.78     0.076 A 
HETATM   10  NAH   D T1001       5.359   5.394  -1.985  1.00 36.88    -0.326 N 
HETATM   11  CAE   D T1001       5.432   6.722  -1.831  1.00 36.88     0.060 A 
HETATM   12  CAF   D T1001       4.635   7.783  -2.268  1.00 37.02     0.017 A 
HETATM   13  CAD   D T1001       6.539   7.003  -1.023  1.00 36.79     0.017 A 
HETATM   14  CAA   D T1001       4.965   9.084  -1.944  1.00 37.13     0.002 A 
HETATM   15  CAB   D T1001       6.095   9.362  -1.155  1.00 38.67     0.000 A 
HETATM   16  CAC   D T1001       6.904   8.315  -0.705  1.00 38.70     0.002 A 
BRANCH  10  17
HETATM   17  CAY   D T1001       4.321   4.690  -2.713  1.00 39.32     0.108 C 
BRANCH  17  18
HETATM   18  CBA   D T1001       4.741   4.392  -4.133  1.00 40.15     0.048 C 
BRANCH  18  19
HETATM   19  CBB   D T1001       3.744   3.335  -4.582  1.00 46.58     0.099 C 
BRANCH  19  20
HETATM   20  NBC   D T1001       4.264   1.996  -4.322  1.00 44.62    -0.365 N 
HETATM   21  CBD   D T1001       3.444   1.157  -3.454  1.00 48.91     0.121 C 
HETATM   22  CBE   D T1001       5.486   1.465  -4.908  1.00 49.55     0.121 C 
ENDBRANCH  19  20
ENDBRANCH  18  19
ENDBRANCH  17  18
ENDBRANCH  10  17
ENDBRANCH   1   8
BRANCH   7  23
HETATM   23  CAK   D T1001       7.347   5.023   2.600  1.00 34.11     0.025 A 
HETATM   24  CAM   D T1001       7.238   3.987   3.549  1.00 33.58     0.019 A 
HETATM   25  CAP   D T1001       8.023   2.865   3.846  1.00 31.36     0.002 A 
HETATM   26  CAN   D T1001       6.065   4.297   4.239  1.00 34.83     0.081 A 
HETATM   27  CAQ   D T1001       7.619   2.020   4.874  1.00 33.71     0.000 A 
HETATM   28  CAR   D T1001       6.453   2.321   5.579  1.00 32.72     0.002 A 
HETATM   29  CAS   D T1001       5.666   3.450   5.290  1.00 35.56     0.019 A 
HETATM   30  NAO   D T1001       5.537   5.457   3.727  1.00 33.95    -0.244 NA
HETATM   31  CAL   D T1001       6.304   5.942   2.713  1.00 33.68     0.099 A 
ENDBRANCH   7  23
TORSDOF 6
ENDMDL
MODEL 5
REMARK VINA RESULT:      -8.5      1.941      3.541
REMARK  6 active torsions:
REMARK  status: ('A' for Active; 'I' for Inactive)
REMARK    1  A    between atoms: NBC_2  and  CBB_4 
REMARK    2  A    between atoms: CBB_4  and  CBA_5 
REMARK    3  A    between atoms: CBA_5  and  CAY_6 
REMARK    4  A    between atoms: CAY_6  and  NAH_7 
REMARK    5  A    between atoms: CAG_15  and  CAI_16 
REMARK    6  A    between atoms: CAJ_22  and  CAK_23 
ROOT
HETATM    1  CAI   D T1001       4.873   1.038  -4.601  1.00 35.40     0.064 A 
HETATM    2  CAT   D T1001       3.890  -0.010  -4.214  1.00 36.13     0.282 A 
HETATM    3  OAZ   D T1001       3.234  -0.005  -3.111  1.00 33.53    -0.265 OA
HETATM    4  NAU   D T1001       3.808  -1.040  -5.085  1.00 33.87    -0.169 NA
HETATM    5  CAV   D T1001       4.618  -0.714  -6.100  1.00 34.90     0.282 A 
HETATM    6  OAX   D T1001       4.752  -1.486  -7.107  1.00 35.00    -0.265 OA
HETATM    7  CAJ   D T1001       5.329   0.572  -5.922  1.00 32.88     0.064 A 
ENDROOT
BRANCH   1   8
HETATM    8  CAG   D T1001       5.084   2.341  -3.874  1.00 35.34     0.023 A 
HETATM    9  CAW   D T1001       5.998   2.427  -2.849  1.00 34.78     0.076 A 
HETATM   10  NAH   D T1001       5.994   3.745  -2.481  1.00 36.88    -0.326 N 
HETATM   11  CAE   D T1001       5.164   4.461  -3.250  1.00 36.88     0.060 A 
HETATM   12  CAF   D T1001       4.833   5.819  -3.297  1.00 37.02     0.017 A 
HETATM   13  CAD   D T1001       4.589   3.597  -4.187  1.00 36.79     0.017 A 
HETATM   14  CAA   D T1001       3.921   6.283  -4.224  1.00 37.13     0.002 A 
HETATM   15  CAB   D T1001       3.325   5.404  -5.146  1.00 38.67     0.000 A 
HETATM   16  CAC   D T1001       3.644   4.044  -5.117  1.00 38.70     0.002 A 
BRANCH  10  17
HETATM   17  CAY   D T1001       6.826   4.279  -1.420  1.00 39.32     0.108 C 
BRANCH  17  18
HETATM   18  CBA   D T1001       6.065   4.390  -0.119  1.00 40.15     0.048 C 
BRANCH  18  19
HETATM   19  CBB   D T1001       6.830   5.457   0.647  1.00 46.58     0.099 C 
BRANCH  19  20
HETATM   20  NBC   D T1001       6.084   6.713   0.660  1.00 44.62    -0.365 N 
HETATM   21  CBD   D T1001       5.117   6.861   1.742  1.00 48.91     0.121 C 
HETATM   22  CBE   D T1001       6.293   7.798  -0.288  1.00 49.55     0.121 C 
ENDBRANCH  19  20
ENDBRANCH  18  19
ENDBRANCH  17  18
ENDBRANCH  10  17
ENDBRANCH   1   8
BRANCH   7  23
HETATM   23  CAK   D T1001       6.269   1.181  -6.918  1.00 34.11     0.025 A 
HETATM   24  CAM   D T1001       5.965   1.657  -8.208  1.00 33.58     0.019 A 
HETATM   25  CAP   D T1001       4.777   1.751  -8.946  1.00 31.36     0.002 A 
HETATM   26  CAN   D T1001       7.201   2.078  -8.702  1.00 34.83     0.081 A 
HETATM   27  CAQ   D T1001       4.828   2.287 -10.229  1.00 33.71     0.000 A 
HETATM   28  CAR   D T1001       6.055   2.719 -10.734  1.00 32.72     0.002 A 
HETATM   29  CAS   D T1001       7.248   2.635  -9.994  1.00 35.56     0.019 A 
HETATM   30  NAO   D T1001       8.160   1.871  -7.743  1.00 33.95    -0.244 NA
HETATM   31  CAL   D T1001       7.624   1.321  -6.619  1.00 33.68     0.099 A 
ENDBRANCH   7  23
TORSDOF 6
ENDMDL
MODEL 6
REMARK VINA RESULT:      -8.3      5.747      9.533
REMARK  6 active torsions:
REMARK  status: ('A' for Active; 'I' for Inactive)
REMARK    1  A    between atoms: NBC_2  and  CBB_4 
REMARK    2  A    between atoms: CBB_4  and  CBA_5 
REMARK    3  A    between atoms: CBA_5  and  CAY_6 
REMARK    4  A    between atoms: CAY_6  and  NAH_7 
REMARK    5  A    between atoms: CAG_15  and  CAI_16 
REMARK    6  A    between atoms: CAJ_22  and  CAK_23 
ROOT
HETATM    1  CAI   D T1001       8.461   5.022   1.963  1.00 35.40     0.064 A 
HETATM    2  CAT   D T1001       8.767   4.433   3.295  1.00 36.13     0.282 A 
HETATM    3  OAZ   D T1001       9.950   4.127   3.689  1.00 33.53    -0.265 OA
HETATM    4  NAU   D T1001       7.675   4.149   4.039  1.00 33.87    -0.169 NA
HETATM    5  CAV   D T1001       6.632   4.594   3.326  1.00 34.90     0.282 A 
HETATM    6  OAX   D T1001       5.441   4.488   3.768  1.00 35.00    -0.265 OA
HETATM    7  CAJ   D T1001       6.996   5.177   2.014  1.00 32.88     0.064 A 
ENDROOT
BRANCH   1   8
HETATM    8  CAG   D T1001       9.486   5.533   0.983  1.00 35.34     0.023 A 
HETATM    9  CAW   D T1001      10.060   4.681   0.068  1.00 34.78     0.076 A 
HETATM   10  NAH   D T1001      10.861   5.479  -0.703  1.00 36.88    -0.326 N 
HETATM   11  CAE   D T1001      10.772   6.763  -0.330  1.00 36.88     0.060 A 
HETATM   12  CAF   D T1001      11.353   7.941  -0.806  1.00 37.02     0.017 A 
HETATM   13  CAD   D T1001       9.862   6.842   0.729  1.00 36.79     0.017 A 
HETATM   14  CAA   D T1001      11.065   9.152  -0.209  1.00 37.13     0.002 A 
HETATM   15  CAB   D T1001      10.171   9.223   0.874  1.00 38.67     0.000 A 
HETATM   16  CAC   D T1001       9.577   8.056   1.364  1.00 38.70     0.002 A 
BRANCH  10  17
HETATM   17  CAY   D T1001      11.662   4.979  -1.804  1.00 39.32     0.108 C 
BRANCH  17  18
HETATM   18  CBA   D T1001      11.187   3.621  -2.265  1.00 40.15     0.048 C 
BRANCH  18  19
HETATM   19  CBB   D T1001      12.117   3.296  -3.423  1.00 46.58     0.099 C 
BRANCH  19  20
HETATM   20  NBC   D T1001      11.636   2.128  -4.156  1.00 44.62    -0.365 N 
HETATM   21  CBD   D T1001      12.104   0.837  -3.663  1.00 48.91     0.121 C 
HETATM   22  CBE   D T1001      10.708   2.190  -5.275  1.00 49.55     0.121 C 
ENDBRANCH  19  20
ENDBRANCH  18  19
ENDBRANCH  17  18
ENDBRANCH  10  17
ENDBRANCH   1   8
BRANCH   7  23
HETATM   23  CAK   D T1001       6.028   5.771   1.037  1.00 34.11     0.025 A 
HETATM   24  CAM   D T1001       5.651   5.258  -0.220  1.00 33.58     0.019 A 
HETATM   25  CAP   D T1001       5.991   4.100  -0.930  1.00 31.36     0.002 A 
HETATM   26  CAN   D T1001       4.763   6.217  -0.711  1.00 34.83     0.081 A 
HETATM   27  CAQ   D T1001       5.423   3.892  -2.182  1.00 33.71     0.000 A 
HETATM   28  CAR   D T1001       4.528   4.837  -2.684  1.00 32.72     0.002 A 
HETATM   29  CAS   D T1001       4.175   5.997  -1.971  1.00 35.56     0.019 A 
HETATM   30  NAO   D T1001       4.624   7.217   0.219  1.00 33.95    -0.244 NA
HETATM   31  CAL   D T1001       5.387   6.977   1.320  1.00 33.68     0.099 A 
ENDBRANCH   7  23
TORSDOF 6
ENDMDL
MODEL 7
REMARK VINA RESULT:      -8.1      5.032      8.905
REMARK  6 active torsions:
REMARK  status: ('A' for Active; 'I' for Inactive)
REMARK    1  A    between atoms: NBC_2  and  CBB_4 
REMARK    2  A    between atoms: CBB_4  and  CBA_5 
REMARK    3  A    between atoms: CBA_5  and  CAY_6 
REMARK    4  A    between atoms: CAY_6  and  NAH_7 
REMARK    5  A    between atoms: CAG_15  and  CAI_16 
REMARK    6  A    between atoms: CAJ_22  and  CAK_23 
ROOT
HETATM    1  CAI   D T1001       8.916   5.108   0.600  1.00 35.40     0.064 A 
HETATM    2  CAT   D T1001       9.127   4.923   2.062  1.00 36.13     0.282 A 
HETATM    3  OAZ   D T1001      10.282   4.893   2.621  1.00 33.53    -0.265 OA
HETATM    4  NAU   D T1001       7.994   4.688   2.759  1.00 33.87    -0.169 NA
HETATM    5  CAV   D T1001       6.999   4.791   1.868  1.00 34.90     0.282 A 
HETATM    6  OAX   D T1001       5.783   4.636   2.220  1.00 35.00    -0.265 OA
HETATM    7  CAJ   D T1001       7.448   5.068   0.485  1.00 32.88     0.064 A 
ENDROOT
BRANCH   1   8
HETATM    8  CAG   D T1001       9.986   5.491  -0.390  1.00 35.34     0.023 A 
HETATM    9  CAW   D T1001      10.529   4.547  -1.230  1.00 34.78     0.076 A 
HETATM   10  NAH   D T1001      11.388   5.243  -2.036  1.00 36.88    -0.326 N 
HETATM   11  CAE   D T1001      11.363   6.553  -1.757  1.00 36.88     0.060 A 
HETATM   12  CAF   D T1001      12.017   7.661  -2.302  1.00 37.02     0.017 A 
HETATM   13  CAD   D T1001      10.439   6.757  -0.727  1.00 36.79     0.017 A 
HETATM   14  CAA   D T1001      11.785   8.925  -1.798  1.00 37.13     0.002 A 
HETATM   15  CAB   D T1001      10.876   9.122  -0.744  1.00 38.67     0.000 A 
HETATM   16  CAC   D T1001      10.210   8.027  -0.186  1.00 38.70     0.002 A 
BRANCH  10  17
HETATM   17  CAY   D T1001      12.180   4.622  -3.081  1.00 39.32     0.108 C 
BRANCH  17  18
HETATM   18  CBA   D T1001      11.984   3.124  -3.112  1.00 40.15     0.048 C 
BRANCH  18  19
HETATM   19  CBB   D T1001      11.640   2.844  -4.566  1.00 46.58     0.099 C 
BRANCH  19  20
HETATM   20  NBC   D T1001      10.403   2.073  -4.660  1.00 44.62    -0.365 N 
HETATM   21  CBD   D T1001       9.509   2.444  -5.751  1.00 48.91     0.121 C 
HETATM   22  CBE   D T1001      10.063   0.962  -3.783  1.00 49.55     0.121 C 
ENDBRANCH  19  20
ENDBRANCH  18  19
ENDBRANCH  17  18
ENDBRANCH  10  17
ENDBRANCH   1   8
BRANCH   7  23
HETATM   23  CAK   D T1001       6.541   5.257  -0.693  1.00 34.11     0.025 A 
HETATM   24  CAM   D T1001       6.299   6.445  -1.410  1.00 33.58     0.019 A 
HETATM   25  CAP   D T1001       6.796   7.751  -1.308  1.00 31.36     0.002 A 
HETATM   26  CAN   D T1001       5.359   6.064  -2.369  1.00 34.83     0.081 A 
HETATM   27  CAQ   D T1001       6.335   8.714  -2.199  1.00 33.71     0.000 A 
HETATM   28  CAR   D T1001       5.400   8.347  -3.168  1.00 32.72     0.002 A 
HETATM   29  CAS   D T1001       4.905   7.035  -3.281  1.00 35.56     0.019 A 
HETATM   30  NAO   D T1001       5.088   4.726  -2.223  1.00 33.95    -0.244 NA
HETATM   31  CAL   D T1001       5.803   4.187  -1.198  1.00 33.68     0.099 A 
ENDBRANCH   7  23
TORSDOF 6
ENDMDL
MODEL 8
REMARK VINA RESULT:      -7.9      4.461      8.968
REMARK  6 active torsions:
REMARK  status: ('A' for Active; 'I' for Inactive)
REMARK    1  A    between atoms: NBC_2  and  CBB_4 
REMARK    2  A    between atoms: CBB_4  and  CBA_5 
REMARK    3  A    between atoms: CBA_5  and  CAY_6 
REMARK    4  A    between atoms: CAY_6  and  NAH_7 
REMARK    5  A    between atoms: CAG_15  and  CAI_16 
REMARK    6  A    between atoms: CAJ_22  and  CAK_23 
ROOT
HETATM    1  CAI   D T1001       7.162   5.386   0.340  1.00 35.40     0.064 A 
HETATM    2  CAT   D T1001       6.627   5.011   1.677  1.00 36.13     0.282 A 
HETATM    3  OAZ   D T1001       5.375   4.936   1.953  1.00 33.53    -0.265 OA
HETATM    4  NAU   D T1001       7.574   4.846   2.626  1.00 33.87    -0.169 NA
HETATM    5  CAV   D T1001       8.744   4.999   1.992  1.00 34.90     0.282 A 
HETATM    6  OAX   D T1001       9.850   4.885   2.619  1.00 35.00    -0.265 OA
HETATM    7  CAJ   D T1001       8.619   5.324   0.554  1.00 32.88     0.064 A 
ENDROOT
BRANCH   1   8
HETATM    8  CAG   D T1001       6.342   5.523  -0.916  1.00 35.34     0.023 A 
HETATM    9  CAW   D T1001       5.701   4.430  -1.453  1.00 34.78     0.076 A 
HETATM   10  NAH   D T1001       4.995   4.922  -2.517  1.00 36.88    -0.326 N 
HETATM   11  CAE   D T1001       5.142   6.249  -2.626  1.00 36.88     0.060 A 
HETATM   12  CAF   D T1001       4.618   7.202  -3.505  1.00 37.02     0.017 A 
HETATM   13  CAD   D T1001       5.971   6.679  -1.587  1.00 36.79     0.017 A 
HETATM   14  CAA   D T1001       4.953   8.534  -3.370  1.00 37.13     0.002 A 
HETATM   15  CAB   D T1001       5.811   8.957  -2.339  1.00 38.67     0.000 A 
HETATM   16  CAC   D T1001       6.343   8.021  -1.449  1.00 38.70     0.002 A 
BRANCH  10  17
HETATM   17  CAY   D T1001       4.166   4.096  -3.374  1.00 39.32     0.108 C 
BRANCH  17  18
HETATM   18  CBA   D T1001       4.978   3.432  -4.462  1.00 40.15     0.048 C 
BRANCH  18  19
HETATM   19  CBB   D T1001       4.368   3.980  -5.742  1.00 46.58     0.099 C 
BRANCH  19  20
HETATM   20  NBC   D T1001       4.569   3.047  -6.846  1.00 44.62    -0.365 N 
HETATM   21  CBD   D T1001       4.300   1.645  -6.546  1.00 48.91     0.121 C 
HETATM   22  CBE   D T1001       4.959   3.443  -8.192  1.00 49.55     0.121 C 
ENDBRANCH  19  20
ENDBRANCH  18  19
ENDBRANCH  17  18
ENDBRANCH  10  17
ENDBRANCH   1   8
BRANCH   7  23
HETATM   23  CAK   D T1001       9.768   5.518  -0.388  1.00 34.11     0.025 A 
HETATM   24  CAM   D T1001      10.343   6.735  -0.805  1.00 33.58     0.019 A 
HETATM   25  CAP   D T1001      10.090   8.077  -0.493  1.00 31.36     0.002 A 
HETATM   26  CAN   D T1001      11.340   6.338  -1.697  1.00 34.83     0.081 A 
HETATM   27  CAQ   D T1001      10.864   9.061  -1.098  1.00 33.71     0.000 A 
HETATM   28  CAR   D T1001      11.870   8.680  -1.987  1.00 32.72     0.002 A 
HETATM   29  CAS   D T1001      12.134   7.334  -2.296  1.00 35.56     0.019 A 
HETATM   30  NAO   D T1001      11.350   4.967  -1.777  1.00 33.95    -0.244 NA
HETATM   31  CAL   D T1001      10.394   4.420  -0.977  1.00 33.68     0.099 A 
ENDBRANCH   7  23
TORSDOF 6
ENDMDL
MODEL 9
REMARK VINA RESULT:      -7.9      4.892      8.373
REMARK  6 active torsions:
REMARK  status: ('A' for Active; 'I' for Inactive)
REMARK    1  A    between atoms: NBC_2  and  CBB_4 
REMARK    2  A    between atoms: CBB_4  and  CBA_5 
REMARK    3  A    between atoms: CBA_5  and  CAY_6 
REMARK    4  A    between atoms: CAY_6  and  NAH_7 
REMARK    5  A    between atoms: CAG_15  and  CAI_16 
REMARK    6  A    between atoms: CAJ_22  and  CAK_23 
ROOT
HETATM    1  CAI   D T1001       6.664   7.363  -0.730  1.00 35.40     0.064 A 
HETATM    2  CAT   D T1001       6.257   8.793  -0.661  1.00 36.13     0.282 A 
HETATM    3  OAZ   D T1001       6.949   9.708  -0.087  1.00 33.53    -0.265 OA
HETATM    4  NAU   D T1001       5.033   9.045  -1.175  1.00 33.87    -0.169 NA
HETATM    5  CAV   D T1001       4.610   7.878  -1.678  1.00 34.90     0.282 A 
HETATM    6  OAX   D T1001       3.477   7.785  -2.256  1.00 35.00    -0.265 OA
HETATM    7  CAJ   D T1001       5.550   6.752  -1.477  1.00 32.88     0.064 A 
ENDROOT
BRANCH   1   8
HETATM    8  CAG   D T1001       8.015   6.824  -0.334  1.00 35.34     0.023 A 
HETATM    9  CAW   D T1001       9.137   7.158  -1.056  1.00 34.78     0.076 A 
HETATM   10  NAH   D T1001      10.177   6.577  -0.381  1.00 36.88    -0.326 N 
HETATM   11  CAE   D T1001       9.750   5.951   0.723  1.00 36.88     0.060 A 
HETATM   12  CAF   D T1001      10.404   5.248   1.739  1.00 37.02     0.017 A 
HETATM   13  CAD   D T1001       8.365   6.123   0.809  1.00 36.79     0.017 A 
HETATM   14  CAA   D T1001       9.684   4.698   2.782  1.00 37.13     0.002 A 
HETATM   15  CAB   D T1001       8.288   4.851   2.848  1.00 38.67     0.000 A 
HETATM   16  CAC   D T1001       7.615   5.552   1.844  1.00 38.70     0.002 A 
BRANCH  10  17
HETATM   17  CAY   D T1001      11.559   6.681  -0.806  1.00 39.32     0.108 C 
BRANCH  17  18
HETATM   18  CBA   D T1001      11.741   6.212  -2.231  1.00 40.15     0.048 C 
BRANCH  18  19
HETATM   19  CBB   D T1001      11.841   4.701  -2.095  1.00 46.58     0.099 C 
BRANCH  19  20
HETATM   20  NBC   D T1001      12.937   4.185  -2.911  1.00 44.62    -0.365 N 
HETATM   21  CBD   D T1001      12.544   3.518  -4.148  1.00 48.91     0.121 C 
HETATM   22  CBE   D T1001      14.346   4.347  -2.584  1.00 49.55     0.121 C 
ENDBRANCH  19  20
ENDBRANCH  18  19
ENDBRANCH  17  18
ENDBRANCH  10  17
ENDBRANCH   1   8
BRANCH   7  23
HETATM   23  CAK   D T1001       5.333   5.352  -1.964  1.00 34.11     0.025 A 
HETATM   24  CAM   D T1001       4.754   4.946  -3.183  1.00 33.58     0.019 A 
HETATM   25  CAP   D T1001       4.246   5.641  -4.288  1.00 31.36     0.002 A 
HETATM   26  CAN   D T1001       4.770   3.552  -3.104  1.00 34.83     0.081 A 
HETATM   27  CAQ   D T1001       3.732   4.914  -5.357  1.00 33.71     0.000 A 
HETATM   28  CAR   D T1001       3.747   3.520  -5.297  1.00 32.72     0.002 A 
HETATM   29  CAS   D T1001       4.265   2.817  -4.193  1.00 35.56     0.019 A 
HETATM   30  NAO   D T1001       5.341   3.177  -1.914  1.00 33.95    -0.244 NA
HETATM   31  CAL   D T1001       5.709   4.262  -1.180  1.00 33.68     0.099 A 
ENDBRANCH   7  23
TORSDOF 6
ENDMDL
