MODEL 1
REMARK VINA RESULT:     -10.4      0.000      0.000
REMARK  2 active torsions:
REMARK  status: ('A' for Active; 'I' for Inactive)
REMARK    1  A    between atoms: CAX_24  and  NBD_30 
REMARK    2  A    between atoms: CAY_25  and  CAZ_26 
ROOT
HETATM    1  CAE   D T   1       6.130   3.642  -1.324  1.00 15.33     0.002 A 
HETATM    2  CAF   D T   1       5.083   5.414  -2.518  1.00 33.04     0.002 A 
HETATM    3  CAG   D T   1       6.117   4.403  -0.156  1.00 21.87     0.017 A 
HETATM    4  CAH   D T   1       5.090   6.177  -1.341  1.00 18.39     0.017 A 
HETATM    5  CAK   D T   1       4.853   3.597  -4.844  1.00 18.99     0.102 A 
HETATM    6  CAL   D T   1       7.108   0.147  -6.552  1.00 11.90     0.124 A 
HETATM    7  CAM   D T   1       6.556   2.299  -3.833  1.00 18.90     0.104 A 
HETATM    8  NAS   D T   1       4.929   2.856  -5.940  1.00 18.39    -0.225 NA
HETATM    9  NAT   D T   1       7.397   0.565  -5.305  1.00 12.09    -0.162 NA
HETATM   10  CAV   D T   1       5.599   4.119  -2.525  1.00 21.96     0.003 A 
HETATM   11  CAW   D T   1       5.646   3.338  -3.725  1.00 19.91     0.038 A 
HETATM   12  CAX   D T   1       5.595   5.685  -0.163  1.00 28.57     0.056 A 
HETATM   13  CAZ   D T   1       6.134   0.914  -7.074  1.00 11.86     0.057 A 
HETATM   14  CBC   D T   1       5.808   1.837  -6.060  1.00 11.35     0.165 A 
HETATM   15  NBE   D T   1       6.645   1.520  -4.990  1.00 13.25    -0.211 N 
ENDROOT
BRANCH  13  16
HETATM   16  CAY   D T   1       5.588   0.800  -8.381  1.00 15.42     0.007 A 
HETATM   17  CAD   D T   1       4.322   0.244  -8.533  1.00 12.05     0.021 A 
HETATM   18  CAC   D T   1       3.756   0.038  -9.787  1.00 20.05     0.099 A 
HETATM   19  NAR   D T   1       4.393   0.342 -10.890  1.00 15.05    -0.244 NA
HETATM   20  CBA   D T   1       5.652   0.864 -10.809  1.00 17.37     0.081 A 
HETATM   21  CAI   D T   1       6.326   1.160 -11.978  1.00 17.61     0.019 A 
HETATM   22  CBB   D T   1       6.269   1.098  -9.581  1.00 11.87     0.018 A 
HETATM   23  CAA   D T   1       7.631   1.679 -11.961  1.00 16.02     0.002 A 
HETATM   24  CAB   D T   1       8.233   1.928 -10.746  1.00 12.08     0.000 A 
HETATM   25  CAJ   D T   1       7.572   1.619  -9.576  1.00 13.82     0.002 A 
ENDBRANCH  13  16
BRANCH  12  26
HETATM   26  NBD   D T   1       5.633   6.522   0.955  1.00 22.08    -0.344 N 
HETATM   27  CAP   D T   1       5.162   5.975   2.292  1.00 30.90     0.127 C 
HETATM   28  CAN   D T   1       5.106   6.992   3.473  1.00 24.56     0.144 C 
HETATM   29  NAU   D T   1       5.633   8.322   3.121  1.00 23.51    -0.291 NA
HETATM   30  CAO   D T   1       6.770   8.316   2.178  1.00 28.25     0.144 C 
HETATM   31  CAQ   D T   1       6.375   7.783   0.816  1.00 25.74     0.127 C 
ENDBRANCH  12  26
TORSDOF 2
ENDMDL
MODEL 2
REMARK VINA RESULT:      -9.6      7.509     11.224
REMARK  2 active torsions:
REMARK  status: ('A' for Active; 'I' for Inactive)
REMARK    1  A    between atoms: CAX_24  and  NBD_30 
REMARK    2  A    between atoms: CAY_25  and  CAZ_26 
ROOT
HETATM    1  CAE   D T   1      10.897   7.957  -1.985  1.00 15.33     0.002 A 
HETATM    2  CAF   D T   1      11.537   8.923   0.093  1.00 33.04     0.002 A 
HETATM    3  CAG   D T   1      11.829   8.749  -2.655  1.00 21.87     0.017 A 
HETATM    4  CAH   D T   1      12.460   9.726  -0.593  1.00 18.39     0.017 A 
HETATM    5  CAK   D T   1       9.780   6.964   1.448  1.00 18.99     0.102 A 
HETATM    6  CAL   D T   1       6.013   4.752   0.538  1.00 11.90     0.124 A 
HETATM    7  CAM   D T   1       8.691   6.695  -0.638  1.00 18.90     0.104 A 
HETATM    8  NAS   D T   1       8.849   6.226   2.037  1.00 18.39    -0.225 NA
HETATM    9  NAT   D T   1       6.657   5.386  -0.460  1.00 12.09    -0.162 NA
HETATM   10  CAV   D T   1      10.742   8.011  -0.598  1.00 21.96     0.003 A 
HETATM   11  CAW   D T   1       9.760   7.213   0.075  1.00 19.91     0.038 A 
HETATM   12  CAX   D T   1      12.617   9.645  -1.955  1.00 28.57     0.056 A 
HETATM   13  CAZ   D T   1       6.677   4.934   1.694  1.00 11.86     0.057 A 
HETATM   14  CBC   D T   1       7.802   5.710   1.355  1.00 11.35     0.165 A 
HETATM   15  NBE   D T   1       7.703   5.923  -0.020  1.00 13.25    -0.211 N 
ENDROOT
BRANCH  13  16
HETATM   16  CAY   D T   1       6.284   4.446   2.971  1.00 15.42     0.007 A 
HETATM   17  CAD   D T   1       5.330   5.154   3.694  1.00 12.05     0.021 A 
HETATM   18  CAC   D T   1       4.952   4.774   4.978  1.00 20.05     0.099 A 
HETATM   19  NAR   D T   1       5.486   3.739   5.577  1.00 15.05    -0.244 NA
HETATM   20  CBA   D T   1       6.450   3.021   4.931  1.00 17.37     0.081 A 
HETATM   21  CAI   D T   1       7.025   1.945   5.580  1.00 17.61     0.019 A 
HETATM   22  CBB   D T   1       6.867   3.349   3.642  1.00 11.87     0.018 A 
HETATM   23  CAA   D T   1       8.036   1.179   4.976  1.00 16.02     0.002 A 
HETATM   24  CAB   D T   1       8.434   1.494   3.694  1.00 12.08     0.000 A 
HETATM   25  CAJ   D T   1       7.877   2.577   3.047  1.00 13.82     0.002 A 
ENDBRANCH  13  16
BRANCH  12  26
HETATM   26  NBD   D T   1      13.505  10.522  -2.584  1.00 22.08    -0.344 N 
HETATM   27  CAP   D T   1      13.266  10.881  -4.041  1.00 30.90     0.127 C 
HETATM   28  CAN   D T   1      14.360  11.758  -4.724  1.00 24.56     0.144 C 
HETATM   29  NAU   D T   1      15.417  12.198  -3.796  1.00 23.51    -0.291 NA
HETATM   30  CAO   D T   1      14.962  12.486  -2.420  1.00 28.25     0.144 C 
HETATM   31  CAQ   D T   1      14.450  11.243  -1.720  1.00 25.74     0.127 C 
ENDBRANCH  12  26
TORSDOF 2
ENDMDL
MODEL 3
REMARK VINA RESULT:      -9.3      5.002      5.902
REMARK  2 active torsions:
REMARK  status: ('A' for Active; 'I' for Inactive)
REMARK    1  A    between atoms: CAX_24  and  NBD_30 
REMARK    2  A    between atoms: CAY_25  and  CAZ_26 
ROOT
HETATM    1  CAE   D T   1      10.938   2.594  -2.932  1.00 15.33     0.002 A 
HETATM    2  CAF   D T   1      11.867   3.442  -4.952  1.00 33.04     0.002 A 
HETATM    3  CAG   D T   1      12.034   3.068  -2.213  1.00 21.87     0.017 A 
HETATM    4  CAH   D T   1      12.973   3.900  -4.221  1.00 18.39     0.017 A 
HETATM    5  CAK   D T   1       9.349   2.701  -6.321  1.00 18.99     0.102 A 
HETATM    6  CAL   D T   1       6.171  -0.401  -5.899  1.00 11.90     0.124 A 
HETATM    7  CAM   D T   1       8.942   1.241  -4.502  1.00 18.90     0.104 A 
HETATM    8  NAS   D T   1       8.311   2.193  -6.971  1.00 18.39    -0.225 NA
HETATM    9  NAT   D T   1       7.058  -0.234  -4.900  1.00 12.09    -0.162 NA
HETATM   10  CAV   D T   1      10.818   2.785  -4.311  1.00 21.96     0.003 A 
HETATM   11  CAW   D T   1       9.700   2.267  -5.042  1.00 19.91     0.038 A 
HETATM   12  CAX   D T   1      13.065   3.724  -2.862  1.00 28.57     0.056 A 
HETATM   13  CAZ   D T   1       6.446   0.454  -6.900  1.00 11.86     0.057 A 
HETATM   14  CBC   D T   1       7.559   1.195  -6.456  1.00 11.35     0.165 A 
HETATM   15  NBE   D T   1       7.851   0.697  -5.186  1.00 13.25    -0.211 N 
ENDROOT
BRANCH  13  16
HETATM   16  CAY   D T   1       5.751   0.549  -8.136  1.00 15.42     0.007 A 
HETATM   17  CAD   D T   1       4.377   0.334  -8.150  1.00 12.05     0.021 A 
HETATM   18  CAC   D T   1       3.645   0.341  -9.334  1.00 20.05     0.099 A 
HETATM   19  NAR   D T   1       4.215   0.535 -10.497  1.00 15.05    -0.244 NA
HETATM   20  CBA   D T   1       5.566   0.721 -10.553  1.00 17.37     0.081 A 
HETATM   21  CAI   D T   1       6.163   0.901 -11.786  1.00 17.61     0.019 A 
HETATM   22  CBB   D T   1       6.352   0.730  -9.401  1.00 11.87     0.018 A 
HETATM   23  CAA   D T   1       7.551   1.077 -11.911  1.00 16.02     0.002 A 
HETATM   24  CAB   D T   1       8.323   1.105 -10.770  1.00 12.08     0.000 A 
HETATM   25  CAJ   D T   1       7.737   0.909  -9.537  1.00 13.82     0.002 A 
ENDBRANCH  13  16
BRANCH  12  26
HETATM   26  NBD   D T   1      14.225   4.144  -2.206  1.00 22.08    -0.344 N 
HETATM   27  CAP   D T   1      15.569   3.891  -2.867  1.00 30.90     0.127 C 
HETATM   28  CAN   D T   1      16.831   4.262  -2.031  1.00 24.56     0.144 C 
HETATM   29  NAU   D T   1      16.509   4.915  -0.749  1.00 23.51    -0.291 NA
HETATM   30  CAO   D T   1      15.328   5.802  -0.777  1.00 28.25     0.144 C 
HETATM   31  CAQ   D T   1      14.049   5.036  -1.052  1.00 25.74     0.127 C 
ENDBRANCH  12  26
TORSDOF 2
ENDMDL
MODEL 4
REMARK VINA RESULT:      -9.3      5.622      6.622
REMARK  2 active torsions:
REMARK  status: ('A' for Active; 'I' for Inactive)
REMARK    1  A    between atoms: CAX_24  and  NBD_30 
REMARK    2  A    between atoms: CAY_25  and  CAZ_26 
ROOT
HETATM    1  CAE   D T   1      11.443   4.150  -2.768  1.00 15.33     0.002 A 
HETATM    2  CAF   D T   1      12.513   2.888  -4.478  1.00 33.04     0.002 A 
HETATM    3  CAG   D T   1      12.680   4.598  -2.307  1.00 21.87     0.017 A 
HETATM    4  CAH   D T   1      13.752   3.333  -3.996  1.00 18.39     0.017 A 
HETATM    5  CAK   D T   1       9.836   2.273  -5.581  1.00 18.99     0.102 A 
HETATM    6  CAL   D T   1       5.685   1.752  -4.030  1.00 11.90     0.124 A 
HETATM    7  CAM   D T   1       8.970   2.848  -3.454  1.00 18.90     0.104 A 
HETATM    8  NAS   D T   1       8.642   1.835  -5.957  1.00 18.39    -0.225 NA
HETATM    9  NAT   D T   1       6.622   2.288  -3.225  1.00 12.09    -0.162 NA
HETATM   10  CAV   D T   1      11.328   3.302  -3.873  1.00 21.96     0.003 A 
HETATM   11  CAW   D T   1      10.053   2.825  -4.319  1.00 19.91     0.038 A 
HETATM   12  CAX   D T   1      13.848   4.184  -2.922  1.00 28.57     0.056 A 
HETATM   13  CAZ   D T   1       6.229   1.450  -5.223  1.00 11.86     0.057 A 
HETATM   14  CBC   D T   1       7.575   1.854  -5.127  1.00 11.35     0.165 A 
HETATM   15  NBE   D T   1       7.711   2.381  -3.842  1.00 13.25    -0.211 N 
ENDROOT
BRANCH  13  16
HETATM   16  CAY   D T   1       5.561   0.837  -6.317  1.00 15.42     0.007 A 
HETATM   17  CAD   D T   1       5.229  -0.511  -6.230  1.00 12.05     0.021 A 
HETATM   18  CAC   D T   1       4.639  -1.192  -7.290  1.00 20.05     0.099 A 
HETATM   19  NAR   D T   1       4.379  -0.603  -8.430  1.00 15.05    -0.244 NA
HETATM   20  CBA   D T   1       4.709   0.713  -8.589  1.00 17.37     0.081 A 
HETATM   21  CAI   D T   1       4.454   1.320  -9.803  1.00 17.61     0.019 A 
HETATM   22  CBB   D T   1       5.297   1.449  -7.562  1.00 11.87     0.018 A 
HETATM   23  CAA   D T   1       4.788   2.665 -10.036  1.00 16.02     0.002 A 
HETATM   24  CAB   D T   1       5.353   3.397  -9.013  1.00 12.08     0.000 A 
HETATM   25  CAJ   D T   1       5.627   2.792  -7.804  1.00 13.82     0.002 A 
ENDBRANCH  13  16
BRANCH  12  26
HETATM   26  NBD   D T   1      15.115   4.533  -2.450  1.00 22.08    -0.344 N 
HETATM   27  CAP   D T   1      15.486   4.172  -1.021  1.00 30.90     0.127 C 
HETATM   28  CAN   D T   1      16.862   4.701  -0.511  1.00 24.56     0.144 C 
HETATM   29  NAU   D T   1      17.645   5.388  -1.553  1.00 23.51    -0.291 NA
HETATM   30  CAO   D T   1      17.504   4.828  -2.913  1.00 28.25     0.144 C 
HETATM   31  CAQ   D T   1      16.095   4.985  -3.448  1.00 25.74     0.127 C 
ENDBRANCH  12  26
TORSDOF 2
ENDMDL
MODEL 5
REMARK VINA RESULT:      -9.2      5.977      7.601
REMARK  2 active torsions:
REMARK  status: ('A' for Active; 'I' for Inactive)
REMARK    1  A    between atoms: CAX_24  and  NBD_30 
REMARK    2  A    between atoms: CAY_25  and  CAZ_26 
ROOT
HETATM    1  CAE   D T   1      12.837   3.485  -4.891  1.00 15.33     0.002 A 
HETATM    2  CAF   D T   1      12.250   2.580  -2.771  1.00 33.04     0.002 A 
HETATM    3  CAG   D T   1      14.037   3.965  -4.369  1.00 21.87     0.017 A 
HETATM    4  CAH   D T   1      13.453   3.081  -2.252  1.00 18.39     0.017 A 
HETATM    5  CAK   D T   1       9.901   1.317  -4.056  1.00 18.99     0.102 A 
HETATM    6  CAL   D T   1       7.172   2.178  -7.479  1.00 11.90     0.124 A 
HETATM    7  CAM   D T   1      10.173   2.893  -5.802  1.00 18.90     0.104 A 
HETATM    8  NAS   D T   1       8.751   0.921  -4.583  1.00 18.39    -0.225 NA
HETATM    9  NAT   D T   1       8.312   2.885  -7.357  1.00 12.09    -0.162 NA
HETATM   10  CAV   D T   1      11.925   2.768  -4.113  1.00 21.96     0.003 A 
HETATM   11  CAW   D T   1      10.682   2.306  -4.654  1.00 19.91     0.038 A 
HETATM   12  CAX   D T   1      14.350   3.765  -3.035  1.00 28.57     0.056 A 
HETATM   13  CAZ   D T   1       7.073   1.298  -6.466  1.00 11.86     0.057 A 
HETATM   14  CBC   D T   1       8.243   1.480  -5.704  1.00 11.35     0.165 A 
HETATM   15  NBE   D T   1       8.957   2.484  -6.358  1.00 13.25    -0.211 N 
ENDROOT
BRANCH  13  16
HETATM   16  CAY   D T   1       5.992   0.404  -6.237  1.00 15.42     0.007 A 
HETATM   17  CAD   D T   1       5.696  -0.552  -7.204  1.00 12.05     0.021 A 
HETATM   18  CAC   D T   1       4.610  -1.412  -7.078  1.00 20.05     0.099 A 
HETATM   19  NAR   D T   1       3.801  -1.356  -6.050  1.00 15.05    -0.244 NA
HETATM   20  CBA   D T   1       4.020  -0.418  -5.081  1.00 17.37     0.081 A 
HETATM   21  CAI   D T   1       3.147  -0.350  -4.012  1.00 17.61     0.019 A 
HETATM   22  CBB   D T   1       5.094   0.467  -5.149  1.00 11.87     0.018 A 
HETATM   23  CAA   D T   1       3.307   0.605  -2.994  1.00 16.02     0.002 A 
HETATM   24  CAB   D T   1       4.381   1.467  -3.054  1.00 12.08     0.000 A 
HETATM   25  CAJ   D T   1       5.246   1.416  -4.127  1.00 13.82     0.002 A 
ENDBRANCH  13  16
BRANCH  12  26
HETATM   26  NBD   D T   1      15.496   4.296  -2.440  1.00 22.08    -0.344 N 
HETATM   27  CAP   D T   1      16.542   4.950  -3.327  1.00 30.90     0.127 C 
HETATM   28  CAN   D T   1      17.857   5.407  -2.622  1.00 24.56     0.144 C 
HETATM   29  NAU   D T   1      17.827   5.225  -1.160  1.00 23.51    -0.291 NA
HETATM   30  CAO   D T   1      16.510   5.447  -0.528  1.00 28.25     0.144 C 
HETATM   31  CAQ   D T   1      15.486   4.423  -0.976  1.00 25.74     0.127 C 
ENDBRANCH  12  26
TORSDOF 2
ENDMDL
MODEL 6
REMARK VINA RESULT:      -8.8      7.344     11.633
REMARK  2 active torsions:
REMARK  status: ('A' for Active; 'I' for Inactive)
REMARK    1  A    between atoms: CAX_24  and  NBD_30 
REMARK    2  A    between atoms: CAY_25  and  CAZ_26 
ROOT
HETATM    1  CAE   D T   1      12.821   5.907  -1.761  1.00 15.33     0.002 A 
HETATM    2  CAF   D T   1      13.485   6.749   0.362  1.00 33.04     0.002 A 
HETATM    3  CAG   D T   1      14.047   6.281  -2.308  1.00 21.87     0.017 A 
HETATM    4  CAH   D T   1      14.710   7.135  -0.202  1.00 18.39     0.017 A 
HETATM    5  CAK   D T   1      10.997   5.614   1.496  1.00 18.99     0.102 A 
HETATM    6  CAL   D T   1       6.846   4.759   0.104  1.00 11.90     0.124 A 
HETATM    7  CAM   D T   1      10.160   5.578  -0.718  1.00 18.90     0.104 A 
HETATM    8  NAS   D T   1       9.801   5.284   1.962  1.00 18.39    -0.225 NA
HETATM    9  NAT   D T   1       7.792   5.059  -0.806  1.00 12.09    -0.162 NA
HETATM   10  CAV   D T   1      12.518   6.114  -0.413  1.00 21.96     0.003 A 
HETATM   11  CAW   D T   1      11.242   5.752   0.130  1.00 19.91     0.038 A 
HETATM   12  CAX   D T   1      15.002   6.905  -1.524  1.00 28.57     0.056 A 
HETATM   13  CAZ   D T   1       7.377   4.789   1.340  1.00 11.86     0.057 A 
HETATM   14  CBC   D T   1       8.736   5.107   1.149  1.00 11.35     0.165 A 
HETATM   15  NBE   D T   1       8.894   5.238  -0.231  1.00 13.25    -0.211 N 
ENDROOT
BRANCH  13  16
HETATM   16  CAY   D T   1       6.680   4.561   2.557  1.00 15.42     0.007 A 
HETATM   17  CAD   D T   1       5.714   5.479   2.958  1.00 12.05     0.021 A 
HETATM   18  CAC   D T   1       5.044   5.357   4.171  1.00 20.05     0.099 A 
HETATM   19  NAR   D T   1       5.299   4.380   5.005  1.00 15.05    -0.244 NA
HETATM   20  CBA   D T   1       6.259   3.463   4.683  1.00 17.37     0.081 A 
HETATM   21  CAI   D T   1       6.538   2.450   5.579  1.00 17.61     0.019 A 
HETATM   22  CBB   D T   1       6.960   3.530   3.480  1.00 11.87     0.018 A 
HETATM   23  CAA   D T   1       7.528   1.488   5.315  1.00 16.02     0.002 A 
HETATM   24  CAB   D T   1       8.207   1.545   4.116  1.00 12.08     0.000 A 
HETATM   25  CAJ   D T   1       7.945   2.564   3.225  1.00 13.82     0.002 A 
ENDBRANCH  13  16
BRANCH  12  26
HETATM   26  NBD   D T   1      16.212   7.376  -2.038  1.00 22.08    -0.344 N 
HETATM   27  CAP   D T   1      17.258   6.368  -2.484  1.00 30.90     0.127 C 
HETATM   28  CAN   D T   1      18.635   6.951  -2.926  1.00 24.56     0.144 C 
HETATM   29  NAU   D T   1      18.664   8.424  -2.946  1.00 23.51    -0.291 NA
HETATM   30  CAO   D T   1      17.399   9.070  -3.352  1.00 28.25     0.144 C 
HETATM   31  CAQ   D T   1      16.283   8.808  -2.361  1.00 25.74     0.127 C 
ENDBRANCH  12  26
TORSDOF 2
ENDMDL
MODEL 7
REMARK VINA RESULT:      -8.8      7.351     11.339
REMARK  2 active torsions:
REMARK  status: ('A' for Active; 'I' for Inactive)
REMARK    1  A    between atoms: CAX_24  and  NBD_30 
REMARK    2  A    between atoms: CAY_25  and  CAZ_26 
ROOT
HETATM    1  CAE   D T   1       8.681   2.274  -3.913  1.00 15.33     0.002 A 
HETATM    2  CAF   D T   1      10.041   1.412  -5.664  1.00 33.04     0.002 A 
HETATM    3  CAG   D T   1       7.552   1.689  -4.483  1.00 21.87     0.017 A 
HETATM    4  CAH   D T   1       8.897   0.841  -6.238  1.00 18.39     0.017 A 
HETATM    5  CAK   D T   1      12.413   2.403  -4.194  1.00 18.99     0.102 A 
HETATM    6  CAL   D T   1      13.388   5.748  -1.408  1.00 11.90     0.124 A 
HETATM    7  CAM   D T   1      10.930   3.837  -3.031  1.00 18.90     0.104 A 
HETATM    8  NAS   D T   1      13.450   3.015  -3.642  1.00 18.39    -0.225 NA
HETATM    9  NAT   D T   1      12.097   5.476  -1.677  1.00 12.09    -0.162 NA
HETATM   10  CAV   D T   1       9.952   2.135  -4.476  1.00 21.96     0.003 A 
HETATM   11  CAW   D T   1      11.099   2.767  -3.895  1.00 19.91     0.038 A 
HETATM   12  CAX   D T   1       7.657   0.967  -5.660  1.00 28.57     0.056 A 
HETATM   13  CAZ   D T   1      14.182   4.902  -2.089  1.00 11.86     0.057 A 
HETATM   14  CBC   D T   1      13.303   4.058  -2.794  1.00 11.35     0.165 A 
HETATM   15  NBE   D T   1      12.022   4.491  -2.452  1.00 13.25    -0.211 N 
ENDROOT
BRANCH  13  16
HETATM   16  CAY   D T   1      15.604   4.904  -2.088  1.00 15.42     0.007 A 
HETATM   17  CAD   D T   1      16.275   5.085  -3.293  1.00 12.05     0.021 A 
HETATM   18  CAC   D T   1      17.663   5.027  -3.377  1.00 20.05     0.099 A 
HETATM   19  NAR   D T   1      18.408   4.784  -2.328  1.00 15.05    -0.244 NA
HETATM   20  CBA   D T   1      17.807   4.567  -1.120  1.00 17.37     0.081 A 
HETATM   21  CAI   D T   1      18.599   4.287  -0.024  1.00 17.61     0.019 A 
HETATM   22  CBB   D T   1      16.422   4.618  -0.973  1.00 11.87     0.018 A 
HETATM   23  CAA   D T   1      18.040   4.036   1.240  1.00 16.02     0.002 A 
HETATM   24  CAB   D T   1      16.671   4.104   1.388  1.00 12.08     0.000 A 
HETATM   25  CAJ   D T   1      15.873   4.366   0.294  1.00 13.82     0.002 A 
ENDBRANCH  13  16
BRANCH  12  26
HETATM   26  NBD   D T   1       6.549   0.432  -6.319  1.00 22.08    -0.344 N 
HETATM   27  CAP   D T   1       5.520  -0.339  -5.510  1.00 30.90     0.127 C 
HETATM   28  CAN   D T   1       4.375  -1.022  -6.319  1.00 24.56     0.144 C 
HETATM   29  NAU   D T   1       4.414  -0.712  -7.759  1.00 23.51    -0.291 NA
HETATM   30  CAO   D T   1       4.872   0.653  -8.093  1.00 28.25     0.144 C 
HETATM   31  CAQ   D T   1       6.318   0.880  -7.700  1.00 25.74     0.127 C 
ENDBRANCH  12  26
TORSDOF 2
ENDMDL
MODEL 8
REMARK VINA RESULT:      -8.6      7.764     11.437
REMARK  2 active torsions:
REMARK  status: ('A' for Active; 'I' for Inactive)
REMARK    1  A    between atoms: CAX_24  and  NBD_30 
REMARK    2  A    between atoms: CAY_25  and  CAZ_26 
ROOT
HETATM    1  CAE   D T   1       9.096   2.484  -3.833  1.00 15.33     0.002 A 
HETATM    2  CAF   D T   1      10.632   1.312  -5.221  1.00 33.04     0.002 A 
HETATM    3  CAG   D T   1       8.023   1.921  -4.521  1.00 21.87     0.017 A 
HETATM    4  CAH   D T   1       9.545   0.764  -5.917  1.00 18.39     0.017 A 
HETATM    5  CAK   D T   1      12.819   2.292  -3.483  1.00 18.99     0.102 A 
HETATM    6  CAL   D T   1      13.649   5.869  -0.950  1.00 11.90     0.124 A 
HETATM    7  CAM   D T   1      11.313   3.967  -2.753  1.00 18.90     0.104 A 
HETATM    8  NAS   D T   1      13.808   2.887  -2.831  1.00 18.39    -0.225 NA
HETATM    9  NAT   D T   1      12.398   5.666  -1.405  1.00 12.09    -0.162 NA
HETATM   10  CAV   D T   1      10.422   2.181  -4.152  1.00 21.96     0.003 A 
HETATM   11  CAW   D T   1      11.516   2.789  -3.455  1.00 19.91     0.038 A 
HETATM   12  CAX   D T   1       8.247   1.055  -5.577  1.00 28.57     0.056 A 
HETATM   13  CAZ   D T   1      14.457   4.888  -1.389  1.00 11.86     0.057 A 
HETATM   14  CBC   D T   1      13.626   4.033  -2.139  1.00 11.35     0.165 A 
HETATM   15  NBE   D T   1      12.354   4.602  -2.070  1.00 13.25    -0.211 N 
ENDROOT
BRANCH  13  16
HETATM   16  CAY   D T   1      15.854   4.781  -1.145  1.00 15.42     0.007 A 
HETATM   17  CAD   D T   1      16.285   4.107  -0.008  1.00 12.05     0.021 A 
HETATM   18  CAC   D T   1      17.632   4.025   0.331  1.00 20.05     0.099 A 
HETATM   19  NAR   D T   1      18.562   4.592  -0.396  1.00 15.05    -0.244 NA
HETATM   20  CBA   D T   1      18.200   5.295  -1.510  1.00 17.37     0.081 A 
HETATM   21  CAI   D T   1      19.186   5.910  -2.258  1.00 17.61     0.019 A 
HETATM   22  CBB   D T   1      16.868   5.408  -1.903  1.00 11.87     0.018 A 
HETATM   23  CAA   D T   1      18.875   6.663  -3.402  1.00 16.02     0.002 A 
HETATM   24  CAB   D T   1      17.558   6.758  -3.800  1.00 12.08     0.000 A 
HETATM   25  CAJ   D T   1      16.568   6.161  -3.048  1.00 13.82     0.002 A 
ENDBRANCH  13  16
BRANCH  12  26
HETATM   26  NBD   D T   1       7.213   0.529  -6.355  1.00 22.08    -0.344 N 
HETATM   27  CAP   D T   1       6.054  -0.164  -5.657  1.00 30.90     0.127 C 
HETATM   28  CAN   D T   1       4.998  -0.843  -6.582  1.00 24.56     0.144 C 
HETATM   29  NAU   D T   1       5.240  -0.605  -8.016  1.00 23.51    -0.291 NA
HETATM   30  CAO   D T   1       5.795   0.724  -8.345  1.00 28.25     0.144 C 
HETATM   31  CAQ   D T   1       7.185   0.916  -7.773  1.00 25.74     0.127 C 
ENDBRANCH  12  26
TORSDOF 2
ENDMDL
MODEL 9
REMARK VINA RESULT:      -8.3      6.247     11.371
REMARK  2 active torsions:
REMARK  status: ('A' for Active; 'I' for Inactive)
REMARK    1  A    between atoms: CAX_24  and  NBD_30 
REMARK    2  A    between atoms: CAY_25  and  CAZ_26 
ROOT
HETATM    1  CAE   D T   1       9.646   2.622  -6.137  1.00 15.33     0.002 A 
HETATM    2  CAF   D T   1       8.868   1.578  -4.146  1.00 33.04     0.002 A 
HETATM    3  CAG   D T   1       8.578   2.083  -6.853  1.00 21.87     0.017 A 
HETATM    4  CAH   D T   1       7.806   1.029  -4.878  1.00 18.39     0.017 A 
HETATM    5  CAK   D T   1      10.970   3.041  -2.659  1.00 18.99     0.102 A 
HETATM    6  CAL   D T   1      15.063   4.622  -3.463  1.00 11.90     0.124 A 
HETATM    7  CAM   D T   1      12.062   3.323  -4.741  1.00 18.90     0.104 A 
HETATM    8  NAS   D T   1      12.026   3.535  -2.030  1.00 18.39    -0.225 NA
HETATM    9  NAT   D T   1      14.302   4.220  -4.499  1.00 12.09    -0.162 NA
HETATM   10  CAV   D T   1       9.807   2.399  -4.767  1.00 21.96     0.003 A 
HETATM   11  CAW   D T   1      10.926   2.934  -4.050  1.00 19.91     0.038 A 
HETATM   12  CAX   D T   1       7.649   1.276  -6.220  1.00 28.57     0.056 A 
HETATM   13  CAZ   D T   1      14.393   4.445  -2.311  1.00 11.86     0.057 A 
HETATM   14  CBC   D T   1      13.141   3.922  -2.689  1.00 11.35     0.165 A 
HETATM   15  NBE   D T   1      13.182   3.837  -4.081  1.00 13.25    -0.211 N 
ENDROOT
BRANCH  13  16
HETATM   16  CAY   D T   1      14.883   4.720  -1.005  1.00 15.42     0.007 A 
HETATM   17  CAD   D T   1      15.801   3.844  -0.435  1.00 12.05     0.021 A 
HETATM   18  CAC   D T   1      16.269   4.014   0.864  1.00 20.05     0.099 A 
HETATM   19  NAR   D T   1      15.857   4.998   1.623  1.00 15.05    -0.244 NA
HETATM   20  CBA   D T   1      14.933   5.875   1.131  1.00 17.37     0.081 A 
HETATM   21  CAI   D T   1      14.486   6.897   1.947  1.00 17.61     0.019 A 
HETATM   22  CBB   D T   1      14.432   5.760  -0.164  1.00 11.87     0.018 A 
HETATM   23  CAA   D T   1      13.522   7.819   1.507  1.00 16.02     0.002 A 
HETATM   24  CAB   D T   1      13.041   7.715   0.219  1.00 12.08     0.000 A 
HETATM   25  CAJ   D T   1      13.470   6.687  -0.594  1.00 13.82     0.002 A 
ENDBRANCH  13  16
BRANCH  12  26
HETATM   26  NBD   D T   1       6.609   0.642  -6.904  1.00 22.08    -0.344 N 
HETATM   27  CAP   D T   1       6.656   0.595  -8.422  1.00 30.90     0.127 C 
HETATM   28  CAN   D T   1       5.407  -0.009  -9.134  1.00 24.56     0.144 C 
HETATM   29  NAU   D T   1       4.407  -0.549  -8.196  1.00 23.51    -0.291 NA
HETATM   30  CAO   D T   1       4.963  -1.173  -6.977  1.00 28.25     0.144 C 
HETATM   31  CAQ   D T   1       5.681  -0.166  -6.101  1.00 25.74     0.127 C 
ENDBRANCH  12  26
TORSDOF 2
ENDMDL
