MODEL 1
REMARK VINA RESULT:      -7.3      0.000      0.000
REMARK  2 active torsions:
REMARK  status: ('A' for Active; 'I' for Inactive)
REMARK    1  A    between atoms: C5_4  and  O7_13 
REMARK    2  A    between atoms: C8_10  and  O7_13 
ROOT
HETATM    1  O7    D T 600     -21.033   1.236  13.876  1.00 18.03    -0.309 OA
ENDROOT
BRANCH   1   2
HETATM    2  C5    D T 600     -19.751   0.724  13.611  1.00 18.33     0.099 A 
HETATM    3  C6    D T 600     -19.459  -0.162  12.462  1.00 17.53     0.132 A 
HETATM    4  C1    D T 600     -18.111  -0.677  12.231  1.00 16.53     0.089 A 
HETATM    5  O17   D T 600     -20.455  -0.528  11.580  1.00 20.49    -0.193 OA
HETATM    6  C2    D T 600     -17.063  -0.299  13.155  1.00 14.58     0.020 A 
HETATM    7  C3    D T 600     -17.344   0.574  14.291  1.00 14.14     0.041 A 
HETATM    8 CL14   D T 600     -15.503  -0.841  12.952  1.00  1.00    -0.091 Cl
HETATM    9  C4    D T 600     -18.688   1.084  14.515  1.00 16.13     0.059 A 
ENDBRANCH   1   2
BRANCH   1  10
HETATM   10  C8    D T 600     -21.472   2.528  13.402  1.00 16.10     0.106 A 
HETATM   11  C9    D T 600     -22.989   2.820  13.550  1.00 14.15     0.063 A 
HETATM   12  C10   D T 600     -23.519   4.090  13.085  1.00 14.71     0.078 A 
HETATM   13 CL16   D T 600     -24.030   1.697  14.222  1.00  1.00    -0.085 Cl
HETATM   14  C11   D T 600     -22.538   5.070  12.477  1.00 14.35     0.041 A 
HETATM   15  C12   D T 600     -21.175   4.742  12.381  1.00 18.52     0.009 A 
HETATM   16 CL15   D T 600     -23.176   6.530  11.932  1.00  1.63    -0.087 Cl
HETATM   17  C13   D T 600     -20.618   3.574  12.793  1.00 15.99     0.026 A 
ENDBRANCH   1  10
TORSDOF 2
ENDMDL
MODEL 2
REMARK VINA RESULT:      -7.0      1.761      6.372
REMARK  2 active torsions:
REMARK  status: ('A' for Active; 'I' for Inactive)
REMARK    1  A    between atoms: C5_4  and  O7_13 
REMARK    2  A    between atoms: C8_10  and  O7_13 
ROOT
HETATM    1  O7    D T 600     -21.971   2.085  13.656  1.00 18.03    -0.309 OA
ENDROOT
BRANCH   1   2
HETATM    2  C5    D T 600     -22.450   3.286  13.105  1.00 18.33     0.099 A 
HETATM    3  C6    D T 600     -21.918   4.615  13.484  1.00 17.53     0.132 A 
HETATM    4  C1    D T 600     -22.453   5.838  12.889  1.00 16.53     0.089 A 
HETATM    5  O17   D T 600     -20.904   4.732  14.411  1.00 20.49    -0.193 OA
HETATM    6  C2    D T 600     -23.520   5.720  11.918  1.00 14.58     0.020 A 
HETATM    7  C3    D T 600     -24.049   4.413  11.540  1.00 14.14     0.041 A 
HETATM    8 CL14   D T 600     -24.174   7.068  11.193  1.00  1.00    -0.091 Cl
HETATM    9  C4    D T 600     -23.511   3.199  12.135  1.00 16.13     0.059 A 
ENDBRANCH   1   2
BRANCH   1  10
HETATM   10  C8    D T 600     -20.682   1.528  13.316  1.00 16.10     0.106 A 
HETATM   11  C9    D T 600     -20.243   0.292  14.146  1.00 14.15     0.063 A 
HETATM   12  C10   D T 600     -18.954  -0.323  13.880  1.00 14.71     0.078 A 
HETATM   13 CL16   D T 600     -21.217  -0.341  15.348  1.00  1.00    -0.085 Cl
HETATM   14  C11   D T 600     -18.104   0.291  12.787  1.00 14.35     0.041 A 
HETATM   15  C12   D T 600     -18.569   1.407  12.070  1.00 18.52     0.009 A 
HETATM   16 CL15   D T 600     -16.609  -0.429  12.505  1.00  1.63    -0.087 Cl
HETATM   17  C13   D T 600     -19.759   2.028  12.271  1.00 15.99     0.026 A 
ENDBRANCH   1  10
TORSDOF 2
ENDMDL
MODEL 3
REMARK VINA RESULT:      -7.0      1.370      6.152
REMARK  2 active torsions:
REMARK  status: ('A' for Active; 'I' for Inactive)
REMARK    1  A    between atoms: C5_4  and  O7_13 
REMARK    2  A    between atoms: C8_10  and  O7_13 
ROOT
HETATM    1  O7    D T 600     -21.235   1.197  14.104  1.00 18.03    -0.309 OA
ENDROOT
BRANCH   1   2
HETATM    2  C5    D T 600     -21.744   2.404  13.597  1.00 18.33     0.099 A 
HETATM    3  C6    D T 600     -23.179   2.766  13.663  1.00 17.53     0.132 A 
HETATM    4  C1    D T 600     -23.663   4.031  13.115  1.00 16.53     0.089 A 
HETATM    5  O17   D T 600     -24.096   1.914  14.241  1.00 20.49    -0.193 OA
HETATM    6  C2    D T 600     -22.704   4.927  12.504  1.00 14.58     0.020 A 
HETATM    7  C3    D T 600     -21.288   4.577  12.436  1.00 14.14     0.041 A 
HETATM    8 CL14   D T 600     -23.180   6.388  11.866  1.00  1.00    -0.091 Cl
HETATM    9  C4    D T 600     -20.812   3.316  12.985  1.00 16.13     0.059 A 
ENDBRANCH   1   2
BRANCH   1  10
HETATM   10  C8    D T 600     -19.891   0.741  13.838  1.00 16.10     0.106 A 
HETATM   11  C9    D T 600     -19.745  -0.292  12.688  1.00 14.15     0.063 A 
HETATM   12  C10   D T 600     -18.430  -0.814  12.363  1.00 14.71     0.078 A 
HETATM   13 CL16   D T 600     -21.072  -0.825  11.823  1.00  1.00    -0.085 Cl
HETATM   14  C11   D T 600     -17.260  -0.307  13.180  1.00 14.35     0.041 A 
HETATM   15  C12   D T 600     -17.465   0.634  14.203  1.00 18.52     0.009 A 
HETATM   16 CL15   D T 600     -15.747  -0.937  12.795  1.00  1.63    -0.087 Cl
HETATM   17  C13   D T 600     -18.666   1.159  14.557  1.00 15.99     0.026 A 
ENDBRANCH   1  10
TORSDOF 2
ENDMDL
MODEL 4
REMARK VINA RESULT:      -6.9      2.681      7.012
REMARK  2 active torsions:
REMARK  status: ('A' for Active; 'I' for Inactive)
REMARK    1  A    between atoms: C5_4  and  O7_13 
REMARK    2  A    between atoms: C8_10  and  O7_13 
ROOT
HETATM    1  O7    D T 600     -23.143   4.151  13.952  1.00 18.03    -0.309 OA
ENDROOT
BRANCH   1   2
HETATM    2  C5    D T 600     -23.871   4.922  13.030  1.00 18.33     0.099 A 
HETATM    3  C6    D T 600     -23.510   6.315  12.681  1.00 17.53     0.132 A 
HETATM    4  C1    D T 600     -24.302   7.081  11.721  1.00 16.53     0.089 A 
HETATM    5  O17   D T 600     -22.416   6.927  13.257  1.00 20.49    -0.193 OA
HETATM    6  C2    D T 600     -25.453   6.444  11.116  1.00 14.58     0.020 A 
HETATM    7  C3    D T 600     -25.815   5.071  11.456  1.00 14.14     0.041 A 
HETATM    8 CL14   D T 600     -26.398   7.251  10.009  1.00  1.00    -0.091 Cl
HETATM    9  C4    D T 600     -25.021   4.313  12.412  1.00 16.13     0.059 A 
ENDBRANCH   1   2
BRANCH   1  10
HETATM   10  C8    D T 600     -21.915   3.474  13.608  1.00 16.10     0.106 A 
HETATM   11  C9    D T 600     -22.055   1.972  13.240  1.00 14.15     0.063 A 
HETATM   12  C10   D T 600     -20.867   1.210  12.895  1.00 14.71     0.078 A 
HETATM   13 CL16   D T 600     -23.542   1.209  13.245  1.00  1.00    -0.085 Cl
HETATM   14  C11   D T 600     -19.542   1.943  12.913  1.00 14.35     0.041 A 
HETATM   15  C12   D T 600     -19.491   3.307  13.250  1.00 18.52     0.009 A 
HETATM   16 CL15   D T 600     -18.178   1.037  12.524  1.00  1.63    -0.087 Cl
HETATM   17  C13   D T 600     -20.561   4.073  13.583  1.00 15.99     0.026 A 
ENDBRANCH   1  10
TORSDOF 2
ENDMDL
MODEL 5
REMARK VINA RESULT:      -6.9      2.471      3.666
REMARK  2 active torsions:
REMARK  status: ('A' for Active; 'I' for Inactive)
REMARK    1  A    between atoms: C5_4  and  O7_13 
REMARK    2  A    between atoms: C8_10  and  O7_13 
ROOT
HETATM    1  O7    D T 600     -22.945   3.993  13.914  1.00 18.03    -0.309 OA
ENDROOT
BRANCH   1   2
HETATM    2  C5    D T 600     -21.839   3.209  13.547  1.00 18.33     0.099 A 
HETATM    3  C6    D T 600     -21.951   1.780  13.176  1.00 17.53     0.132 A 
HETATM    4  C1    D T 600     -20.770   1.002  12.807  1.00 16.53     0.089 A 
HETATM    5  O17   D T 600     -23.176   1.145  13.171  1.00 20.49    -0.193 OA
HETATM    6  C2    D T 600     -19.482   1.663  12.814  1.00 14.58     0.020 A 
HETATM    7  C3    D T 600     -19.364   3.071  13.179  1.00 14.14     0.041 A 
HETATM    8 CL14   D T 600     -18.095   0.844  12.399  1.00  1.00    -0.091 Cl
HETATM    9  C4    D T 600     -20.544   3.841  13.544  1.00 16.13     0.059 A 
ENDBRANCH   1   2
BRANCH   1  10
HETATM   10  C8    D T 600     -23.799   4.644  12.948  1.00 16.10     0.106 A 
HETATM   11  C9    D T 600     -23.444   6.119  12.620  1.00 14.15     0.063 A 
HETATM   12  C10   D T 600     -24.259   6.854  11.669  1.00 14.71     0.078 A 
HETATM   13 CL16   D T 600     -22.149   6.885  13.349  1.00  1.00    -0.085 Cl
HETATM   14  C11   D T 600     -25.425   6.119  11.042  1.00 14.35     0.041 A 
HETATM   15  C12   D T 600     -25.684   4.780  11.380  1.00 18.52     0.009 A 
HETATM   16 CL15   D T 600     -26.365   6.994   9.952  1.00  1.63    -0.087 Cl
HETATM   17  C13   D T 600     -24.963   4.040  12.260  1.00 15.99     0.026 A 
ENDBRANCH   1  10
TORSDOF 2
ENDMDL
MODEL 6
REMARK VINA RESULT:      -6.8      2.704      3.662
REMARK  2 active torsions:
REMARK  status: ('A' for Active; 'I' for Inactive)
REMARK    1  A    between atoms: C5_4  and  O7_13 
REMARK    2  A    between atoms: C8_10  and  O7_13 
ROOT
HETATM    1  O7    D T 600     -20.547   1.279  13.959  1.00 18.03    -0.309 OA
ENDROOT
BRANCH   1   2
HETATM    2  C5    D T 600     -21.092  -0.010  14.082  1.00 18.33     0.099 A 
HETATM    3  C6    D T 600     -21.122  -0.983  12.967  1.00 17.53     0.132 A 
HETATM    4  C1    D T 600     -21.706  -2.312  13.141  1.00 16.53     0.089 A 
HETATM    5  O17   D T 600     -20.600  -0.659  11.732  1.00 20.49    -0.193 OA
HETATM    6  C2    D T 600     -22.257  -2.656  14.434  1.00 14.58     0.020 A 
HETATM    7  C3    D T 600     -22.231  -1.702  15.538  1.00 14.14     0.041 A 
HETATM    8 CL14   D T 600     -22.933  -4.152  14.709  1.00  1.00    -0.091 Cl
HETATM    9  C4    D T 600     -21.647  -0.381  15.359  1.00 16.13     0.059 A 
ENDBRANCH   1   2
BRANCH   1  10
HETATM   10  C8    D T 600     -21.289   2.394  13.420  1.00 16.10     0.106 A 
HETATM   11  C9    D T 600     -20.440   3.606  12.950  1.00 14.15     0.063 A 
HETATM   12  C10   D T 600     -21.107   4.776  12.408  1.00 14.71     0.078 A 
HETATM   13 CL16   D T 600     -18.773   3.597  13.068  1.00  1.00    -0.085 Cl
HETATM   14  C11   D T 600     -22.619   4.740  12.330  1.00 14.35     0.041 A 
HETATM   15  C12   D T 600     -23.324   3.605  12.768  1.00 18.52     0.009 A 
HETATM   16 CL15   D T 600     -23.372   6.112  11.712  1.00  1.63    -0.087 Cl
HETATM   17  C13   D T 600     -22.762   2.483  13.285  1.00 15.99     0.026 A 
ENDBRANCH   1  10
TORSDOF 2
ENDMDL
MODEL 7
REMARK VINA RESULT:      -6.8      2.509      6.714
REMARK  2 active torsions:
REMARK  status: ('A' for Active; 'I' for Inactive)
REMARK    1  A    between atoms: C5_4  and  O7_13 
REMARK    2  A    between atoms: C8_10  and  O7_13 
ROOT
HETATM    1  O7    D T 600     -22.166   4.213  13.761  1.00 18.03    -0.309 OA
ENDROOT
BRANCH   1   2
HETATM    2  C5    D T 600     -23.131   4.913  13.017  1.00 18.33     0.099 A 
HETATM    3  C6    D T 600     -24.501   4.399  12.788  1.00 17.53     0.132 A 
HETATM    4  C1    D T 600     -25.469   5.161  12.000  1.00 16.53     0.089 A 
HETATM    5  O17   D T 600     -24.898   3.187  13.311  1.00 20.49    -0.193 OA
HETATM    6  C2    D T 600     -25.056   6.432  11.447  1.00 14.58     0.020 A 
HETATM    7  C3    D T 600     -23.707   6.944  11.668  1.00 14.14     0.041 A 
HETATM    8 CL14   D T 600     -26.105   7.358  10.546  1.00  1.00    -0.091 Cl
HETATM    9  C4    D T 600     -22.748   6.182  12.454  1.00 16.13     0.059 A 
ENDBRANCH   1   2
BRANCH   1  10
HETATM   10  C8    D T 600     -21.218   3.306  13.157  1.00 16.10     0.106 A 
HETATM   11  C9    D T 600     -21.382   1.809  13.534  1.00 14.15     0.063 A 
HETATM   12  C10   D T 600     -20.461   0.830  12.983  1.00 14.71     0.078 A 
HETATM   13 CL16   D T 600     -22.589   1.301  14.573  1.00  1.00    -0.085 Cl
HETATM   14  C11   D T 600     -19.380   1.341  12.054  1.00 14.35     0.041 A 
HETATM   15  C12   D T 600     -19.295   2.711  11.750  1.00 18.52     0.009 A 
HETATM   16 CL15   D T 600     -18.316   0.191  11.437  1.00  1.63    -0.087 Cl
HETATM   17  C13   D T 600     -20.121   3.674  12.233  1.00 15.99     0.026 A 
ENDBRANCH   1  10
TORSDOF 2
ENDMDL
MODEL 8
REMARK VINA RESULT:      -6.8      2.843      7.058
REMARK  2 active torsions:
REMARK  status: ('A' for Active; 'I' for Inactive)
REMARK    1  A    between atoms: C5_4  and  O7_13 
REMARK    2  A    between atoms: C8_10  and  O7_13 
ROOT
HETATM    1  O7    D T 600     -21.809   4.139  11.943  1.00 18.03    -0.309 OA
ENDROOT
BRANCH   1   2
HETATM    2  C5    D T 600     -22.871   5.056  12.028  1.00 18.33     0.099 A 
HETATM    3  C6    D T 600     -24.132   4.901  11.269  1.00 17.53     0.132 A 
HETATM    4  C1    D T 600     -25.207   5.884  11.384  1.00 16.53     0.089 A 
HETATM    5  O17   D T 600     -24.325   3.823  10.430  1.00 20.49    -0.193 OA
HETATM    6  C2    D T 600     -25.009   7.019  12.261  1.00 14.58     0.020 A 
HETATM    7  C3    D T 600     -23.767   7.178  13.012  1.00 14.14     0.041 A 
HETATM    8 CL14   D T 600     -26.190   8.176  12.448  1.00  1.00    -0.091 Cl
HETATM    9  C4    D T 600     -22.702   6.194  12.894  1.00 16.13     0.059 A 
ENDBRANCH   1   2
BRANCH   1  10
HETATM   10  C8    D T 600     -21.737   2.949  12.757  1.00 16.10     0.106 A 
HETATM   11  C9    D T 600     -20.402   2.159  12.680  1.00 14.15     0.063 A 
HETATM   12  C10   D T 600     -20.249   0.941  13.456  1.00 14.71     0.078 A 
HETATM   13 CL16   D T 600     -19.141   2.674  11.711  1.00  1.00    -0.085 Cl
HETATM   14  C11   D T 600     -21.422   0.511  14.311  1.00 14.35     0.041 A 
HETATM   15  C12   D T 600     -22.599   1.279  14.339  1.00 18.52     0.009 A 
HETATM   16 CL15   D T 600     -21.227  -0.911  15.191  1.00  1.63    -0.087 Cl
HETATM   17  C13   D T 600     -22.806   2.423  13.637  1.00 15.99     0.026 A 
ENDBRANCH   1  10
TORSDOF 2
ENDMDL
MODEL 9
REMARK VINA RESULT:      -6.8      2.978      4.029
REMARK  2 active torsions:
REMARK  status: ('A' for Active; 'I' for Inactive)
REMARK    1  A    between atoms: C5_4  and  O7_13 
REMARK    2  A    between atoms: C8_10  and  O7_13 
ROOT
HETATM    1  O7    D T 600     -21.649   3.561  12.642  1.00 18.03    -0.309 OA
ENDROOT
BRANCH   1   2
HETATM    2  C5    D T 600     -21.811   2.345  13.328  1.00 18.33     0.099 A 
HETATM    3  C6    D T 600     -20.930   1.174  13.112  1.00 17.53     0.132 A 
HETATM    4  C1    D T 600     -21.142  -0.073  13.844  1.00 16.53     0.089 A 
HETATM    5  O17   D T 600     -19.889   1.230  12.210  1.00 20.49    -0.193 OA
HETATM    6  C2    D T 600     -22.236  -0.137  14.789  1.00 14.58     0.020 A 
HETATM    7  C3    D T 600     -23.108   1.013  15.007  1.00 14.14     0.041 A 
HETATM    8 CL14   D T 600     -22.533  -1.521  15.665  1.00  1.00    -0.091 Cl
HETATM    9  C4    D T 600     -22.891   2.252  14.276  1.00 16.13     0.059 A 
ENDBRANCH   1   2
BRANCH   1  10
HETATM   10  C8    D T 600     -22.758   4.295  12.079  1.00 16.10     0.106 A 
HETATM   11  C9    D T 600     -22.846   5.793  12.478  1.00 14.15     0.063 A 
HETATM   12  C10   D T 600     -23.939   6.602  11.968  1.00 14.71     0.078 A 
HETATM   13 CL16   D T 600     -21.716   6.491  13.492  1.00  1.00    -0.085 Cl
HETATM   14  C11   D T 600     -24.942   5.922  11.060  1.00 14.35     0.041 A 
HETATM   15  C12   D T 600     -24.796   4.562  10.735  1.00 18.52     0.009 A 
HETATM   16 CL15   D T 600     -26.208   6.876  10.492  1.00  1.63    -0.087 Cl
HETATM   17  C13   D T 600     -23.801   3.752  11.178  1.00 15.99     0.026 A 
ENDBRANCH   1  10
TORSDOF 2
ENDMDL
