MODEL 1
REMARK VINA RESULT:    -7.676      0.000      0.000
REMARK INTER + INTRA:         -12.218
REMARK INTER:                 -11.265
REMARK INTRA:                  -0.953
REMARK UNBOUND:                -0.953
REMARK  8 active torsions:
REMARK  status: ('A' for Active; 'I' for Inactive)
REMARK    1  A    between atoms: C3_5  and  N2_12 
REMARK    2  A    between atoms: N2_12  and  C10_13 
REMARK    3  A    between atoms: C10_13  and  C11_14 
REMARK    4  A    between atoms: C11_14  and  C12_15 
REMARK    5  A    between atoms: C12_15  and  C13_16 
REMARK    6  A    between atoms: C13_16  and  N3_17 
REMARK    7  A    between atoms: N3_17  and  C14_18 
REMARK    8  A    between atoms: N3_17  and  C16_20 
ROOT
HETATM    1 CL     D T1001      -1.922  -6.468  12.353  1.00 22.69    -0.082 Cl
HETATM    2  N1    D T1001      -5.807  -4.695   9.480  1.00 34.43    -0.244 NA
HETATM    3  C1    D T1001      -6.505  -3.733   8.841  1.00 35.26     0.101 A 
HETATM    4  C2    D T1001      -6.105  -2.404   8.870  1.00 34.24     0.039 A 
HETATM    5  C3    D T1001      -4.924  -1.980   9.618  1.00 31.96     0.079 A 
HETATM    6  C4    D T1001      -4.157  -3.023  10.331  1.00 33.68     0.035 A 
HETATM    7  C5    D T1001      -2.944  -2.794  11.115  1.00 34.90     0.004 A 
HETATM    8  C6    D T1001      -2.269  -3.849  11.745  1.00 32.93     0.012 A 
HETATM    9  C7    D T1001      -2.778  -5.180  11.606  1.00 31.88     0.059 A 
HETATM   10  C8    D T1001      -3.937  -5.462  10.865  1.00 32.37     0.031 A 
HETATM   11  C9    D T1001      -4.636  -4.404  10.222  1.00 35.42     0.084 A 
ENDROOT
BRANCH   5  12
HETATM   12  N2    D T1001      -4.507  -0.676   9.667  1.00 30.60    -0.273 NA
BRANCH  12  13
HETATM   13  C10   D T1001      -5.355   0.552   9.826  1.00 29.84     0.103 C 
HETATM   14  C18   D T1001      -5.673   1.155   8.465  1.00 30.59     0.026 C 
BRANCH  13  15
HETATM   15  C11   D T1001      -4.658   1.538  10.775  1.00 31.56     0.026 C 
BRANCH  15  16
HETATM   16  C12   D T1001      -3.219   1.227  11.145  1.00 32.62     0.037 C 
BRANCH  16  17
HETATM   17  C13   D T1001      -2.285   2.161  10.390  1.00 31.65     0.250 C 
BRANCH  17  18
HETATM   18  N3    D T1001      -0.866   2.128  10.886  1.00 36.76     0.137 N 
BRANCH  18  19
HETATM   19  C14   D T1001      -0.223   0.730  10.751  1.00 36.54     0.250 C 
HETATM   20  C15   D T1001       0.238   0.028  12.024  1.00 37.02     0.037 C 
ENDBRANCH  18  19
BRANCH  18  21
HETATM   21  C16   D T1001      -0.049   3.304  10.430  1.00 33.74     0.250 C 
HETATM   22  C17   D T1001       0.804   3.930  11.485  1.00 35.69     0.037 C 
ENDBRANCH  18  21
ENDBRANCH  17  18
ENDBRANCH  16  17
ENDBRANCH  15  16
ENDBRANCH  13  15
ENDBRANCH  12  13
ENDBRANCH   5  12
TORSDOF 8
ENDMDL
MODEL 2
REMARK VINA RESULT:    -7.667      0.822      1.298
REMARK INTER + INTRA:         -12.206
REMARK INTER:                 -11.219
REMARK INTRA:                  -0.986
REMARK UNBOUND:                -0.953
REMARK  8 active torsions:
REMARK  status: ('A' for Active; 'I' for Inactive)
REMARK    1  A    between atoms: C3_5  and  N2_12 
REMARK    2  A    between atoms: N2_12  and  C10_13 
REMARK    3  A    between atoms: C10_13  and  C11_14 
REMARK    4  A    between atoms: C11_14  and  C12_15 
REMARK    5  A    between atoms: C12_15  and  C13_16 
REMARK    6  A    between atoms: C13_16  and  N3_17 
REMARK    7  A    between atoms: N3_17  and  C14_18 
REMARK    8  A    between atoms: N3_17  and  C16_20 
ROOT
HETATM    1 CL     D T1001      -1.831  -6.446  12.313  1.00 22.69    -0.082 Cl
HETATM    2  N1    D T1001      -5.763  -4.672   9.507  1.00 34.43    -0.244 NA
HETATM    3  C1    D T1001      -6.474  -3.709   8.885  1.00 35.26     0.101 A 
HETATM    4  C2    D T1001      -6.081  -2.378   8.918  1.00 34.24     0.039 A 
HETATM    5  C3    D T1001      -4.892  -1.954   9.654  1.00 31.96     0.079 A 
HETATM    6  C4    D T1001      -4.111  -2.998  10.348  1.00 33.68     0.035 A 
HETATM    7  C5    D T1001      -2.889  -2.769  11.118  1.00 34.90     0.004 A 
HETATM    8  C6    D T1001      -2.199  -3.825  11.731  1.00 32.93     0.012 A 
HETATM    9  C7    D T1001      -2.704  -5.158  11.588  1.00 31.88     0.059 A 
HETATM   10  C8    D T1001      -3.870  -5.440  10.861  1.00 32.37     0.031 A 
HETATM   11  C9    D T1001      -4.584  -4.381  10.236  1.00 35.42     0.084 A 
ENDROOT
BRANCH   5  12
HETATM   12  N2    D T1001      -4.481  -0.648   9.707  1.00 30.60    -0.273 NA
BRANCH  12  13
HETATM   13  C10   D T1001      -5.334   0.575   9.887  1.00 29.84     0.103 C 
HETATM   14  C18   D T1001      -5.702   1.166   8.533  1.00 30.59     0.026 C 
BRANCH  13  15
HETATM   15  C11   D T1001      -4.614   1.572  10.806  1.00 31.56     0.026 C 
BRANCH  15  16
HETATM   16  C12   D T1001      -3.137   1.325  11.058  1.00 32.62     0.037 C 
BRANCH  16  17
HETATM   17  C13   D T1001      -2.308   2.266  10.197  1.00 31.65     0.250 C 
BRANCH  17  18
HETATM   18  N3    D T1001      -0.826   2.138  10.416  1.00 36.76     0.137 N 
BRANCH  18  19
HETATM   19  C14   D T1001      -0.476   1.662  11.843  1.00 36.54     0.250 C 
HETATM   20  C15   D T1001      -0.187   2.721  12.901  1.00 37.02     0.037 C 
ENDBRANCH  18  19
BRANCH  18  21
HETATM   21  C16   D T1001      -0.113   1.467   9.276  1.00 33.74     0.250 C 
HETATM   22  C17   D T1001      -0.217  -0.022   9.251  1.00 35.69     0.037 C 
ENDBRANCH  18  21
ENDBRANCH  17  18
ENDBRANCH  16  17
ENDBRANCH  15  16
ENDBRANCH  13  15
ENDBRANCH  12  13
ENDBRANCH   5  12
TORSDOF 8
ENDMDL
MODEL 3
REMARK VINA RESULT:    -7.415      2.786      4.735
REMARK INTER + INTRA:         -11.837
REMARK INTER:                 -10.444
REMARK INTRA:                  -1.393
REMARK UNBOUND:                -0.953
REMARK  8 active torsions:
REMARK  status: ('A' for Active; 'I' for Inactive)
REMARK    1  A    between atoms: C3_5  and  N2_12 
REMARK    2  A    between atoms: N2_12  and  C10_13 
REMARK    3  A    between atoms: C10_13  and  C11_14 
REMARK    4  A    between atoms: C11_14  and  C12_15 
REMARK    5  A    between atoms: C12_15  and  C13_16 
REMARK    6  A    between atoms: C13_16  and  N3_17 
REMARK    7  A    between atoms: N3_17  and  C14_18 
REMARK    8  A    between atoms: N3_17  and  C16_20 
ROOT
HETATM    1 CL     D T1001      -5.343   2.193   8.575  1.00 22.69    -0.082 Cl
HETATM    2  N1    D T1001      -6.064  -2.901   8.472  1.00 34.43    -0.244 NA
HETATM    3  C1    D T1001      -5.876  -4.164   8.910  1.00 35.26     0.101 A 
HETATM    4  C2    D T1001      -5.041  -4.445   9.982  1.00 34.24     0.039 A 
HETATM    5  C3    D T1001      -4.301  -3.388  10.670  1.00 31.96     0.079 A 
HETATM    6  C4    D T1001      -4.491  -2.002  10.192  1.00 33.68     0.035 A 
HETATM    7  C5    D T1001      -3.852  -0.817  10.762  1.00 34.90     0.004 A 
HETATM    8  C6    D T1001      -4.103   0.466  10.256  1.00 32.93     0.012 A 
HETATM    9  C7    D T1001      -5.016   0.614   9.162  1.00 31.88     0.059 A 
HETATM   10  C8    D T1001      -5.660  -0.486   8.574  1.00 32.37     0.031 A 
HETATM   11  C9    D T1001      -5.414  -1.795   9.073  1.00 35.42     0.084 A 
ENDROOT
BRANCH   5  12
HETATM   12  N2    D T1001      -3.468  -3.636  11.728  1.00 30.60    -0.273 NA
BRANCH  12  13
HETATM   13  C10   D T1001      -1.999  -3.940  11.686  1.00 29.84     0.103 C 
HETATM   14  C18   D T1001      -1.759  -5.423  11.936  1.00 30.59     0.026 C 
BRANCH  13  15
HETATM   15  C11   D T1001      -1.258  -3.033  12.680  1.00 31.56     0.026 C 
BRANCH  15  16
HETATM   16  C12   D T1001      -0.476  -1.872  12.091  1.00 32.62     0.037 C 
BRANCH  16  17
HETATM   17  C13   D T1001      -0.503  -1.957  10.573  1.00 31.65     0.250 C 
BRANCH  17  18
HETATM   18  N3    D T1001      -0.336  -0.627   9.890  1.00 36.76     0.137 N 
BRANCH  18  19
HETATM   19  C14   D T1001      -0.248   0.547  10.891  1.00 36.54     0.250 C 
HETATM   20  C15   D T1001      -0.731   1.917  10.430  1.00 37.02     0.037 C 
ENDBRANCH  18  19
BRANCH  18  21
HETATM   21  C16   D T1001       0.671  -0.654   8.775  1.00 33.74     0.250 C 
HETATM   22  C17   D T1001       2.042  -1.096   9.170  1.00 35.69     0.037 C 
ENDBRANCH  18  21
ENDBRANCH  17  18
ENDBRANCH  16  17
ENDBRANCH  15  16
ENDBRANCH  13  15
ENDBRANCH  12  13
ENDBRANCH   5  12
TORSDOF 8
ENDMDL
MODEL 4
REMARK VINA RESULT:    -7.029      3.838      5.718
REMARK INTER + INTRA:         -11.269
REMARK INTER:                 -10.491
REMARK INTRA:                  -0.779
REMARK UNBOUND:                -0.953
REMARK  8 active torsions:
REMARK  status: ('A' for Active; 'I' for Inactive)
REMARK    1  A    between atoms: C3_5  and  N2_12 
REMARK    2  A    between atoms: N2_12  and  C10_13 
REMARK    3  A    between atoms: C10_13  and  C11_14 
REMARK    4  A    between atoms: C11_14  and  C12_15 
REMARK    5  A    between atoms: C12_15  and  C13_16 
REMARK    6  A    between atoms: C13_16  and  N3_17 
REMARK    7  A    between atoms: N3_17  and  C14_18 
REMARK    8  A    between atoms: N3_17  and  C16_20 
ROOT
HETATM    1 CL     D T1001      -5.650   1.650   8.258  1.00 22.69    -0.082 Cl
HETATM    2  N1    D T1001      -5.707  -3.451   8.940  1.00 34.43    -0.244 NA
HETATM    3  C1    D T1001      -5.348  -4.598   9.552  1.00 35.26     0.101 A 
HETATM    4  C2    D T1001      -4.460  -4.607  10.619  1.00 34.24     0.039 A 
HETATM    5  C3    D T1001      -3.850  -3.373  11.112  1.00 31.96     0.079 A 
HETATM    6  C4    D T1001      -4.227  -2.111  10.443  1.00 33.68     0.035 A 
HETATM    7  C5    D T1001      -3.735  -0.782  10.805  1.00 34.90     0.004 A 
HETATM    8  C6    D T1001      -4.161   0.368  10.125  1.00 32.93     0.012 A 
HETATM    9  C7    D T1001      -5.109   0.232   9.059  1.00 31.88     0.059 A 
HETATM   10  C8    D T1001      -5.617  -1.016   8.667  1.00 32.37     0.031 A 
HETATM   11  C9    D T1001      -5.193  -2.193   9.344  1.00 35.42     0.084 A 
ENDROOT
BRANCH   5  12
HETATM   12  N2    D T1001      -2.969  -3.351  12.161  1.00 30.60    -0.273 NA
BRANCH  12  13
HETATM   13  C10   D T1001      -1.475  -3.496  12.107  1.00 29.84     0.103 C 
HETATM   14  C18   D T1001      -0.807  -2.138  12.272  1.00 30.59     0.026 C 
BRANCH  13  15
HETATM   15  C11   D T1001      -1.075  -4.213  10.810  1.00 31.56     0.026 C 
BRANCH  15  16
HETATM   16  C12   D T1001       0.393  -4.566  10.650  1.00 32.62     0.037 C 
BRANCH  16  17
HETATM   17  C13   D T1001       0.902  -4.042   9.316  1.00 31.65     0.250 C 
BRANCH  17  18
HETATM   18  N3    D T1001       2.333  -3.583   9.353  1.00 36.76     0.137 N 
BRANCH  18  19
HETATM   19  C14   D T1001       2.469  -2.090   9.722  1.00 36.54     0.250 C 
HETATM   20  C15   D T1001       3.862  -1.553  10.035  1.00 37.02     0.037 C 
ENDBRANCH  18  19
BRANCH  18  21
HETATM   21  C16   D T1001       3.248  -4.548  10.054  1.00 33.74     0.250 C 
HETATM   22  C17   D T1001       4.285  -5.183   9.186  1.00 35.69     0.037 C 
ENDBRANCH  18  21
ENDBRANCH  17  18
ENDBRANCH  16  17
ENDBRANCH  15  16
ENDBRANCH  13  15
ENDBRANCH  12  13
ENDBRANCH   5  12
TORSDOF 8
ENDMDL
MODEL 5
REMARK VINA RESULT:    -7.016      2.484      4.569
REMARK INTER + INTRA:         -11.250
REMARK INTER:                 -10.079
REMARK INTRA:                  -1.171
REMARK UNBOUND:                -0.953
REMARK  8 active torsions:
REMARK  status: ('A' for Active; 'I' for Inactive)
REMARK    1  A    between atoms: C3_5  and  N2_12 
REMARK    2  A    between atoms: N2_12  and  C10_13 
REMARK    3  A    between atoms: C10_13  and  C11_14 
REMARK    4  A    between atoms: C11_14  and  C12_15 
REMARK    5  A    between atoms: C12_15  and  C13_16 
REMARK    6  A    between atoms: C13_16  and  N3_17 
REMARK    7  A    between atoms: N3_17  and  C14_18 
REMARK    8  A    between atoms: N3_17  and  C16_20 
ROOT
HETATM    1 CL     D T1001      -5.722  -4.367   9.314  1.00 22.69    -0.082 Cl
HETATM    2  N1    D T1001      -5.801   0.691   8.362  1.00 34.43    -0.244 NA
HETATM    3  C1    D T1001      -5.380   1.963   8.518  1.00 35.26     0.101 A 
HETATM    4  C2    D T1001      -4.359   2.288   9.400  1.00 34.24     0.039 A 
HETATM    5  C3    D T1001      -3.711   1.268  10.224  1.00 31.96     0.079 A 
HETATM    6  C4    D T1001      -4.172  -0.127  10.070  1.00 33.68     0.035 A 
HETATM    7  C5    D T1001      -3.636  -1.279  10.793  1.00 34.90     0.004 A 
HETATM    8  C6    D T1001      -4.121  -2.576  10.570  1.00 32.93     0.012 A 
HETATM    9  C7    D T1001      -5.161  -2.770   9.603  1.00 31.88     0.059 A 
HETATM   10  C8    D T1001      -5.714  -1.704   8.878  1.00 32.37     0.031 A 
HETATM   11  C9    D T1001      -5.235  -0.382   9.094  1.00 35.42     0.084 A 
ENDROOT
BRANCH   5  12
HETATM   12  N2    D T1001      -2.704   1.559  11.105  1.00 30.60    -0.273 NA
BRANCH  12  13
HETATM   13  C10   D T1001      -1.224   1.476  10.866  1.00 29.84     0.103 C 
HETATM   14  C18   D T1001      -0.491   2.485  11.739  1.00 30.59     0.026 C 
BRANCH  13  15
HETATM   15  C11   D T1001      -0.935   1.650   9.368  1.00 31.56     0.026 C 
BRANCH  15  16
HETATM   16  C12   D T1001      -0.438   0.425   8.622  1.00 32.62     0.037 C 
BRANCH  16  17
HETATM   17  C13   D T1001      -0.112  -0.680   9.616  1.00 31.65     0.250 C 
BRANCH  17  18
HETATM   18  N3    D T1001       1.309  -1.164   9.537  1.00 36.76     0.137 N 
BRANCH  18  19
HETATM   19  C14   D T1001       2.334  -0.050   9.845  1.00 36.54     0.250 C 
HETATM   20  C15   D T1001       3.306   0.354   8.743  1.00 37.02     0.037 C 
ENDBRANCH  18  19
BRANCH  18  21
HETATM   21  C16   D T1001       1.522  -2.494  10.204  1.00 33.74     0.250 C 
HETATM   22  C17   D T1001       1.219  -3.685   9.354  1.00 35.69     0.037 C 
ENDBRANCH  18  21
ENDBRANCH  17  18
ENDBRANCH  16  17
ENDBRANCH  15  16
ENDBRANCH  13  15
ENDBRANCH  12  13
ENDBRANCH   5  12
TORSDOF 8
ENDMDL
MODEL 6
REMARK VINA RESULT:    -6.995      2.490      4.936
REMARK INTER + INTRA:         -11.219
REMARK INTER:                  -9.882
REMARK INTRA:                  -1.337
REMARK UNBOUND:                -0.953
REMARK  8 active torsions:
REMARK  status: ('A' for Active; 'I' for Inactive)
REMARK    1  A    between atoms: C3_5  and  N2_12 
REMARK    2  A    between atoms: N2_12  and  C10_13 
REMARK    3  A    between atoms: C10_13  and  C11_14 
REMARK    4  A    between atoms: C11_14  and  C12_15 
REMARK    5  A    between atoms: C12_15  and  C13_16 
REMARK    6  A    between atoms: C13_16  and  N3_17 
REMARK    7  A    between atoms: N3_17  and  C14_18 
REMARK    8  A    between atoms: N3_17  and  C16_20 
ROOT
HETATM    1 CL     D T1001      -6.293  -3.732   8.929  1.00 22.69    -0.082 Cl
HETATM    2  N1    D T1001      -5.622   1.337   8.345  1.00 34.43    -0.244 NA
HETATM    3  C1    D T1001      -5.028   2.521   8.601  1.00 35.26     0.101 A 
HETATM    4  C2    D T1001      -3.999   2.634   9.525  1.00 34.24     0.039 A 
HETATM    5  C3    D T1001      -3.529   1.478  10.286  1.00 31.96     0.079 A 
HETATM    6  C4    D T1001      -4.179   0.177  10.021  1.00 33.68     0.035 A 
HETATM    7  C5    D T1001      -3.834  -1.088  10.670  1.00 34.90     0.004 A 
HETATM    8  C6    D T1001      -4.492  -2.282  10.344  1.00 32.93     0.012 A 
HETATM    9  C7    D T1001      -5.519  -2.257   9.345  1.00 31.88     0.059 A 
HETATM   10  C8    D T1001      -5.892  -1.075   8.688  1.00 32.37     0.031 A 
HETATM   11  C9    D T1001      -5.237   0.146   9.009  1.00 35.42     0.084 A 
ENDROOT
BRANCH   5  12
HETATM   12  N2    D T1001      -2.517   1.559  11.206  1.00 30.60    -0.273 NA
BRANCH  12  13
HETATM   13  C10   D T1001      -1.040   1.455  10.957  1.00 29.84     0.103 C 
HETATM   14  C18   D T1001      -0.380   2.817  11.119  1.00 30.59     0.026 C 
BRANCH  13  15
HETATM   15  C11   D T1001      -0.795   0.825   9.578  1.00 31.56     0.026 C 
BRANCH  15  16
HETATM   16  C12   D T1001      -0.169  -0.558   9.560  1.00 32.62     0.037 C 
BRANCH  16  17
HETATM   17  C13   D T1001      -0.057  -1.085  10.983  1.00 31.65     0.250 C 
BRANCH  17  18
HETATM   18  N3    D T1001       0.878  -2.253  11.123  1.00 36.76     0.137 N 
BRANCH  18  19
HETATM   19  C14   D T1001       0.220  -3.460  11.827  1.00 36.54     0.250 C 
HETATM   20  C15   D T1001      -1.295  -3.604  11.736  1.00 37.02     0.037 C 
ENDBRANCH  18  19
BRANCH  18  21
HETATM   21  C16   D T1001       1.667  -2.536   9.875  1.00 33.74     0.250 C 
HETATM   22  C17   D T1001       1.663  -3.962   9.432  1.00 35.69     0.037 C 
ENDBRANCH  18  21
ENDBRANCH  17  18
ENDBRANCH  16  17
ENDBRANCH  15  16
ENDBRANCH  13  15
ENDBRANCH  12  13
ENDBRANCH   5  12
TORSDOF 8
ENDMDL
MODEL 7
REMARK VINA RESULT:    -6.989      2.149      3.813
REMARK INTER + INTRA:         -11.210
REMARK INTER:                  -9.881
REMARK INTRA:                  -1.329
REMARK UNBOUND:                -0.953
REMARK  8 active torsions:
REMARK  status: ('A' for Active; 'I' for Inactive)
REMARK    1  A    between atoms: C3_5  and  N2_12 
REMARK    2  A    between atoms: N2_12  and  C10_13 
REMARK    3  A    between atoms: C10_13  and  C11_14 
REMARK    4  A    between atoms: C11_14  and  C12_15 
REMARK    5  A    between atoms: C12_15  and  C13_16 
REMARK    6  A    between atoms: C13_16  and  N3_17 
REMARK    7  A    between atoms: N3_17  and  C14_18 
REMARK    8  A    between atoms: N3_17  and  C16_20 
ROOT
HETATM    1 CL     D T1001      -5.474  -4.727   9.657  1.00 22.69    -0.082 Cl
HETATM    2  N1    D T1001      -5.990   0.243   8.423  1.00 34.43    -0.244 NA
HETATM    3  C1    D T1001      -5.658   1.549   8.480  1.00 35.26     0.101 A 
HETATM    4  C2    D T1001      -4.616   2.001   9.278  1.00 34.24     0.039 A 
HETATM    5  C3    D T1001      -3.847   1.084  10.117  1.00 31.96     0.079 A 
HETATM    6  C4    D T1001      -4.208  -0.348  10.071  1.00 33.68     0.035 A 
HETATM    7  C5    D T1001      -3.545  -1.412  10.825  1.00 34.90     0.004 A 
HETATM    8  C6    D T1001      -3.944  -2.751  10.707  1.00 32.93     0.012 A 
HETATM    9  C7    D T1001      -5.019  -3.079   9.819  1.00 31.88     0.059 A 
HETATM   10  C8    D T1001      -5.693  -2.103   9.070  1.00 32.37     0.031 A 
HETATM   11  C9    D T1001      -5.304  -0.739   9.180  1.00 35.42     0.084 A 
ENDROOT
BRANCH   5  12
HETATM   12  N2    D T1001      -2.815   1.500  10.915  1.00 30.60    -0.273 NA
BRANCH  12  13
HETATM   13  C10   D T1001      -1.586   2.260  10.505  1.00 29.84     0.103 C 
HETATM   14  C18   D T1001      -1.011   1.679   9.220  1.00 30.59     0.026 C 
BRANCH  13  15
HETATM   15  C11   D T1001      -0.580   2.274  11.665  1.00 31.56     0.026 C 
BRANCH  15  16
HETATM   16  C12   D T1001       0.007   0.935  12.076  1.00 32.62     0.037 C 
BRANCH  16  17
HETATM   17  C13   D T1001       1.520   0.975  11.928  1.00 31.65     0.250 C 
BRANCH  17  18
HETATM   18  N3    D T1001       2.054   0.006  10.911  1.00 36.76     0.137 N 
BRANCH  18  19
HETATM   19  C14   D T1001       1.188  -1.268  10.792  1.00 36.54     0.250 C 
HETATM   20  C15   D T1001       0.663  -1.652   9.413  1.00 37.02     0.037 C 
ENDBRANCH  18  19
BRANCH  18  21
HETATM   21  C16   D T1001       2.482   0.664   9.629  1.00 33.74     0.250 C 
HETATM   22  C17   D T1001       2.834   2.111   9.747  1.00 35.69     0.037 C 
ENDBRANCH  18  21
ENDBRANCH  17  18
ENDBRANCH  16  17
ENDBRANCH  15  16
ENDBRANCH  13  15
ENDBRANCH  12  13
ENDBRANCH   5  12
TORSDOF 8
ENDMDL
MODEL 8
REMARK VINA RESULT:    -6.882      2.815      5.347
REMARK INTER + INTRA:         -11.054
REMARK INTER:                 -10.381
REMARK INTRA:                  -0.673
REMARK UNBOUND:                -0.953
REMARK  8 active torsions:
REMARK  status: ('A' for Active; 'I' for Inactive)
REMARK    1  A    between atoms: C3_5  and  N2_12 
REMARK    2  A    between atoms: N2_12  and  C10_13 
REMARK    3  A    between atoms: C10_13  and  C11_14 
REMARK    4  A    between atoms: C11_14  and  C12_15 
REMARK    5  A    between atoms: C12_15  and  C13_16 
REMARK    6  A    between atoms: C13_16  and  N3_17 
REMARK    7  A    between atoms: N3_17  and  C14_18 
REMARK    8  A    between atoms: N3_17  and  C16_20 
ROOT
HETATM    1 CL     D T1001      -1.948 -10.460  14.579  1.00 22.69    -0.082 Cl
HETATM    2  N1    D T1001      -0.172  -6.469  11.858  1.00 34.43    -0.244 NA
HETATM    3  C1    D T1001      -0.296  -5.418  11.021  1.00 35.26     0.101 A 
HETATM    4  C2    D T1001      -1.522  -5.065  10.473  1.00 34.24     0.039 A 
HETATM    5  C3    D T1001      -2.732  -5.834  10.757  1.00 31.96     0.079 A 
HETATM    6  C4    D T1001      -2.607  -6.993  11.665  1.00 33.68     0.035 A 
HETATM    7  C5    D T1001      -3.705  -7.867  12.076  1.00 34.90     0.004 A 
HETATM    8  C6    D T1001      -3.498  -8.937  12.958  1.00 32.93     0.012 A 
HETATM    9  C7    D T1001      -2.181  -9.168  13.472  1.00 31.88     0.059 A 
HETATM   10  C8    D T1001      -1.089  -8.363  13.115  1.00 32.37     0.031 A 
HETATM   11  C9    D T1001      -1.280  -7.275  12.218  1.00 35.42     0.084 A 
ENDROOT
BRANCH   5  12
HETATM   12  N2    D T1001      -3.954  -5.511  10.230  1.00 30.60    -0.273 NA
BRANCH  12  13
HETATM   13  C10   D T1001      -4.896  -4.435  10.689  1.00 29.84     0.103 C 
HETATM   14  C18   D T1001      -6.339  -4.865  10.462  1.00 30.59     0.026 C 
BRANCH  13  15
HETATM   15  C11   D T1001      -4.543  -3.112   9.994  1.00 31.56     0.026 C 
BRANCH  15  16
HETATM   16  C12   D T1001      -5.604  -2.513   9.089  1.00 32.62     0.037 C 
BRANCH  16  17
HETATM   17  C13   D T1001      -5.771  -1.035   9.407  1.00 31.65     0.250 C 
BRANCH  17  18
HETATM   18  N3    D T1001      -4.478  -0.268   9.411  1.00 36.76     0.137 N 
BRANCH  18  19
HETATM   19  C14   D T1001      -4.398   0.766   8.266  1.00 36.54     0.250 C 
HETATM   20  C15   D T1001      -5.608   1.661   8.023  1.00 37.02     0.037 C 
ENDBRANCH  18  19
BRANCH  18  21
HETATM   21  C16   D T1001      -4.065   0.193  10.780  1.00 33.74     0.250 C 
HETATM   22  C17   D T1001      -5.159   0.788  11.606  1.00 35.69     0.037 C 
ENDBRANCH  18  21
ENDBRANCH  17  18
ENDBRANCH  16  17
ENDBRANCH  15  16
ENDBRANCH  13  15
ENDBRANCH  12  13
ENDBRANCH   5  12
TORSDOF 8
ENDMDL
MODEL 9
REMARK VINA RESULT:    -6.708      2.482      4.475
REMARK INTER + INTRA:         -10.798
REMARK INTER:                  -9.742
REMARK INTRA:                  -1.056
REMARK UNBOUND:                -0.953
REMARK  8 active torsions:
REMARK  status: ('A' for Active; 'I' for Inactive)
REMARK    1  A    between atoms: C3_5  and  N2_12 
REMARK    2  A    between atoms: N2_12  and  C10_13 
REMARK    3  A    between atoms: C10_13  and  C11_14 
REMARK    4  A    between atoms: C11_14  and  C12_15 
REMARK    5  A    between atoms: C12_15  and  C13_16 
REMARK    6  A    between atoms: C13_16  and  N3_17 
REMARK    7  A    between atoms: N3_17  and  C14_18 
REMARK    8  A    between atoms: N3_17  and  C16_20 
ROOT
HETATM    1 CL     D T1001      -6.136   0.328   8.544  1.00 22.69    -0.082 Cl
HETATM    2  N1    D T1001      -4.889  -4.500   9.819  1.00 34.43    -0.244 NA
HETATM    3  C1    D T1001      -4.159  -5.438  10.458  1.00 35.26     0.101 A 
HETATM    4  C2    D T1001      -3.089  -5.096  11.273  1.00 34.24     0.039 A 
HETATM    5  C3    D T1001      -2.685  -3.703  11.455  1.00 31.96     0.079 A 
HETATM    6  C4    D T1001      -3.471  -2.668  10.751  1.00 33.68     0.035 A 
HETATM    7  C5    D T1001      -3.228  -1.227  10.825  1.00 34.90     0.004 A 
HETATM    8  C6    D T1001      -4.037  -0.312  10.136  1.00 32.93     0.012 A 
HETATM    9  C7    D T1001      -5.131  -0.805   9.353  1.00 31.88     0.059 A 
HETATM   10  C8    D T1001      -5.414  -2.176   9.246  1.00 32.37     0.031 A 
HETATM   11  C9    D T1001      -4.601  -3.118   9.935  1.00 35.42     0.084 A 
ENDROOT
BRANCH   5  12
HETATM   12  N2    D T1001      -1.632  -3.336  12.250  1.00 30.60    -0.273 NA
BRANCH  12  13
HETATM   13  C10   D T1001      -0.287  -2.829  11.816  1.00 29.84     0.103 C 
HETATM   14  C18   D T1001       0.776  -3.895  12.039  1.00 30.59     0.026 C 
BRANCH  13  15
HETATM   15  C11   D T1001       0.021  -1.508  12.536  1.00 31.56     0.026 C 
BRANCH  15  16
HETATM   16  C12   D T1001       0.359  -0.316  11.659  1.00 32.62     0.037 C 
BRANCH  16  17
HETATM   17  C13   D T1001       0.598   0.908  12.532  1.00 31.65     0.250 C 
BRANCH  17  18
HETATM   18  N3    D T1001      -0.064   2.156  12.017  1.00 36.76     0.137 N 
BRANCH  18  19
HETATM   19  C14   D T1001       0.901   3.048  11.205  1.00 36.54     0.250 C 
HETATM   20  C15   D T1001       2.014   3.768  11.956  1.00 37.02     0.037 C 
ENDBRANCH  18  19
BRANCH  18  21
HETATM   21  C16   D T1001      -1.425   1.908  11.430  1.00 33.74     0.250 C 
HETATM   22  C17   D T1001      -1.649   2.498  10.077  1.00 35.69     0.037 C 
ENDBRANCH  18  21
ENDBRANCH  17  18
ENDBRANCH  16  17
ENDBRANCH  15  16
ENDBRANCH  13  15
ENDBRANCH  12  13
ENDBRANCH   5  12
TORSDOF 8
ENDMDL
