MODEL 1
REMARK VINA RESULT:      -7.2      0.000      0.000
REMARK  7 active torsions:
REMARK  status: ('A' for Active; 'I' for Inactive)
REMARK       I    between atoms: N_5  and  C_13 
REMARK    1  A    between atoms: N_5  and  C_14 
REMARK    2  A    between atoms: N_6  and  C_17 
REMARK    3  A    between atoms: N_6  and  C_20 
REMARK    4  A    between atoms: N_7  and  C_21 
REMARK    5  A    between atoms: N_7  and  C_23 
REMARK    6  A    between atoms: C_10  and  C_13 
REMARK    7  A    between atoms: C_24  and  C_29 
ROOT
HETATM    1  N   UNL     1      45.873   7.179  62.846  1.00  0.00    -0.224 NA
HETATM    2  N   UNL     1      47.834   8.240  61.933  1.00  0.00    -0.224 NA
HETATM    3  C   UNL     1      45.478   8.385  63.303  1.00  0.00     0.133 A 
HETATM    4  C   UNL     1      46.197   9.549  63.116  1.00  0.00     0.100 A 
HETATM    5  C   UNL     1      47.384   9.421  62.416  1.00  0.00     0.133 A 
HETATM    6  C   UNL     1      47.044   7.179  62.181  1.00  0.00     0.237 A 
ENDROOT
BRANCH   3   7
HETATM    7  N   UNL     1      44.258   8.479  64.016  1.00  0.00    -0.341 N 
HETATM    8  H   UNL     1      43.481   8.805  63.448  1.00  0.00     0.167 HD
BRANCH   7   9
HETATM    9  C   UNL     1      43.916   8.203  65.350  1.00  0.00     0.035 A 
HETATM   10  C   UNL     1      44.022   6.901  65.848  1.00  0.00     0.059 A 
HETATM   11  C   UNL     1      43.683   6.628  67.173  1.00  0.00     0.036 A 
HETATM   12  C   UNL     1      43.238   7.655  68.006  1.00  0.00     0.029 A 
HETATM   13  C   UNL     1      43.131   8.956  67.513  1.00  0.00     0.004 A 
HETATM   14  C   UNL     1      43.469   9.229  66.187  1.00  0.00     0.029 A 
BRANCH  11  15
HETATM   15  N   UNL     1      43.791   5.327  67.667  1.00  0.00    -0.327 N 
HETATM   16  C   UNL     1      44.787   4.799  68.492  1.00  0.00     0.226 C 
HETATM   17  O   UNL     1      45.767   5.374  68.947  1.00  0.00    -0.273 OA
HETATM   18  H   UNL     1      43.049   4.692  67.381  1.00  0.00     0.169 HD
BRANCH  16  19
HETATM   19  C   UNL     1      44.588   3.355  68.832  1.00  0.00     0.078 A 
HETATM   20  C   UNL     1      44.527   2.970  70.268  1.00  0.00     0.015 A 
HETATM   21  C   UNL     1      45.725   2.611  69.439  1.00  0.00     0.015 A 
ENDBRANCH  16  19
ENDBRANCH  11  15
ENDBRANCH   7   9
ENDBRANCH   3   7
BRANCH   5  22
HETATM   22  N   UNL     1      48.147  10.585  62.204  1.00  0.00    -0.341 N 
HETATM   23  H   UNL     1      49.129  10.386  62.027  1.00  0.00     0.167 HD
BRANCH  22  24
HETATM   24  C   UNL     1      47.916  11.945  62.497  1.00  0.00     0.034 A 
HETATM   25  C   UNL     1      47.370  12.785  61.526  1.00  0.00     0.045 A 
HETATM   26  C   UNL     1      47.139  14.130  61.817  1.00  0.00     0.050 A 
HETATM   27  C   UNL     1      47.456  14.634  63.078  1.00  0.00     0.016 A 
HETATM   28  C   UNL     1      48.002  13.795  64.049  1.00  0.00     0.003 A 
HETATM   29  C   UNL     1      48.232  12.450  63.758  1.00  0.00     0.029 A 
BRANCH  26  30
HETATM   30  C   UNL     1      46.556  15.028  60.779  1.00  0.00     0.417 C 
HETATM   31  F   UNL     1      47.477  15.523  59.901  1.00  0.00    -0.166 F 
HETATM   32  F   UNL     1      45.611  14.423  60.000  1.00  0.00    -0.166 F 
HETATM   33  F   UNL     1      45.940  16.122  61.318  1.00  0.00    -0.166 F 
ENDBRANCH  26  30
ENDBRANCH  22  24
ENDBRANCH   5  22
TORSDOF 7
ENDMDL
MODEL 2
REMARK VINA RESULT:      -6.5      5.966     10.972
REMARK  7 active torsions:
REMARK  status: ('A' for Active; 'I' for Inactive)
REMARK       I    between atoms: N_5  and  C_13 
REMARK    1  A    between atoms: N_5  and  C_14 
REMARK    2  A    between atoms: N_6  and  C_17 
REMARK    3  A    between atoms: N_6  and  C_20 
REMARK    4  A    between atoms: N_7  and  C_21 
REMARK    5  A    between atoms: N_7  and  C_23 
REMARK    6  A    between atoms: C_10  and  C_13 
REMARK    7  A    between atoms: C_24  and  C_29 
ROOT
HETATM    1  N   UNL     1      43.442   7.891  66.419  1.00  0.00    -0.224 NA
HETATM    2  N   UNL     1      43.949   6.653  68.424  1.00  0.00    -0.224 NA
HETATM    3  C   UNL     1      44.207   7.017  65.731  1.00  0.00     0.133 A 
HETATM    4  C   UNL     1      44.864   5.951  66.311  1.00  0.00     0.100 A 
HETATM    5  C   UNL     1      44.701   5.811  67.678  1.00  0.00     0.133 A 
HETATM    6  C   UNL     1      43.359   7.653  67.742  1.00  0.00     0.237 A 
ENDROOT
BRANCH   3   7
HETATM    7  N   UNL     1      44.352   7.191  64.333  1.00  0.00    -0.341 N 
HETATM    8  H   UNL     1      43.469   7.183  63.830  1.00  0.00     0.167 HD
BRANCH   7   9
HETATM    9  C   UNL     1      45.477   7.378  63.513  1.00  0.00     0.035 A 
HETATM   10  C   UNL     1      45.805   8.655  63.047  1.00  0.00     0.059 A 
HETATM   11  C   UNL     1      46.922   8.840  62.235  1.00  0.00     0.036 A 
HETATM   12  C   UNL     1      47.719   7.749  61.884  1.00  0.00     0.029 A 
HETATM   13  C   UNL     1      47.396   6.474  62.346  1.00  0.00     0.004 A 
HETATM   14  C   UNL     1      46.277   6.288  63.158  1.00  0.00     0.029 A 
BRANCH  11  15
HETATM   15  N   UNL     1      47.246  10.117  61.773  1.00  0.00    -0.327 N 
HETATM   16  C   UNL     1      47.811  11.174  62.489  1.00  0.00     0.226 C 
HETATM   17  O   UNL     1      48.136  11.192  63.669  1.00  0.00    -0.273 OA
HETATM   18  H   UNL     1      47.035  10.289  60.792  1.00  0.00     0.169 HD
BRANCH  16  19
HETATM   19  C   UNL     1      48.025  12.411  61.674  1.00  0.00     0.078 A 
HETATM   20  C   UNL     1      47.359  13.668  62.110  1.00  0.00     0.015 A 
HETATM   21  C   UNL     1      46.880  12.944  60.887  1.00  0.00     0.015 A 
ENDBRANCH  16  19
ENDBRANCH  11  15
ENDBRANCH   7   9
ENDBRANCH   3   7
BRANCH   5  22
HETATM   22  N   UNL     1      45.355   4.735  68.308  1.00  0.00    -0.341 N 
HETATM   23  H   UNL     1      46.089   4.328  67.733  1.00  0.00     0.167 HD
BRANCH  22  24
HETATM   24  C   UNL     1      45.007   3.915  69.401  1.00  0.00     0.034 A 
HETATM   25  C   UNL     1      44.750   2.558  69.203  1.00  0.00     0.045 A 
HETATM   26  C   UNL     1      44.408   1.748  70.285  1.00  0.00     0.050 A 
HETATM   27  C   UNL     1      44.323   2.293  71.566  1.00  0.00     0.016 A 
HETATM   28  C   UNL     1      44.579   3.650  71.765  1.00  0.00     0.003 A 
HETATM   29  C   UNL     1      44.922   4.460  70.682  1.00  0.00     0.029 A 
BRANCH  26  30
HETATM   30  C   UNL     1      44.133   0.297  70.073  1.00  0.00     0.417 C 
HETATM   31  F   UNL     1      45.247  -0.489  70.152  1.00  0.00    -0.166 F 
HETATM   32  F   UNL     1      43.259  -0.231  70.979  1.00  0.00    -0.166 F 
HETATM   33  F   UNL     1      43.590   0.039  68.847  1.00  0.00    -0.166 F 
ENDBRANCH  26  30
ENDBRANCH  22  24
ENDBRANCH   5  22
TORSDOF 7
ENDMDL
MODEL 3
REMARK VINA RESULT:      -6.4      7.283     10.065
REMARK  7 active torsions:
REMARK  status: ('A' for Active; 'I' for Inactive)
REMARK       I    between atoms: N_5  and  C_13 
REMARK    1  A    between atoms: N_5  and  C_14 
REMARK    2  A    between atoms: N_6  and  C_17 
REMARK    3  A    between atoms: N_6  and  C_20 
REMARK    4  A    between atoms: N_7  and  C_21 
REMARK    5  A    between atoms: N_7  and  C_23 
REMARK    6  A    between atoms: C_10  and  C_13 
REMARK    7  A    between atoms: C_24  and  C_29 
ROOT
HETATM    1  N   UNL     1      41.570   9.486  71.589  1.00  0.00    -0.224 NA
HETATM    2  N   UNL     1      43.197   8.414  70.170  1.00  0.00    -0.224 NA
HETATM    3  C   UNL     1      40.632   9.208  70.660  1.00  0.00     0.133 A 
HETATM    4  C   UNL     1      40.895   8.546  69.478  1.00  0.00     0.100 A 
HETATM    5  C   UNL     1      42.210   8.165  69.278  1.00  0.00     0.133 A 
HETATM    6  C   UNL     1      42.813   9.068  71.283  1.00  0.00     0.237 A 
ENDROOT
BRANCH   3   7
HETATM    7  N   UNL     1      39.296   9.613  70.898  1.00  0.00    -0.341 N 
HETATM    8  H   UNL     1      38.694   8.857  71.212  1.00  0.00     0.167 HD
BRANCH   7   9
HETATM    9  C   UNL     1      38.648  10.855  70.789  1.00  0.00     0.035 A 
HETATM   10  C   UNL     1      37.287  10.967  71.085  1.00  0.00     0.059 A 
HETATM   11  C   UNL     1      36.645  12.201  70.978  1.00  0.00     0.036 A 
HETATM   12  C   UNL     1      37.362  13.328  70.575  1.00  0.00     0.029 A 
HETATM   13  C   UNL     1      38.720  13.221  70.279  1.00  0.00     0.004 A 
HETATM   14  C   UNL     1      39.362  11.987  70.385  1.00  0.00     0.029 A 
BRANCH  11  15
HETATM   15  N   UNL     1      35.286  12.308  71.275  1.00  0.00    -0.327 N 
HETATM   16  C   UNL     1      34.695  12.678  72.486  1.00  0.00     0.226 C 
HETATM   17  O   UNL     1      35.255  12.984  73.531  1.00  0.00    -0.273 OA
HETATM   18  H   UNL     1      34.655  12.081  70.509  1.00  0.00     0.169 HD
BRANCH  16  19
HETATM   19  C   UNL     1      33.199  12.689  72.451  1.00  0.00     0.078 A 
HETATM   20  C   UNL     1      32.462  12.228  73.658  1.00  0.00     0.015 A 
HETATM   21  C   UNL     1      32.485  11.384  72.419  1.00  0.00     0.015 A 
ENDBRANCH  16  19
ENDBRANCH  11  15
ENDBRANCH   7   9
ENDBRANCH   3   7
BRANCH   5  22
HETATM   22  N   UNL     1      42.520   7.486  68.084  1.00  0.00    -0.341 N 
HETATM   23  H   UNL     1      42.409   6.478  68.163  1.00  0.00     0.167 HD
BRANCH  22  24
HETATM   24  C   UNL     1      43.244   7.861  66.933  1.00  0.00     0.034 A 
HETATM   25  C   UNL     1      43.741   6.883  66.071  1.00  0.00     0.045 A 
HETATM   26  C   UNL     1      44.455   7.254  64.933  1.00  0.00     0.050 A 
HETATM   27  C   UNL     1      44.672   8.604  64.655  1.00  0.00     0.016 A 
HETATM   28  C   UNL     1      44.175   9.582  65.516  1.00  0.00     0.003 A 
HETATM   29  C   UNL     1      43.461   9.210  66.655  1.00  0.00     0.029 A 
BRANCH  26  30
HETATM   30  C   UNL     1      44.987   6.209  64.011  1.00  0.00     0.417 C 
HETATM   31  F   UNL     1      44.091   5.217  63.732  1.00  0.00    -0.166 F 
HETATM   32  F   UNL     1      45.369   6.696  62.794  1.00  0.00    -0.166 F 
HETATM   33  F   UNL     1      46.088   5.576  64.514  1.00  0.00    -0.166 F 
ENDBRANCH  26  30
ENDBRANCH  22  24
ENDBRANCH   5  22
TORSDOF 7
ENDMDL
MODEL 4
REMARK VINA RESULT:      -6.4      4.918      7.626
REMARK  7 active torsions:
REMARK  status: ('A' for Active; 'I' for Inactive)
REMARK       I    between atoms: N_5  and  C_13 
REMARK    1  A    between atoms: N_5  and  C_14 
REMARK    2  A    between atoms: N_6  and  C_17 
REMARK    3  A    between atoms: N_6  and  C_20 
REMARK    4  A    between atoms: N_7  and  C_21 
REMARK    5  A    between atoms: N_7  and  C_23 
REMARK    6  A    between atoms: C_10  and  C_13 
REMARK    7  A    between atoms: C_24  and  C_29 
ROOT
HETATM    1  N   UNL     1      43.931  10.338  69.241  1.00  0.00    -0.224 NA
HETATM    2  N   UNL     1      44.327  10.547  66.874  1.00  0.00    -0.224 NA
HETATM    3  C   UNL     1      43.303   9.169  68.995  1.00  0.00     0.133 A 
HETATM    4  C   UNL     1      43.150   8.632  67.733  1.00  0.00     0.100 A 
HETATM    5  C   UNL     1      43.686   9.369  66.693  1.00  0.00     0.133 A 
HETATM    6  C   UNL     1      44.411  10.966  68.151  1.00  0.00     0.237 A 
ENDROOT
BRANCH   3   7
HETATM    7  N   UNL     1      42.766   8.441  70.085  1.00  0.00    -0.341 N 
HETATM    8  H   UNL     1      43.269   7.581  70.284  1.00  0.00     0.167 HD
BRANCH   7   9
HETATM    9  C   UNL     1      41.679   8.681  70.942  1.00  0.00     0.035 A 
HETATM   10  C   UNL     1      40.536   9.330  70.466  1.00  0.00     0.059 A 
HETATM   11  C   UNL     1      39.458   9.567  71.317  1.00  0.00     0.036 A 
HETATM   12  C   UNL     1      39.517   9.156  72.649  1.00  0.00     0.029 A 
HETATM   13  C   UNL     1      40.655   8.509  73.129  1.00  0.00     0.004 A 
HETATM   14  C   UNL     1      41.735   8.272  72.277  1.00  0.00     0.029 A 
BRANCH  11  15
HETATM   15  N   UNL     1      38.318  10.214  70.837  1.00  0.00    -0.327 N 
HETATM   16  C   UNL     1      38.194  11.540  70.417  1.00  0.00     0.226 C 
HETATM   17  O   UNL     1      39.062  12.401  70.384  1.00  0.00    -0.273 OA
HETATM   18  H   UNL     1      37.478   9.640  70.798  1.00  0.00     0.169 HD
BRANCH  16  19
HETATM   19  C   UNL     1      36.815  11.902  69.958  1.00  0.00     0.078 A 
HETATM   20  C   UNL     1      35.702  10.962  70.258  1.00  0.00     0.015 A 
HETATM   21  C   UNL     1      36.209  11.110  68.854  1.00  0.00     0.015 A 
ENDBRANCH  16  19
ENDBRANCH  11  15
ENDBRANCH   7   9
ENDBRANCH   3   7
BRANCH   5  22
HETATM   22  N   UNL     1      43.551   8.855  65.389  1.00  0.00    -0.341 N 
HETATM   23  H   UNL     1      42.591   8.877  65.053  1.00  0.00     0.167 HD
BRANCH  22  24
HETATM   24  C   UNL     1      44.383   8.040  64.593  1.00  0.00     0.034 A 
HETATM   25  C   UNL     1      45.259   8.621  63.676  1.00  0.00     0.045 A 
HETATM   26  C   UNL     1      46.083   7.814  62.891  1.00  0.00     0.050 A 
HETATM   27  C   UNL     1      46.030   6.426  63.023  1.00  0.00     0.016 A 
HETATM   28  C   UNL     1      45.153   5.845  63.939  1.00  0.00     0.003 A 
HETATM   29  C   UNL     1      44.330   6.652  64.725  1.00  0.00     0.029 A 
BRANCH  26  30
HETATM   30  C   UNL     1      47.020   8.435  61.911  1.00  0.00     0.417 C 
HETATM   31  F   UNL     1      47.049   7.798  60.703  1.00  0.00    -0.166 F 
HETATM   32  F   UNL     1      46.725   9.736  61.621  1.00  0.00    -0.166 F 
HETATM   33  F   UNL     1      48.313   8.442  62.352  1.00  0.00    -0.166 F 
ENDBRANCH  26  30
ENDBRANCH  22  24
ENDBRANCH   5  22
TORSDOF 7
ENDMDL
MODEL 5
REMARK VINA RESULT:      -6.4      2.788      4.928
REMARK  7 active torsions:
REMARK  status: ('A' for Active; 'I' for Inactive)
REMARK       I    between atoms: N_5  and  C_13 
REMARK    1  A    between atoms: N_5  and  C_14 
REMARK    2  A    between atoms: N_6  and  C_17 
REMARK    3  A    between atoms: N_6  and  C_20 
REMARK    4  A    between atoms: N_7  and  C_21 
REMARK    5  A    between atoms: N_7  and  C_23 
REMARK    6  A    between atoms: C_10  and  C_13 
REMARK    7  A    between atoms: C_24  and  C_29 
ROOT
HETATM    1  N   UNL     1      44.356   6.437  64.520  1.00  0.00    -0.224 NA
HETATM    2  N   UNL     1      46.209   6.888  63.047  1.00  0.00    -0.224 NA
HETATM    3  C   UNL     1      44.220   7.768  64.696  1.00  0.00     0.133 A 
HETATM    4  C   UNL     1      45.029   8.708  64.089  1.00  0.00     0.100 A 
HETATM    5  C   UNL     1      46.021   8.211  63.264  1.00  0.00     0.133 A 
HETATM    6  C   UNL     1      45.357   6.072  63.696  1.00  0.00     0.237 A 
ENDROOT
BRANCH   3   7
HETATM    7  N   UNL     1      43.194   8.243  65.548  1.00  0.00    -0.341 N 
HETATM    8  H   UNL     1      42.261   7.973  65.248  1.00  0.00     0.167 HD
BRANCH   7   9
HETATM    9  C   UNL     1      43.218   9.006  66.727  1.00  0.00     0.035 A 
HETATM   10  C   UNL     1      43.728  10.307  66.714  1.00  0.00     0.059 A 
HETATM   11  C   UNL     1      43.751  11.064  67.885  1.00  0.00     0.036 A 
HETATM   12  C   UNL     1      43.262  10.524  69.075  1.00  0.00     0.029 A 
HETATM   13  C   UNL     1      42.751   9.226  69.093  1.00  0.00     0.004 A 
HETATM   14  C   UNL     1      42.730   8.468  67.922  1.00  0.00     0.029 A 
BRANCH  11  15
HETATM   15  N   UNL     1      44.261  12.363  67.866  1.00  0.00    -0.327 N 
HETATM   16  C   UNL     1      45.598  12.763  67.810  1.00  0.00     0.226 C 
HETATM   17  O   UNL     1      46.592  12.051  67.764  1.00  0.00    -0.273 OA
HETATM   18  H   UNL     1      43.563  13.103  67.905  1.00  0.00     0.169 HD
BRANCH  16  19
HETATM   19  C   UNL     1      45.786  14.248  67.806  1.00  0.00     0.078 A 
HETATM   20  C   UNL     1      45.393  15.005  66.587  1.00  0.00     0.015 A 
HETATM   21  C   UNL     1      46.842  14.821  66.928  1.00  0.00     0.015 A 
ENDBRANCH  16  19
ENDBRANCH  11  15
ENDBRANCH   7   9
ENDBRANCH   3   7
BRANCH   5  22
HETATM   22  N   UNL     1      46.867   9.137  62.625  1.00  0.00    -0.341 N 
HETATM   23  H   UNL     1      47.551   8.693  62.017  1.00  0.00     0.167 HD
BRANCH  22  24
HETATM   24  C   UNL     1      47.175  10.488  62.888  1.00  0.00     0.034 A 
HETATM   25  C   UNL     1      47.107  11.433  61.864  1.00  0.00     0.045 A 
HETATM   26  C   UNL     1      47.410  12.768  62.126  1.00  0.00     0.050 A 
HETATM   27  C   UNL     1      47.782  13.160  63.412  1.00  0.00     0.016 A 
HETATM   28  C   UNL     1      47.851  12.217  64.436  1.00  0.00     0.003 A 
HETATM   29  C   UNL     1      47.547  10.880  64.174  1.00  0.00     0.029 A 
BRANCH  26  30
HETATM   30  C   UNL     1      47.337  13.779  61.030  1.00  0.00     0.417 C 
HETATM   31  F   UNL     1      46.076  13.965  60.540  1.00  0.00    -0.166 F 
HETATM   32  F   UNL     1      47.761  15.021  61.405  1.00  0.00    -0.166 F 
HETATM   33  F   UNL     1      48.102  13.440  59.951  1.00  0.00    -0.166 F 
ENDBRANCH  26  30
ENDBRANCH  22  24
ENDBRANCH   5  22
TORSDOF 7
ENDMDL
MODEL 6
REMARK VINA RESULT:      -6.3      6.511     11.672
REMARK  7 active torsions:
REMARK  status: ('A' for Active; 'I' for Inactive)
REMARK       I    between atoms: N_5  and  C_13 
REMARK    1  A    between atoms: N_5  and  C_14 
REMARK    2  A    between atoms: N_6  and  C_17 
REMARK    3  A    between atoms: N_6  and  C_20 
REMARK    4  A    between atoms: N_7  and  C_21 
REMARK    5  A    between atoms: N_7  and  C_23 
REMARK    6  A    between atoms: C_10  and  C_13 
REMARK    7  A    between atoms: C_24  and  C_29 
ROOT
HETATM    1  N   UNL     1      46.174   4.595  67.948  1.00  0.00    -0.224 NA
HETATM    2  N   UNL     1      47.024   2.849  69.375  1.00  0.00    -0.224 NA
HETATM    3  C   UNL     1      44.925   4.201  68.273  1.00  0.00     0.133 A 
HETATM    4  C   UNL     1      44.649   3.155  69.130  1.00  0.00     0.100 A 
HETATM    5  C   UNL     1      45.748   2.503  69.661  1.00  0.00     0.133 A 
HETATM    6  C   UNL     1      47.162   3.885  68.526  1.00  0.00     0.237 A 
ENDROOT
BRANCH   3   7
HETATM    7  N   UNL     1      43.824   4.891  67.710  1.00  0.00    -0.341 N 
HETATM    8  H   UNL     1      42.987   4.321  67.630  1.00  0.00     0.167 HD
BRANCH   7   9
HETATM    9  C   UNL     1      43.666   6.209  67.249  1.00  0.00     0.035 A 
HETATM   10  C   UNL     1      44.111   6.566  65.973  1.00  0.00     0.059 A 
HETATM   11  C   UNL     1      43.953   7.874  65.516  1.00  0.00     0.036 A 
HETATM   12  C   UNL     1      43.348   8.831  66.333  1.00  0.00     0.029 A 
HETATM   13  C   UNL     1      42.902   8.478  67.606  1.00  0.00     0.004 A 
HETATM   14  C   UNL     1      43.061   7.170  68.064  1.00  0.00     0.029 A 
BRANCH  11  15
HETATM   15  N   UNL     1      44.398   8.227  64.242  1.00  0.00    -0.327 N 
HETATM   16  C   UNL     1      45.679   8.075  63.704  1.00  0.00     0.226 C 
HETATM   17  O   UNL     1      46.668   7.600  64.245  1.00  0.00    -0.273 OA
HETATM   18  H   UNL     1      43.697   8.652  63.639  1.00  0.00     0.169 HD
BRANCH  16  19
HETATM   19  C   UNL     1      45.806   8.565  62.295  1.00  0.00     0.078 A 
HETATM   20  C   UNL     1      47.000   8.153  61.510  1.00  0.00     0.015 A 
HETATM   21  C   UNL     1      46.863   9.567  61.990  1.00  0.00     0.015 A 
ENDBRANCH  16  19
ENDBRANCH  11  15
ENDBRANCH   7   9
ENDBRANCH   3   7
BRANCH   5  22
HETATM   22  N   UNL     1      45.509   1.430  70.541  1.00  0.00    -0.341 N 
HETATM   23  H   UNL     1      46.184   0.675  70.436  1.00  0.00     0.167 HD
BRANCH  22  24
HETATM   24  C   UNL     1      44.379   1.042  71.291  1.00  0.00     0.034 A 
HETATM   25  C   UNL     1      43.900   1.867  72.309  1.00  0.00     0.045 A 
HETATM   26  C   UNL     1      42.782   1.484  73.048  1.00  0.00     0.050 A 
HETATM   27  C   UNL     1      42.142   0.276  72.771  1.00  0.00     0.016 A 
HETATM   28  C   UNL     1      42.620  -0.549  71.753  1.00  0.00     0.003 A 
HETATM   29  C   UNL     1      43.739  -0.166  71.013  1.00  0.00     0.029 A 
BRANCH  26  30
HETATM   30  C   UNL     1      42.269   2.366  74.137  1.00  0.00     0.417 C 
HETATM   31  F   UNL     1      42.613   3.679  73.986  1.00  0.00    -0.166 F 
HETATM   32  F   UNL     1      40.908   2.364  74.246  1.00  0.00    -0.166 F 
HETATM   33  F   UNL     1      42.735   2.005  75.369  1.00  0.00    -0.166 F 
ENDBRANCH  26  30
ENDBRANCH  22  24
ENDBRANCH   5  22
TORSDOF 7
ENDMDL
MODEL 7
REMARK VINA RESULT:      -6.3      4.931      8.357
REMARK  7 active torsions:
REMARK  status: ('A' for Active; 'I' for Inactive)
REMARK       I    between atoms: N_5  and  C_13 
REMARK    1  A    between atoms: N_5  and  C_14 
REMARK    2  A    between atoms: N_6  and  C_17 
REMARK    3  A    between atoms: N_6  and  C_20 
REMARK    4  A    between atoms: N_7  and  C_21 
REMARK    5  A    between atoms: N_7  and  C_23 
REMARK    6  A    between atoms: C_10  and  C_13 
REMARK    7  A    between atoms: C_24  and  C_29 
ROOT
HETATM    1  N   UNL     1      46.304   3.265  69.494  1.00  0.00    -0.224 NA
HETATM    2  N   UNL     1      45.874   5.402  68.467  1.00  0.00    -0.224 NA
HETATM    3  C   UNL     1      45.081   2.866  69.087  1.00  0.00     0.133 A 
HETATM    4  C   UNL     1      44.210   3.666  68.376  1.00  0.00     0.100 A 
HETATM    5  C   UNL     1      44.660   4.943  68.088  1.00  0.00     0.133 A 
HETATM    6  C   UNL     1      46.631   4.527  69.156  1.00  0.00     0.237 A 
ENDROOT
BRANCH   3   7
HETATM    7  N   UNL     1      44.652   1.553  69.400  1.00  0.00    -0.341 N 
HETATM    8  H   UNL     1      44.520   0.964  68.582  1.00  0.00     0.167 HD
BRANCH   7   9
HETATM    9  C   UNL     1      44.383   0.909  70.619  1.00  0.00     0.035 A 
HETATM   10  C   UNL     1      44.235  -0.480  70.664  1.00  0.00     0.059 A 
HETATM   11  C   UNL     1      43.969  -1.119  71.875  1.00  0.00     0.036 A 
HETATM   12  C   UNL     1      43.852  -0.371  73.047  1.00  0.00     0.029 A 
HETATM   13  C   UNL     1      43.999   1.015  73.008  1.00  0.00     0.004 A 
HETATM   14  C   UNL     1      44.264   1.654  71.796  1.00  0.00     0.029 A 
BRANCH  11  15
HETATM   15  N   UNL     1      43.822  -2.506  71.916  1.00  0.00    -0.327 N 
HETATM   16  C   UNL     1      44.809  -3.482  71.755  1.00  0.00     0.226 C 
HETATM   17  O   UNL     1      46.003  -3.314  71.547  1.00  0.00    -0.273 OA
HETATM   18  H   UNL     1      42.873  -2.837  72.077  1.00  0.00     0.169 HD
BRANCH  16  19
HETATM   19  C   UNL     1      44.296  -4.884  71.859  1.00  0.00     0.078 A 
HETATM   20  C   UNL     1      43.178  -5.158  72.803  1.00  0.00     0.015 A 
HETATM   21  C   UNL     1      44.565  -5.641  73.113  1.00  0.00     0.015 A 
ENDBRANCH  16  19
ENDBRANCH  11  15
ENDBRANCH   7   9
ENDBRANCH   3   7
BRANCH   5  22
HETATM   22  N   UNL     1      43.801   5.791  67.364  1.00  0.00    -0.341 N 
HETATM   23  H   UNL     1      42.846   5.443  67.320  1.00  0.00     0.167 HD
BRANCH  22  24
HETATM   24  C   UNL     1      44.041   6.827  66.436  1.00  0.00     0.034 A 
HETATM   25  C   UNL     1      44.799   6.578  65.292  1.00  0.00     0.045 A 
HETATM   26  C   UNL     1      45.034   7.602  64.375  1.00  0.00     0.050 A 
HETATM   27  C   UNL     1      44.512   8.875  64.602  1.00  0.00     0.016 A 
HETATM   28  C   UNL     1      43.754   9.124  65.746  1.00  0.00     0.003 A 
HETATM   29  C   UNL     1      43.518   8.100  66.663  1.00  0.00     0.029 A 
BRANCH  26  30
HETATM   30  C   UNL     1      45.846   7.336  63.152  1.00  0.00     0.417 C 
HETATM   31  F   UNL     1      45.487   8.102  62.080  1.00  0.00    -0.166 F 
HETATM   32  F   UNL     1      47.181   7.565  63.322  1.00  0.00    -0.166 F 
HETATM   33  F   UNL     1      45.747   6.042  62.727  1.00  0.00    -0.166 F 
ENDBRANCH  26  30
ENDBRANCH  22  24
ENDBRANCH   5  22
TORSDOF 7
ENDMDL
MODEL 8
REMARK VINA RESULT:      -6.3      5.448      8.025
REMARK  7 active torsions:
REMARK  status: ('A' for Active; 'I' for Inactive)
REMARK       I    between atoms: N_5  and  C_13 
REMARK    1  A    between atoms: N_5  and  C_14 
REMARK    2  A    between atoms: N_6  and  C_17 
REMARK    3  A    between atoms: N_6  and  C_20 
REMARK    4  A    between atoms: N_7  and  C_21 
REMARK    5  A    between atoms: N_7  and  C_23 
REMARK    6  A    between atoms: C_10  and  C_13 
REMARK    7  A    between atoms: C_24  and  C_29 
ROOT
HETATM    1  N   UNL     1      43.566   9.781  69.864  1.00  0.00    -0.224 NA
HETATM    2  N   UNL     1      43.661   7.972  68.276  1.00  0.00    -0.224 NA
HETATM    3  C   UNL     1      43.168  10.592  68.861  1.00  0.00     0.133 A 
HETATM    4  C   UNL     1      42.996  10.171  67.558  1.00  0.00     0.100 A 
HETATM    5  C   UNL     1      43.260   8.835  67.314  1.00  0.00     0.133 A 
HETATM    6  C   UNL     1      43.793   8.503  69.506  1.00  0.00     0.237 A 
ENDROOT
BRANCH   3   7
HETATM    7  N   UNL     1      42.908  11.954  69.147  1.00  0.00    -0.341 N 
HETATM    8  H   UNL     1      43.684  12.570  68.920  1.00  0.00     0.167 HD
BRANCH   7   9
HETATM    9  C   UNL     1      41.787  12.615  69.674  1.00  0.00     0.035 A 
HETATM   10  C   UNL     1      40.630  11.896  69.990  1.00  0.00     0.059 A 
HETATM   11  C   UNL     1      39.518  12.553  70.515  1.00  0.00     0.036 A 
HETATM   12  C   UNL     1      39.556  13.931  70.727  1.00  0.00     0.029 A 
HETATM   13  C   UNL     1      40.708  14.653  70.413  1.00  0.00     0.004 A 
HETATM   14  C   UNL     1      41.821  13.996  69.887  1.00  0.00     0.029 A 
BRANCH  11  15
HETATM   15  N   UNL     1      38.365  11.831  70.830  1.00  0.00    -0.327 N 
HETATM   16  C   UNL     1      37.148  11.810  70.146  1.00  0.00     0.226 C 
HETATM   17  O   UNL     1      36.849  12.422  69.129  1.00  0.00    -0.273 OA
HETATM   18  H   UNL     1      38.429  11.257  71.668  1.00  0.00     0.169 HD
BRANCH  16  19
HETATM   19  C   UNL     1      36.119  10.918  70.767  1.00  0.00     0.078 A 
HETATM   20  C   UNL     1      35.260  11.476  71.846  1.00  0.00     0.015 A 
HETATM   21  C   UNL     1      36.328  10.474  72.172  1.00  0.00     0.015 A 
ENDBRANCH  16  19
ENDBRANCH  11  15
ENDBRANCH   7   9
ENDBRANCH   3   7
BRANCH   5  22
HETATM   22  N   UNL     1      43.096   8.365  65.997  1.00  0.00    -0.341 N 
HETATM   23  H   UNL     1      42.123   8.182  65.761  1.00  0.00     0.167 HD
BRANCH  22  24
HETATM   24  C   UNL     1      43.992   7.801  65.066  1.00  0.00     0.034 A 
HETATM   25  C   UNL     1      44.823   8.626  64.307  1.00  0.00     0.045 A 
HETATM   26  C   UNL     1      45.710   8.067  63.388  1.00  0.00     0.050 A 
HETATM   27  C   UNL     1      45.767   6.683  63.227  1.00  0.00     0.016 A 
HETATM   28  C   UNL     1      44.937   5.857  63.984  1.00  0.00     0.003 A 
HETATM   29  C   UNL     1      44.049   6.417  64.904  1.00  0.00     0.029 A 
BRANCH  26  30
HETATM   30  C   UNL     1      46.599   8.950  62.577  1.00  0.00     0.417 C 
HETATM   31  F   UNL     1      47.916   8.595  62.626  1.00  0.00    -0.166 F 
HETATM   32  F   UNL     1      46.284   8.968  61.248  1.00  0.00    -0.166 F 
HETATM   33  F   UNL     1      46.555  10.253  62.982  1.00  0.00    -0.166 F 
ENDBRANCH  26  30
ENDBRANCH  22  24
ENDBRANCH   5  22
TORSDOF 7
ENDMDL
MODEL 9
REMARK VINA RESULT:      -6.2      7.426     10.472
REMARK  7 active torsions:
REMARK  status: ('A' for Active; 'I' for Inactive)
REMARK       I    between atoms: N_5  and  C_13 
REMARK    1  A    between atoms: N_5  and  C_14 
REMARK    2  A    between atoms: N_6  and  C_17 
REMARK    3  A    between atoms: N_6  and  C_20 
REMARK    4  A    between atoms: N_7  and  C_21 
REMARK    5  A    between atoms: N_7  and  C_23 
REMARK    6  A    between atoms: C_10  and  C_13 
REMARK    7  A    between atoms: C_24  and  C_29 
ROOT
HETATM    1  N   UNL     1      43.212   9.170  66.939  1.00  0.00    -0.224 NA
HETATM    2  N   UNL     1      43.508   7.009  65.916  1.00  0.00    -0.224 NA
HETATM    3  C   UNL     1      43.280   8.568  68.145  1.00  0.00     0.133 A 
HETATM    4  C   UNL     1      43.459   7.210  68.314  1.00  0.00     0.100 A 
HETATM    5  C   UNL     1      43.568   6.464  67.153  1.00  0.00     0.133 A 
HETATM    6  C   UNL     1      43.331   8.343  65.883  1.00  0.00     0.237 A 
ENDROOT
BRANCH   3   7
HETATM    7  N   UNL     1      43.163   9.361  69.312  1.00  0.00    -0.341 N 
HETATM    8  H   UNL     1      43.979   9.939  69.492  1.00  0.00     0.167 HD
BRANCH   7   9
HETATM    9  C   UNL     1      42.137   9.506  70.261  1.00  0.00     0.035 A 
HETATM   10  C   UNL     1      40.877   9.967  69.870  1.00  0.00     0.059 A 
HETATM   11  C   UNL     1      39.859  10.109  70.812  1.00  0.00     0.036 A 
HETATM   12  C   UNL     1      40.096   9.791  72.150  1.00  0.00     0.029 A 
HETATM   13  C   UNL     1      41.352   9.330  72.544  1.00  0.00     0.004 A 
HETATM   14  C   UNL     1      42.371   9.189  71.602  1.00  0.00     0.029 A 
BRANCH  11  15
HETATM   15  N   UNL     1      38.601  10.569  70.418  1.00  0.00    -0.327 N 
HETATM   16  C   UNL     1      38.223  11.875  70.098  1.00  0.00     0.226 C 
HETATM   17  O   UNL     1      38.922  12.880  70.099  1.00  0.00    -0.273 OA
HETATM   18  H   UNL     1      37.876   9.857  70.365  1.00  0.00     0.169 HD
BRANCH  16  19
HETATM   19  C   UNL     1      36.783  12.012  69.713  1.00  0.00     0.078 A 
HETATM   20  C   UNL     1      35.813  11.018  70.247  1.00  0.00     0.015 A 
HETATM   21  C   UNL     1      36.199  10.993  68.798  1.00  0.00     0.015 A 
ENDBRANCH  16  19
ENDBRANCH  11  15
ENDBRANCH   7   9
ENDBRANCH   3   7
BRANCH   5  22
HETATM   22  N   UNL     1      43.752   5.074  67.283  1.00  0.00    -0.341 N 
HETATM   23  H   UNL     1      42.930   4.540  67.008  1.00  0.00     0.167 HD
BRANCH  22  24
HETATM   24  C   UNL     1      44.687   4.297  67.997  1.00  0.00     0.034 A 
HETATM   25  C   UNL     1      44.257   3.212  68.760  1.00  0.00     0.045 A 
HETATM   26  C   UNL     1      45.183   2.443  69.464  1.00  0.00     0.050 A 
HETATM   27  C   UNL     1      46.540   2.759  69.406  1.00  0.00     0.016 A 
HETATM   28  C   UNL     1      46.971   3.845  68.643  1.00  0.00     0.003 A 
HETATM   29  C   UNL     1      46.045   4.614  67.938  1.00  0.00     0.029 A 
BRANCH  26  30
HETATM   30  C   UNL     1      44.722   1.282  70.280  1.00  0.00     0.417 C 
HETATM   31  F   UNL     1      45.742   0.513  70.762  1.00  0.00    -0.166 F 
HETATM   32  F   UNL     1      43.997   1.642  71.380  1.00  0.00    -0.166 F 
HETATM   33  F   UNL     1      43.921   0.429  69.575  1.00  0.00    -0.166 F 
ENDBRANCH  26  30
ENDBRANCH  22  24
ENDBRANCH   5  22
TORSDOF 7
ENDMDL
