MODEL 1
REMARK VINA RESULT:      -6.5      0.000      0.000
REMARK  7 active torsions:
REMARK  status: ('A' for Active; 'I' for Inactive)
REMARK       I    between atoms: N_5  and  C_13 
REMARK    1  A    between atoms: N_5  and  C_14 
REMARK    2  A    between atoms: N_6  and  C_17 
REMARK    3  A    between atoms: N_6  and  C_20 
REMARK    4  A    between atoms: N_7  and  C_21 
REMARK    5  A    between atoms: N_7  and  C_23 
REMARK    6  A    between atoms: C_10  and  C_13 
REMARK    7  A    between atoms: C_24  and  C_29 
ROOT
HETATM    1  N   UNL     1      43.500   9.181  69.978  1.00  0.00    -0.224 NA
HETATM    2  N   UNL     1      43.236   7.555  68.219  1.00  0.00    -0.224 NA
HETATM    3  C   UNL     1      43.510  10.145  69.034  1.00  0.00     0.133 A 
HETATM    4  C   UNL     1      43.390   9.896  67.682  1.00  0.00     0.100 A 
HETATM    5  C   UNL     1      43.254   8.567  67.321  1.00  0.00     0.133 A 
HETATM    6  C   UNL     1      43.363   7.927  69.507  1.00  0.00     0.237 A 
ENDROOT
BRANCH   3   7
HETATM    7  N   UNL     1      43.652  11.495  69.439  1.00  0.00    -0.341 N 
HETATM    8  H   UNL     1      44.618  11.807  69.476  1.00  0.00     0.167 HD
BRANCH   7   9
HETATM    9  C   UNL     1      42.716  12.482  69.790  1.00  0.00     0.035 A 
HETATM   10  C   UNL     1      41.356  12.285  69.538  1.00  0.00     0.059 A 
HETATM   11  C   UNL     1      40.428  13.265  69.889  1.00  0.00     0.036 A 
HETATM   12  C   UNL     1      40.857  14.448  70.493  1.00  0.00     0.029 A 
HETATM   13  C   UNL     1      42.213  14.649  70.747  1.00  0.00     0.004 A 
HETATM   14  C   UNL     1      43.141  13.669  70.395  1.00  0.00     0.029 A 
BRANCH  11  15
HETATM   15  N   UNL     1      39.071  13.064  69.636  1.00  0.00    -0.327 N 
HETATM   16  C   UNL     1      38.229  12.090  70.178  1.00  0.00     0.226 C 
HETATM   17  O   UNL     1      38.515  11.217  70.987  1.00  0.00    -0.273 OA
HETATM   18  H   UNL     1      38.653  13.708  68.967  1.00  0.00     0.169 HD
BRANCH  16  19
HETATM   19  C   UNL     1      36.818  12.165  69.682  1.00  0.00     0.078 A 
HETATM   20  C   UNL     1      35.905  11.028  69.979  1.00  0.00     0.015 A 
HETATM   21  C   UNL     1      36.409  11.248  68.583  1.00  0.00     0.015 A 
ENDBRANCH  16  19
ENDBRANCH  11  15
ENDBRANCH   7   9
ENDBRANCH   3   7
BRANCH   5  22
HETATM   22  N   UNL     1      43.128   8.271  65.950  1.00  0.00    -0.341 N 
HETATM   23  H   UNL     1      42.159   8.209  65.647  1.00  0.00     0.167 HD
BRANCH  22  24
HETATM   24  C   UNL     1      44.025   7.735  65.003  1.00  0.00     0.034 A 
HETATM   25  C   UNL     1      44.846   8.584  64.261  1.00  0.00     0.045 A 
HETATM   26  C   UNL     1      45.734   8.053  63.326  1.00  0.00     0.050 A 
HETATM   27  C   UNL     1      45.801   6.673  63.132  1.00  0.00     0.016 A 
HETATM   28  C   UNL     1      44.980   5.824  63.873  1.00  0.00     0.003 A 
HETATM   29  C   UNL     1      44.092   6.355  64.809  1.00  0.00     0.029 A 
BRANCH  26  30
HETATM   30  C   UNL     1      46.613   8.961  62.532  1.00  0.00     0.417 C 
HETATM   31  F   UNL     1      47.930   8.603  62.552  1.00  0.00    -0.166 F 
HETATM   32  F   UNL     1      46.280   9.023  61.209  1.00  0.00    -0.166 F 
HETATM   33  F   UNL     1      46.577  10.251  62.979  1.00  0.00    -0.166 F 
ENDBRANCH  26  30
ENDBRANCH  22  24
ENDBRANCH   5  22
TORSDOF 7
ENDMDL
MODEL 2
REMARK VINA RESULT:      -6.3      7.444     10.569
REMARK  7 active torsions:
REMARK  status: ('A' for Active; 'I' for Inactive)
REMARK       I    between atoms: N_5  and  C_13 
REMARK    1  A    between atoms: N_5  and  C_14 
REMARK    2  A    between atoms: N_6  and  C_17 
REMARK    3  A    between atoms: N_6  and  C_20 
REMARK    4  A    between atoms: N_7  and  C_21 
REMARK    5  A    between atoms: N_7  and  C_23 
REMARK    6  A    between atoms: C_10  and  C_13 
REMARK    7  A    between atoms: C_24  and  C_29 
ROOT
HETATM    1  N   UNL     1      46.289   3.400  69.626  1.00  0.00    -0.224 NA
HETATM    2  N   UNL     1      45.822   5.525  68.590  1.00  0.00    -0.224 NA
HETATM    3  C   UNL     1      45.109   2.951  69.150  1.00  0.00     0.133 A 
HETATM    4  C   UNL     1      44.243   3.719  68.397  1.00  0.00     0.100 A 
HETATM    5  C   UNL     1      44.651   5.016  68.142  1.00  0.00     0.133 A 
HETATM    6  C   UNL     1      46.578   4.678  69.314  1.00  0.00     0.237 A 
ENDROOT
BRANCH   3   7
HETATM    7  N   UNL     1      44.722   1.618  69.431  1.00  0.00    -0.341 N 
HETATM    8  H   UNL     1      44.651   1.034  68.603  1.00  0.00     0.167 HD
BRANCH   7   9
HETATM    9  C   UNL     1      44.427   0.949  70.631  1.00  0.00     0.035 A 
HETATM   10  C   UNL     1      44.235  -0.435  70.637  1.00  0.00     0.059 A 
HETATM   11  C   UNL     1      43.944  -1.098  71.829  1.00  0.00     0.036 A 
HETATM   12  C   UNL     1      43.842  -0.379  73.021  1.00  0.00     0.029 A 
HETATM   13  C   UNL     1      44.032   1.003  73.020  1.00  0.00     0.004 A 
HETATM   14  C   UNL     1      44.323   1.666  71.827  1.00  0.00     0.029 A 
BRANCH  11  15
HETATM   15  N   UNL     1      43.754  -2.480  71.831  1.00  0.00    -0.327 N 
HETATM   16  C   UNL     1      44.726  -3.483  71.872  1.00  0.00     0.226 C 
HETATM   17  O   UNL     1      45.941  -3.348  71.916  1.00  0.00    -0.273 OA
HETATM   18  H   UNL     1      42.784  -2.785  71.791  1.00  0.00     0.169 HD
BRANCH  16  19
HETATM   19  C   UNL     1      44.164  -4.871  71.860  1.00  0.00     0.078 A 
HETATM   20  C   UNL     1      43.192  -5.247  72.921  1.00  0.00     0.015 A 
HETATM   21  C   UNL     1      44.583  -5.808  72.938  1.00  0.00     0.015 A 
ENDBRANCH  16  19
ENDBRANCH  11  15
ENDBRANCH   7   9
ENDBRANCH   3   7
BRANCH   5  22
HETATM   22  N   UNL     1      43.796   5.832  67.377  1.00  0.00    -0.341 N 
HETATM   23  H   UNL     1      42.856   5.452  67.295  1.00  0.00     0.167 HD
BRANCH  22  24
HETATM   24  C   UNL     1      44.041   6.870  66.455  1.00  0.00     0.034 A 
HETATM   25  C   UNL     1      44.776   6.617  65.296  1.00  0.00     0.045 A 
HETATM   26  C   UNL     1      45.016   7.644  64.384  1.00  0.00     0.050 A 
HETATM   27  C   UNL     1      44.522   8.925  64.630  1.00  0.00     0.016 A 
HETATM   28  C   UNL     1      43.787   9.179  65.788  1.00  0.00     0.003 A 
HETATM   29  C   UNL     1      43.547   8.151  66.700  1.00  0.00     0.029 A 
BRANCH  26  30
HETATM   30  C   UNL     1      45.803   7.373  63.145  1.00  0.00     0.417 C 
HETATM   31  F   UNL     1      45.471   8.184  62.098  1.00  0.00    -0.166 F 
HETATM   32  F   UNL     1      47.149   7.534  63.307  1.00  0.00    -0.166 F 
HETATM   33  F   UNL     1      45.638   6.098  62.687  1.00  0.00    -0.166 F 
ENDBRANCH  26  30
ENDBRANCH  22  24
ENDBRANCH   5  22
TORSDOF 7
ENDMDL
MODEL 3
REMARK VINA RESULT:      -6.3      2.688      3.798
REMARK  7 active torsions:
REMARK  status: ('A' for Active; 'I' for Inactive)
REMARK       I    between atoms: N_5  and  C_13 
REMARK    1  A    between atoms: N_5  and  C_14 
REMARK    2  A    between atoms: N_6  and  C_17 
REMARK    3  A    between atoms: N_6  and  C_20 
REMARK    4  A    between atoms: N_7  and  C_21 
REMARK    5  A    between atoms: N_7  and  C_23 
REMARK    6  A    between atoms: C_10  and  C_13 
REMARK    7  A    between atoms: C_24  and  C_29 
ROOT
HETATM    1  N   UNL     1      41.705   9.476  71.560  1.00  0.00    -0.224 NA
HETATM    2  N   UNL     1      43.291   8.441  70.069  1.00  0.00    -0.224 NA
HETATM    3  C   UNL     1      40.733   9.177  70.673  1.00  0.00     0.133 A 
HETATM    4  C   UNL     1      40.959   8.521  69.480  1.00  0.00     0.100 A 
HETATM    5  C   UNL     1      42.271   8.170  69.221  1.00  0.00     0.133 A 
HETATM    6  C   UNL     1      42.943   9.086  71.199  1.00  0.00     0.237 A 
ENDROOT
BRANCH   3   7
HETATM    7  N   UNL     1      39.400   9.552  70.970  1.00  0.00    -0.341 N 
HETATM    8  H   UNL     1      38.848   8.800  71.373  1.00  0.00     0.167 HD
BRANCH   7   9
HETATM    9  C   UNL     1      38.699  10.760  70.821  1.00  0.00     0.035 A 
HETATM   10  C   UNL     1      37.326  10.814  71.075  1.00  0.00     0.059 A 
HETATM   11  C   UNL     1      36.632  12.015  70.928  1.00  0.00     0.036 A 
HETATM   12  C   UNL     1      37.308  13.167  70.527  1.00  0.00     0.029 A 
HETATM   13  C   UNL     1      38.678  13.119  70.272  1.00  0.00     0.004 A 
HETATM   14  C   UNL     1      39.372  11.917  70.418  1.00  0.00     0.029 A 
BRANCH  11  15
HETATM   15  N   UNL     1      35.261  12.064  71.184  1.00  0.00    -0.327 N 
HETATM   16  C   UNL     1      34.572  11.558  72.289  1.00  0.00     0.226 C 
HETATM   17  O   UNL     1      35.036  10.970  73.257  1.00  0.00    -0.273 OA
HETATM   18  H   UNL     1      34.702  12.523  70.468  1.00  0.00     0.169 HD
BRANCH  16  19
HETATM   19  C   UNL     1      33.094  11.790  72.239  1.00  0.00     0.078 A 
HETATM   20  C   UNL     1      32.580  13.143  72.582  1.00  0.00     0.015 A 
HETATM   21  C   UNL     1      32.369  11.993  73.523  1.00  0.00     0.015 A 
ENDBRANCH  16  19
ENDBRANCH  11  15
ENDBRANCH   7   9
ENDBRANCH   3   7
BRANCH   5  22
HETATM   22  N   UNL     1      42.544   7.499  68.014  1.00  0.00    -0.341 N 
HETATM   23  H   UNL     1      42.389   6.495  68.077  1.00  0.00     0.167 HD
BRANCH  22  24
HETATM   24  C   UNL     1      43.275   7.861  66.864  1.00  0.00     0.034 A 
HETATM   25  C   UNL     1      43.759   6.875  66.004  1.00  0.00     0.045 A 
HETATM   26  C   UNL     1      44.480   7.234  64.866  1.00  0.00     0.050 A 
HETATM   27  C   UNL     1      44.718   8.580  64.587  1.00  0.00     0.016 A 
HETATM   28  C   UNL     1      44.235   9.566  65.446  1.00  0.00     0.003 A 
HETATM   29  C   UNL     1      43.513   9.207  66.585  1.00  0.00     0.029 A 
BRANCH  26  30
HETATM   30  C   UNL     1      44.998   6.179  63.947  1.00  0.00     0.417 C 
HETATM   31  F   UNL     1      46.118   5.550  64.411  1.00  0.00    -0.166 F 
HETATM   32  F   UNL     1      44.102   5.179  63.703  1.00  0.00    -0.166 F 
HETATM   33  F   UNL     1      45.338   6.673  62.720  1.00  0.00    -0.166 F 
ENDBRANCH  26  30
ENDBRANCH  22  24
ENDBRANCH   5  22
TORSDOF 7
ENDMDL
MODEL 4
REMARK VINA RESULT:      -6.3      4.956      9.480
REMARK  7 active torsions:
REMARK  status: ('A' for Active; 'I' for Inactive)
REMARK       I    between atoms: N_5  and  C_13 
REMARK    1  A    between atoms: N_5  and  C_14 
REMARK    2  A    between atoms: N_6  and  C_17 
REMARK    3  A    between atoms: N_6  and  C_20 
REMARK    4  A    between atoms: N_7  and  C_21 
REMARK    5  A    between atoms: N_7  and  C_23 
REMARK    6  A    between atoms: C_10  and  C_13 
REMARK    7  A    between atoms: C_24  and  C_29 
ROOT
HETATM    1  N   UNL     1      42.824   8.184  70.644  1.00  0.00    -0.224 NA
HETATM    2  N   UNL     1      41.207   8.388  72.419  1.00  0.00    -0.224 NA
HETATM    3  C   UNL     1      41.807   8.259  69.759  1.00  0.00     0.133 A 
HETATM    4  C   UNL     1      40.483   8.398  70.123  1.00  0.00     0.100 A 
HETATM    5  C   UNL     1      40.232   8.458  71.482  1.00  0.00     0.133 A 
HETATM    6  C   UNL     1      42.457   8.253  71.938  1.00  0.00     0.237 A 
ENDROOT
BRANCH   3   7
HETATM    7  N   UNL     1      42.101   8.194  68.375  1.00  0.00    -0.341 N 
HETATM    8  H   UNL     1      41.616   7.442  67.894  1.00  0.00     0.167 HD
BRANCH   7   9
HETATM    9  C   UNL     1      42.924   8.970  67.543  1.00  0.00     0.035 A 
HETATM   10  C   UNL     1      43.338   8.476  66.303  1.00  0.00     0.059 A 
HETATM   11  C   UNL     1      44.154   9.248  65.478  1.00  0.00     0.036 A 
HETATM   12  C   UNL     1      44.559  10.519  65.887  1.00  0.00     0.029 A 
HETATM   13  C   UNL     1      44.148  11.017  67.123  1.00  0.00     0.004 A 
HETATM   14  C   UNL     1      43.333  10.244  67.950  1.00  0.00     0.029 A 
BRANCH  11  15
HETATM   15  N   UNL     1      44.565   8.751  64.240  1.00  0.00    -0.327 N 
HETATM   16  C   UNL     1      45.604   7.856  63.973  1.00  0.00     0.226 C 
HETATM   17  O   UNL     1      46.362   7.327  64.775  1.00  0.00    -0.273 OA
HETATM   18  H   UNL     1      44.040   9.094  63.439  1.00  0.00     0.169 HD
BRANCH  16  19
HETATM   19  C   UNL     1      45.768   7.535  62.520  1.00  0.00     0.078 A 
HETATM   20  C   UNL     1      47.132   7.214  62.019  1.00  0.00     0.015 A 
HETATM   21  C   UNL     1      46.482   8.517  61.658  1.00  0.00     0.015 A 
ENDBRANCH  16  19
ENDBRANCH  11  15
ENDBRANCH   7   9
ENDBRANCH   3   7
BRANCH   5  22
HETATM   22  N   UNL     1      38.893   8.600  71.895  1.00  0.00    -0.341 N 
HETATM   23  H   UNL     1      38.371   7.728  71.848  1.00  0.00     0.167 HD
BRANCH  22  24
HETATM   24  C   UNL     1      38.055   9.724  72.048  1.00  0.00     0.034 A 
HETATM   25  C   UNL     1      38.103  10.762  71.118  1.00  0.00     0.045 A 
HETATM   26  C   UNL     1      37.273  11.872  71.269  1.00  0.00     0.050 A 
HETATM   27  C   UNL     1      36.394  11.944  72.350  1.00  0.00     0.016 A 
HETATM   28  C   UNL     1      36.346  10.906  73.280  1.00  0.00     0.003 A 
HETATM   29  C   UNL     1      37.177   9.796  73.129  1.00  0.00     0.029 A 
BRANCH  26  30
HETATM   30  C   UNL     1      37.324  12.983  70.274  1.00  0.00     0.417 C 
HETATM   31  F   UNL     1      36.546  14.054  70.610  1.00  0.00    -0.166 F 
HETATM   32  F   UNL     1      38.576  13.495  70.092  1.00  0.00    -0.166 F 
HETATM   33  F   UNL     1      36.901  12.598  69.034  1.00  0.00    -0.166 F 
ENDBRANCH  26  30
ENDBRANCH  22  24
ENDBRANCH   5  22
TORSDOF 7
ENDMDL
MODEL 5
REMARK VINA RESULT:      -6.2      2.128      3.167
REMARK  7 active torsions:
REMARK  status: ('A' for Active; 'I' for Inactive)
REMARK       I    between atoms: N_5  and  C_13 
REMARK    1  A    between atoms: N_5  and  C_14 
REMARK    2  A    between atoms: N_6  and  C_17 
REMARK    3  A    between atoms: N_6  and  C_20 
REMARK    4  A    between atoms: N_7  and  C_21 
REMARK    5  A    between atoms: N_7  and  C_23 
REMARK    6  A    between atoms: C_10  and  C_13 
REMARK    7  A    between atoms: C_24  and  C_29 
ROOT
HETATM    1  N   UNL     1      43.397  10.120  69.706  1.00  0.00    -0.224 NA
HETATM    2  N   UNL     1      43.659  10.333  67.320  1.00  0.00    -0.224 NA
HETATM    3  C   UNL     1      42.898   8.883  69.503  1.00  0.00     0.133 A 
HETATM    4  C   UNL     1      42.751   8.310  68.256  1.00  0.00     0.100 A 
HETATM    5  C   UNL     1      43.151   9.086  67.183  1.00  0.00     0.133 A 
HETATM    6  C   UNL     1      43.752  10.780  68.587  1.00  0.00     0.237 A 
ENDROOT
BRANCH   3   7
HETATM    7  N   UNL     1      42.498   8.116  70.625  1.00  0.00    -0.341 N 
HETATM    8  H   UNL     1      43.167   7.396  70.883  1.00  0.00     0.167 HD
BRANCH   7   9
HETATM    9  C   UNL     1      41.361   8.164  71.449  1.00  0.00     0.035 A 
HETATM   10  C   UNL     1      40.289   9.000  71.123  1.00  0.00     0.059 A 
HETATM   11  C   UNL     1      39.161   9.045  71.941  1.00  0.00     0.036 A 
HETATM   12  C   UNL     1      39.099   8.255  73.089  1.00  0.00     0.029 A 
HETATM   13  C   UNL     1      40.166   7.420  73.419  1.00  0.00     0.004 A 
HETATM   14  C   UNL     1      41.295   7.375  72.601  1.00  0.00     0.029 A 
BRANCH  11  15
HETATM   15  N   UNL     1      38.093   9.881  71.611  1.00  0.00    -0.327 N 
HETATM   16  C   UNL     1      37.976  11.256  71.828  1.00  0.00     0.226 C 
HETATM   17  O   UNL     1      38.791  12.005  72.351  1.00  0.00    -0.273 OA
HETATM   18  H   UNL     1      37.304   9.420  71.163  1.00  0.00     0.169 HD
BRANCH  16  19
HETATM   19  C   UNL     1      36.684  11.837  71.344  1.00  0.00     0.078 A 
HETATM   20  C   UNL     1      35.700  10.928  70.697  1.00  0.00     0.015 A 
HETATM   21  C   UNL     1      36.459  11.928  69.875  1.00  0.00     0.015 A 
ENDBRANCH  16  19
ENDBRANCH  11  15
ENDBRANCH   7   9
ENDBRANCH   3   7
BRANCH   5  22
HETATM   22  N   UNL     1      43.018   8.538  65.893  1.00  0.00    -0.341 N 
HETATM   23  H   UNL     1      42.052   8.336  65.647  1.00  0.00     0.167 HD
BRANCH  22  24
HETATM   24  C   UNL     1      43.938   7.925  65.017  1.00  0.00     0.034 A 
HETATM   25  C   UNL     1      44.797   8.707  64.246  1.00  0.00     0.045 A 
HETATM   26  C   UNL     1      45.707   8.099  63.381  1.00  0.00     0.050 A 
HETATM   27  C   UNL     1      45.757   6.709  63.287  1.00  0.00     0.016 A 
HETATM   28  C   UNL     1      44.898   5.926  64.058  1.00  0.00     0.003 A 
HETATM   29  C   UNL     1      43.988   6.534  64.923  1.00  0.00     0.029 A 
BRANCH  26  30
HETATM   30  C   UNL     1      46.626   8.936  62.556  1.00  0.00     0.417 C 
HETATM   31  F   UNL     1      46.635  10.254  62.912  1.00  0.00    -0.166 F 
HETATM   32  F   UNL     1      47.931   8.540  62.621  1.00  0.00    -0.166 F 
HETATM   33  F   UNL     1      46.303   8.918  61.229  1.00  0.00    -0.166 F 
ENDBRANCH  26  30
ENDBRANCH  22  24
ENDBRANCH   5  22
TORSDOF 7
ENDMDL
MODEL 6
REMARK VINA RESULT:      -6.2     10.239     12.451
REMARK  7 active torsions:
REMARK  status: ('A' for Active; 'I' for Inactive)
REMARK       I    between atoms: N_5  and  C_13 
REMARK    1  A    between atoms: N_5  and  C_14 
REMARK    2  A    between atoms: N_6  and  C_17 
REMARK    3  A    between atoms: N_6  and  C_20 
REMARK    4  A    between atoms: N_7  and  C_21 
REMARK    5  A    between atoms: N_7  and  C_23 
REMARK    6  A    between atoms: C_10  and  C_13 
REMARK    7  A    between atoms: C_24  and  C_29 
ROOT
HETATM    1  N   UNL     1      44.433   1.527  71.399  1.00  0.00    -0.224 NA
HETATM    2  N   UNL     1      44.700  -0.763  72.098  1.00  0.00    -0.224 NA
HETATM    3  C   UNL     1      44.421   1.097  70.120  1.00  0.00     0.133 A 
HETATM    4  C   UNL     1      44.540  -0.229  69.756  1.00  0.00     0.100 A 
HETATM    5  C   UNL     1      44.680  -1.131  70.796  1.00  0.00     0.133 A 
HETATM    6  C   UNL     1      44.575   0.559  72.323  1.00  0.00     0.237 A 
ENDROOT
BRANCH   3   7
HETATM    7  N   UNL     1      44.277   2.048  69.081  1.00  0.00    -0.341 N 
HETATM    8  H   UNL     1      43.493   1.857  68.463  1.00  0.00     0.167 HD
BRANCH   7   9
HETATM    9  C   UNL     1      45.001   3.204  68.747  1.00  0.00     0.035 A 
HETATM   10  C   UNL     1      44.362   4.283  68.130  1.00  0.00     0.059 A 
HETATM   11  C   UNL     1      45.082   5.430  67.801  1.00  0.00     0.036 A 
HETATM   12  C   UNL     1      46.446   5.505  68.086  1.00  0.00     0.029 A 
HETATM   13  C   UNL     1      47.089   4.431  68.701  1.00  0.00     0.004 A 
HETATM   14  C   UNL     1      46.368   3.283  69.030  1.00  0.00     0.029 A 
BRANCH  11  15
HETATM   15  N   UNL     1      44.439   6.506  67.186  1.00  0.00    -0.327 N 
HETATM   16  C   UNL     1      43.997   6.604  65.865  1.00  0.00     0.226 C 
HETATM   17  O   UNL     1      44.085   5.763  64.979  1.00  0.00    -0.273 OA
HETATM   18  H   UNL     1      44.283   7.316  67.782  1.00  0.00     0.169 HD
BRANCH  16  19
HETATM   19  C   UNL     1      43.343   7.911  65.540  1.00  0.00     0.078 A 
HETATM   20  C   UNL     1      44.173   9.145  65.584  1.00  0.00     0.015 A 
HETATM   21  C   UNL     1      43.142   8.891  66.643  1.00  0.00     0.015 A 
ENDBRANCH  16  19
ENDBRANCH  11  15
ENDBRANCH   7   9
ENDBRANCH   3   7
BRANCH   5  22
HETATM   22  N   UNL     1      44.805  -2.495  70.467  1.00  0.00    -0.341 N 
HETATM   23  H   UNL     1      44.492  -2.703  69.521  1.00  0.00     0.167 HD
BRANCH  22  24
HETATM   24  C   UNL     1      44.962  -3.656  71.252  1.00  0.00     0.034 A 
HETATM   25  C   UNL     1      43.840  -4.358  71.693  1.00  0.00     0.045 A 
HETATM   26  C   UNL     1      43.996  -5.506  72.468  1.00  0.00     0.050 A 
HETATM   27  C   UNL     1      45.274  -5.954  72.802  1.00  0.00     0.016 A 
HETATM   28  C   UNL     1      46.396  -5.253  72.362  1.00  0.00     0.003 A 
HETATM   29  C   UNL     1      46.240  -4.103  71.586  1.00  0.00     0.029 A 
BRANCH  26  30
HETATM   30  C   UNL     1      42.796  -6.257  72.940  1.00  0.00     0.417 C 
HETATM   31  F   UNL     1      42.035  -5.565  73.837  1.00  0.00    -0.166 F 
HETATM   32  F   UNL     1      41.938  -6.602  71.935  1.00  0.00    -0.166 F 
HETATM   33  F   UNL     1      43.121  -7.429  73.562  1.00  0.00    -0.166 F 
ENDBRANCH  26  30
ENDBRANCH  22  24
ENDBRANCH   5  22
TORSDOF 7
ENDMDL
MODEL 7
REMARK VINA RESULT:      -6.2      5.209      8.475
REMARK  7 active torsions:
REMARK  status: ('A' for Active; 'I' for Inactive)
REMARK       I    between atoms: N_5  and  C_13 
REMARK    1  A    between atoms: N_5  and  C_14 
REMARK    2  A    between atoms: N_6  and  C_17 
REMARK    3  A    between atoms: N_6  and  C_20 
REMARK    4  A    between atoms: N_7  and  C_21 
REMARK    5  A    between atoms: N_7  and  C_23 
REMARK    6  A    between atoms: C_10  and  C_13 
REMARK    7  A    between atoms: C_24  and  C_29 
ROOT
HETATM    1  N   UNL     1      43.759   7.580  70.534  1.00  0.00    -0.224 NA
HETATM    2  N   UNL     1      42.865   8.353  68.435  1.00  0.00    -0.224 NA
HETATM    3  C   UNL     1      44.212   6.482  69.895  1.00  0.00     0.133 A 
HETATM    4  C   UNL     1      44.034   6.252  68.545  1.00  0.00     0.100 A 
HETATM    5  C   UNL     1      43.345   7.230  67.851  1.00  0.00     0.133 A 
HETATM    6  C   UNL     1      43.103   8.461  69.756  1.00  0.00     0.237 A 
ENDROOT
BRANCH   3   7
HETATM    7  N   UNL     1      44.914   5.500  70.637  1.00  0.00    -0.341 N 
HETATM    8  H   UNL     1      45.900   5.711  70.756  1.00  0.00     0.167 HD
BRANCH   7   9
HETATM    9  C   UNL     1      44.507   4.300  71.243  1.00  0.00     0.035 A 
HETATM   10  C   UNL     1      45.038   3.080  70.815  1.00  0.00     0.059 A 
HETATM   11  C   UNL     1      44.635   1.889  71.418  1.00  0.00     0.036 A 
HETATM   12  C   UNL     1      43.698   1.913  72.452  1.00  0.00     0.029 A 
HETATM   13  C   UNL     1      43.165   3.127  72.882  1.00  0.00     0.004 A 
HETATM   14  C   UNL     1      43.569   4.319  72.278  1.00  0.00     0.029 A 
BRANCH  11  15
HETATM   15  N   UNL     1      45.168   0.673  70.988  1.00  0.00    -0.327 N 
HETATM   16  C   UNL     1      44.693  -0.168  69.979  1.00  0.00     0.226 C 
HETATM   17  O   UNL     1      43.710  -0.004  69.268  1.00  0.00    -0.273 OA
HETATM   18  H   UNL     1      46.004   0.368  71.482  1.00  0.00     0.169 HD
BRANCH  16  19
HETATM   19  C   UNL     1      45.517  -1.401  69.781  1.00  0.00     0.078 A 
HETATM   20  C   UNL     1      45.218  -2.592  70.621  1.00  0.00     0.015 A 
HETATM   21  C   UNL     1      46.466  -1.795  70.857  1.00  0.00     0.015 A 
ENDBRANCH  16  19
ENDBRANCH  11  15
ENDBRANCH   7   9
ENDBRANCH   3   7
BRANCH   5  22
HETATM   22  N   UNL     1      43.142   7.034  66.472  1.00  0.00    -0.341 N 
HETATM   23  H   UNL     1      42.238   6.616  66.261  1.00  0.00     0.167 HD
BRANCH  22  24
HETATM   24  C   UNL     1      44.025   6.993  65.373  1.00  0.00     0.034 A 
HETATM   25  C   UNL     1      44.787   8.115  65.047  1.00  0.00     0.045 A 
HETATM   26  C   UNL     1      45.661   8.073  63.962  1.00  0.00     0.050 A 
HETATM   27  C   UNL     1      45.773   6.909  63.201  1.00  0.00     0.016 A 
HETATM   28  C   UNL     1      45.011   5.787  63.526  1.00  0.00     0.003 A 
HETATM   29  C   UNL     1      44.137   5.829  64.612  1.00  0.00     0.029 A 
BRANCH  26  30
HETATM   30  C   UNL     1      46.477   9.273  63.614  1.00  0.00     0.417 C 
HETATM   31  F   UNL     1      47.816   9.104  63.821  1.00  0.00    -0.166 F 
HETATM   32  F   UNL     1      46.364   9.649  62.306  1.00  0.00    -0.166 F 
HETATM   33  F   UNL     1      46.129  10.374  64.343  1.00  0.00    -0.166 F 
ENDBRANCH  26  30
ENDBRANCH  22  24
ENDBRANCH   5  22
TORSDOF 7
ENDMDL
MODEL 8
REMARK VINA RESULT:      -6.1     11.317     13.810
REMARK  7 active torsions:
REMARK  status: ('A' for Active; 'I' for Inactive)
REMARK       I    between atoms: N_5  and  C_13 
REMARK    1  A    between atoms: N_5  and  C_14 
REMARK    2  A    between atoms: N_6  and  C_17 
REMARK    3  A    between atoms: N_6  and  C_20 
REMARK    4  A    between atoms: N_7  and  C_21 
REMARK    5  A    between atoms: N_7  and  C_23 
REMARK    6  A    between atoms: C_10  and  C_13 
REMARK    7  A    between atoms: C_24  and  C_29 
ROOT
HETATM    1  N   UNL     1      46.068  -1.277  69.170  1.00  0.00    -0.224 NA
HETATM    2  N   UNL     1      46.486  -3.122  70.663  1.00  0.00    -0.224 NA
HETATM    3  C   UNL     1      45.024  -0.929  69.952  1.00  0.00     0.133 A 
HETATM    4  C   UNL     1      44.655  -1.618  71.089  1.00  0.00     0.100 A 
HETATM    5  C   UNL     1      45.427  -2.722  71.405  1.00  0.00     0.133 A 
HETATM    6  C   UNL     1      46.744  -2.368  69.578  1.00  0.00     0.237 A 
ENDROOT
BRANCH   3   7
HETATM    7  N   UNL     1      44.255   0.206  69.597  1.00  0.00    -0.341 N 
HETATM    8  H   UNL     1      43.426  -0.020  69.055  1.00  0.00     0.167 HD
BRANCH   7   9
HETATM    9  C   UNL     1      44.414   1.577  69.856  1.00  0.00     0.035 A 
HETATM   10  C   UNL     1      44.317   2.506  68.817  1.00  0.00     0.059 A 
HETATM   11  C   UNL     1      44.474   3.867  69.075  1.00  0.00     0.036 A 
HETATM   12  C   UNL     1      44.728   4.306  70.375  1.00  0.00     0.029 A 
HETATM   13  C   UNL     1      44.825   3.383  71.416  1.00  0.00     0.004 A 
HETATM   14  C   UNL     1      44.669   2.021  71.157  1.00  0.00     0.029 A 
BRANCH  11  15
HETATM   15  N   UNL     1      44.376   4.791  68.034  1.00  0.00    -0.327 N 
HETATM   16  C   UNL     1      45.404   5.312  67.245  1.00  0.00     0.226 C 
HETATM   17  O   UNL     1      46.600   5.060  67.309  1.00  0.00    -0.273 OA
HETATM   18  H   UNL     1      43.434   5.125  67.837  1.00  0.00     0.169 HD
BRANCH  16  19
HETATM   19  C   UNL     1      44.938   6.289  66.211  1.00  0.00     0.078 A 
HETATM   20  C   UNL     1      43.579   6.877  66.357  1.00  0.00     0.015 A 
HETATM   21  C   UNL     1      43.854   5.868  65.282  1.00  0.00     0.015 A 
ENDBRANCH  16  19
ENDBRANCH  11  15
ENDBRANCH   7   9
ENDBRANCH   3   7
BRANCH   5  22
HETATM   22  N   UNL     1      45.084  -3.452  72.559  1.00  0.00    -0.341 N 
HETATM   23  H   UNL     1      45.796  -3.403  73.284  1.00  0.00     0.167 HD
BRANCH  22  24
HETATM   24  C   UNL     1      44.141  -4.474  72.797  1.00  0.00     0.034 A 
HETATM   25  C   UNL     1      43.684  -4.716  74.092  1.00  0.00     0.045 A 
HETATM   26  C   UNL     1      42.751  -5.725  74.326  1.00  0.00     0.050 A 
HETATM   27  C   UNL     1      42.275  -6.494  73.264  1.00  0.00     0.016 A 
HETATM   28  C   UNL     1      42.731  -6.253  71.968  1.00  0.00     0.003 A 
HETATM   29  C   UNL     1      43.665  -5.243  71.735  1.00  0.00     0.029 A 
BRANCH  26  30
HETATM   30  C   UNL     1      42.263  -5.984  75.712  1.00  0.00     0.417 C 
HETATM   31  F   UNL     1      42.856  -5.198  76.657  1.00  0.00    -0.166 F 
HETATM   32  F   UNL     1      40.922  -5.777  75.865  1.00  0.00    -0.166 F 
HETATM   33  F   UNL     1      42.483  -7.270  76.114  1.00  0.00    -0.166 F 
ENDBRANCH  26  30
ENDBRANCH  22  24
ENDBRANCH   5  22
TORSDOF 7
ENDMDL
MODEL 9
REMARK VINA RESULT:      -6.1      5.798      8.717
REMARK  7 active torsions:
REMARK  status: ('A' for Active; 'I' for Inactive)
REMARK       I    between atoms: N_5  and  C_13 
REMARK    1  A    between atoms: N_5  and  C_14 
REMARK    2  A    between atoms: N_6  and  C_17 
REMARK    3  A    between atoms: N_6  and  C_20 
REMARK    4  A    between atoms: N_7  and  C_21 
REMARK    5  A    between atoms: N_7  and  C_23 
REMARK    6  A    between atoms: C_10  and  C_13 
REMARK    7  A    between atoms: C_24  and  C_29 
ROOT
HETATM    1  N   UNL     1      46.314   3.421  69.620  1.00  0.00    -0.224 NA
HETATM    2  N   UNL     1      45.807   5.531  68.572  1.00  0.00    -0.224 NA
HETATM    3  C   UNL     1      45.141   2.948  69.150  1.00  0.00     0.133 A 
HETATM    4  C   UNL     1      44.261   3.695  68.395  1.00  0.00     0.100 A 
HETATM    5  C   UNL     1      44.645   4.998  68.130  1.00  0.00     0.133 A 
HETATM    6  C   UNL     1      46.580   4.701  69.299  1.00  0.00     0.237 A 
ENDROOT
BRANCH   3   7
HETATM    7  N   UNL     1      44.779   1.610  69.441  1.00  0.00    -0.341 N 
HETATM    8  H   UNL     1      44.743   1.013  68.620  1.00  0.00     0.167 HD
BRANCH   7   9
HETATM    9  C   UNL     1      44.469   0.951  70.642  1.00  0.00     0.035 A 
HETATM   10  C   UNL     1      44.055   1.682  71.759  1.00  0.00     0.059 A 
HETATM   11  C   UNL     1      43.746   1.027  72.951  1.00  0.00     0.036 A 
HETATM   12  C   UNL     1      43.849  -0.362  73.031  1.00  0.00     0.029 A 
HETATM   13  C   UNL     1      44.262  -1.096  71.919  1.00  0.00     0.004 A 
HETATM   14  C   UNL     1      44.572  -0.440  70.727  1.00  0.00     0.029 A 
BRANCH  11  15
HETATM   15  N   UNL     1      43.333   1.761  74.064  1.00  0.00    -0.327 N 
HETATM   16  C   UNL     1      42.054   2.243  74.350  1.00  0.00     0.226 C 
HETATM   17  O   UNL     1      41.037   2.118  73.681  1.00  0.00    -0.273 OA
HETATM   18  H   UNL     1      44.063   1.969  74.742  1.00  0.00     0.169 HD
BRANCH  16  19
HETATM   19  C   UNL     1      41.966   2.996  75.642  1.00  0.00     0.078 A 
HETATM   20  C   UNL     1      40.727   2.859  76.455  1.00  0.00     0.015 A 
HETATM   21  C   UNL     1      41.016   4.139  75.727  1.00  0.00     0.015 A 
ENDBRANCH  16  19
ENDBRANCH  11  15
ENDBRANCH   7   9
ENDBRANCH   3   7
BRANCH   5  22
HETATM   22  N   UNL     1      43.774   5.794  67.362  1.00  0.00    -0.341 N 
HETATM   23  H   UNL     1      42.858   5.369  67.236  1.00  0.00     0.167 HD
BRANCH  22  24
HETATM   24  C   UNL     1      43.994   6.873  66.481  1.00  0.00     0.034 A 
HETATM   25  C   UNL     1      44.740   6.684  65.317  1.00  0.00     0.045 A 
HETATM   26  C   UNL     1      44.955   7.752  64.446  1.00  0.00     0.050 A 
HETATM   27  C   UNL     1      44.426   9.009  64.739  1.00  0.00     0.016 A 
HETATM   28  C   UNL     1      43.681   9.198  65.903  1.00  0.00     0.003 A 
HETATM   29  C   UNL     1      43.465   8.130  66.774  1.00  0.00     0.029 A 
BRANCH  26  30
HETATM   30  C   UNL     1      45.753   7.550  63.202  1.00  0.00     0.417 C 
HETATM   31  F   UNL     1      45.684   8.600  62.331  1.00  0.00    -0.166 F 
HETATM   32  F   UNL     1      47.086   7.365  63.432  1.00  0.00    -0.166 F 
HETATM   33  F   UNL     1      45.348   6.457  62.490  1.00  0.00    -0.166 F 
ENDBRANCH  26  30
ENDBRANCH  22  24
ENDBRANCH   5  22
TORSDOF 7
ENDMDL
