MODEL 1
REMARK VINA RESULT:      -6.2      0.000      0.000
REMARK  7 active torsions:
REMARK  status: ('A' for Active; 'I' for Inactive)
REMARK       I    between atoms: N_5  and  C_13 
REMARK    1  A    between atoms: N_5  and  C_14 
REMARK    2  A    between atoms: N_6  and  C_17 
REMARK    3  A    between atoms: N_6  and  C_20 
REMARK    4  A    between atoms: N_7  and  C_21 
REMARK    5  A    between atoms: N_7  and  C_23 
REMARK    6  A    between atoms: C_10  and  C_13 
REMARK    7  A    between atoms: C_24  and  C_29 
ROOT
HETATM    1  N   UNL     1      42.144   7.920  70.556  1.00  0.00    -0.224 NA
HETATM    2  N   UNL     1      43.337   6.550  72.139  1.00  0.00    -0.224 NA
HETATM    3  C   UNL     1      43.030   7.536  69.613  1.00  0.00     0.133 A 
HETATM    4  C   UNL     1      44.080   6.673  69.854  1.00  0.00     0.100 A 
HETATM    5  C   UNL     1      44.192   6.203  71.150  1.00  0.00     0.133 A 
HETATM    6  C   UNL     1      42.355   7.397  71.779  1.00  0.00     0.237 A 
ENDROOT
BRANCH   3   7
HETATM    7  N   UNL     1      42.886   8.038  68.297  1.00  0.00    -0.341 N 
HETATM    8  H   UNL     1      41.999   7.793  67.865  1.00  0.00     0.167 HD
BRANCH   7   9
HETATM    9  C   UNL     1      43.727   8.811  67.480  1.00  0.00     0.035 A 
HETATM   10  C   UNL     1      44.091   8.354  66.210  1.00  0.00     0.059 A 
HETATM   11  C   UNL     1      44.925   9.123  65.400  1.00  0.00     0.036 A 
HETATM   12  C   UNL     1      45.399  10.354  65.855  1.00  0.00     0.029 A 
HETATM   13  C   UNL     1      45.038  10.815  67.121  1.00  0.00     0.004 A 
HETATM   14  C   UNL     1      44.205  10.045  67.932  1.00  0.00     0.029 A 
BRANCH  11  15
HETATM   15  N   UNL     1      45.285   8.663  64.132  1.00  0.00    -0.327 N 
HETATM   16  C   UNL     1      46.386   7.878  63.782  1.00  0.00     0.226 C 
HETATM   17  O   UNL     1      47.257   7.435  64.519  1.00  0.00    -0.273 OA
HETATM   18  H   UNL     1      44.664   8.944  63.376  1.00  0.00     0.169 HD
BRANCH  16  19
HETATM   19  C   UNL     1      46.466   7.566  62.320  1.00  0.00     0.078 A 
HETATM   20  C   UNL     1      47.746   7.033  61.782  1.00  0.00     0.015 A 
HETATM   21  C   UNL     1      47.317   8.434  61.460  1.00  0.00     0.015 A 
ENDBRANCH  16  19
ENDBRANCH  11  15
ENDBRANCH   7   9
ENDBRANCH   3   7
BRANCH   5  22
HETATM   22  N   UNL     1      45.251   5.320  71.437  1.00  0.00    -0.341 N 
HETATM   23  H   UNL     1      46.166   5.748  71.315  1.00  0.00     0.167 HD
BRANCH  22  24
HETATM   24  C   UNL     1      45.321   3.915  71.540  1.00  0.00     0.034 A 
HETATM   25  C   UNL     1      45.258   3.126  70.392  1.00  0.00     0.045 A 
HETATM   26  C   UNL     1      45.330   1.737  70.495  1.00  0.00     0.050 A 
HETATM   27  C   UNL     1      45.464   1.137  71.747  1.00  0.00     0.016 A 
HETATM   28  C   UNL     1      45.526   1.925  72.896  1.00  0.00     0.003 A 
HETATM   29  C   UNL     1      45.455   3.315  72.792  1.00  0.00     0.029 A 
BRANCH  26  30
HETATM   30  C   UNL     1      45.262   0.893  69.267  1.00  0.00     0.417 C 
HETATM   31  F   UNL     1      44.531  -0.249  69.427  1.00  0.00    -0.166 F 
HETATM   32  F   UNL     1      44.701   1.529  68.197  1.00  0.00    -0.166 F 
HETATM   33  F   UNL     1      46.494   0.482  68.844  1.00  0.00    -0.166 F 
ENDBRANCH  26  30
ENDBRANCH  22  24
ENDBRANCH   5  22
TORSDOF 7
ENDMDL
MODEL 2
REMARK VINA RESULT:      -6.2      5.391      7.616
REMARK  7 active torsions:
REMARK  status: ('A' for Active; 'I' for Inactive)
REMARK       I    between atoms: N_5  and  C_13 
REMARK    1  A    between atoms: N_5  and  C_14 
REMARK    2  A    between atoms: N_6  and  C_17 
REMARK    3  A    between atoms: N_6  and  C_20 
REMARK    4  A    between atoms: N_7  and  C_21 
REMARK    5  A    between atoms: N_7  and  C_23 
REMARK    6  A    between atoms: C_10  and  C_13 
REMARK    7  A    between atoms: C_24  and  C_29 
ROOT
HETATM    1  N   UNL     1      43.840   7.331  70.262  1.00  0.00    -0.224 NA
HETATM    2  N   UNL     1      42.255   8.331  71.777  1.00  0.00    -0.224 NA
HETATM    3  C   UNL     1      42.978   7.582  69.255  1.00  0.00     0.133 A 
HETATM    4  C   UNL     1      41.754   8.196  69.427  1.00  0.00     0.100 A 
HETATM    5  C   UNL     1      41.435   8.555  70.724  1.00  0.00     0.133 A 
HETATM    6  C   UNL     1      43.420   7.725  71.480  1.00  0.00     0.237 A 
ENDROOT
BRANCH   3   7
HETATM    7  N   UNL     1      43.337   7.199  67.939  1.00  0.00    -0.341 N 
HETATM    8  H   UNL     1      42.890   6.340  67.631  1.00  0.00     0.167 HD
BRANCH   7   9
HETATM    9  C   UNL     1      44.182   7.782  66.980  1.00  0.00     0.035 A 
HETATM   10  C   UNL     1      45.239   7.048  66.434  1.00  0.00     0.059 A 
HETATM   11  C   UNL     1      46.076   7.627  65.482  1.00  0.00     0.036 A 
HETATM   12  C   UNL     1      45.861   8.942  65.069  1.00  0.00     0.029 A 
HETATM   13  C   UNL     1      44.807   9.678  65.610  1.00  0.00     0.004 A 
HETATM   14  C   UNL     1      43.970   9.099  66.564  1.00  0.00     0.029 A 
BRANCH  11  15
HETATM   15  N   UNL     1      47.131   6.890  64.939  1.00  0.00    -0.327 N 
HETATM   16  C   UNL     1      47.133   6.119  63.775  1.00  0.00     0.226 C 
HETATM   17  O   UNL     1      46.208   5.935  62.994  1.00  0.00    -0.273 OA
HETATM   18  H   UNL     1      47.999   6.921  65.469  1.00  0.00     0.169 HD
BRANCH  16  19
HETATM   19  C   UNL     1      48.446   5.459  63.488  1.00  0.00     0.078 A 
HETATM   20  C   UNL     1      48.796   5.172  62.071  1.00  0.00     0.015 A 
HETATM   21  C   UNL     1      48.436   4.052  63.002  1.00  0.00     0.015 A 
ENDBRANCH  16  19
ENDBRANCH  11  15
ENDBRANCH   7   9
ENDBRANCH   3   7
BRANCH   5  22
HETATM   22  N   UNL     1      40.195   9.184  70.943  1.00  0.00    -0.341 N 
HETATM   23  H   UNL     1      39.418   8.527  70.975  1.00  0.00     0.167 HD
BRANCH  22  24
HETATM   24  C   UNL     1      39.765  10.521  70.809  1.00  0.00     0.034 A 
HETATM   25  C   UNL     1      40.702  11.554  70.764  1.00  0.00     0.045 A 
HETATM   26  C   UNL     1      40.276  12.875  70.629  1.00  0.00     0.050 A 
HETATM   27  C   UNL     1      38.915  13.164  70.541  1.00  0.00     0.016 A 
HETATM   28  C   UNL     1      37.978  12.132  70.586  1.00  0.00     0.003 A 
HETATM   29  C   UNL     1      38.404  10.810  70.721  1.00  0.00     0.029 A 
BRANCH  26  30
HETATM   30  C   UNL     1      41.277  13.981  70.581  1.00  0.00     0.417 C 
HETATM   31  F   UNL     1      42.192  13.848  69.576  1.00  0.00    -0.166 F 
HETATM   32  F   UNL     1      40.721  15.214  70.396  1.00  0.00    -0.166 F 
HETATM   33  F   UNL     1      42.008  14.078  71.730  1.00  0.00    -0.166 F 
ENDBRANCH  26  30
ENDBRANCH  22  24
ENDBRANCH   5  22
TORSDOF 7
ENDMDL
MODEL 3
REMARK VINA RESULT:      -6.1      8.190     14.043
REMARK  7 active torsions:
REMARK  status: ('A' for Active; 'I' for Inactive)
REMARK       I    between atoms: N_5  and  C_13 
REMARK    1  A    between atoms: N_5  and  C_14 
REMARK    2  A    between atoms: N_6  and  C_17 
REMARK    3  A    between atoms: N_6  and  C_20 
REMARK    4  A    between atoms: N_7  and  C_21 
REMARK    5  A    between atoms: N_7  and  C_23 
REMARK    6  A    between atoms: C_10  and  C_13 
REMARK    7  A    between atoms: C_24  and  C_29 
ROOT
HETATM    1  N   UNL     1      47.431  -4.712  71.129  1.00  0.00    -0.224 NA
HETATM    2  N   UNL     1      47.023  -2.841  69.666  1.00  0.00    -0.224 NA
HETATM    3  C   UNL     1      46.254  -4.449  71.733  1.00  0.00     0.133 A 
HETATM    4  C   UNL     1      45.417  -3.414  71.365  1.00  0.00     0.100 A 
HETATM    5  C   UNL     1      45.853  -2.629  70.313  1.00  0.00     0.133 A 
HETATM    6  C   UNL     1      47.750  -3.880  70.119  1.00  0.00     0.237 A 
ENDROOT
BRANCH   3   7
HETATM    7  N   UNL     1      45.839  -5.273  72.808  1.00  0.00    -0.341 N 
HETATM    8  H   UNL     1      46.558  -5.412  73.512  1.00  0.00     0.167 HD
BRANCH   7   9
HETATM    9  C   UNL     1      44.628  -5.926  73.089  1.00  0.00     0.035 A 
HETATM   10  C   UNL     1      43.969  -5.698  74.300  1.00  0.00     0.059 A 
HETATM   11  C   UNL     1      42.766  -6.346  74.577  1.00  0.00     0.036 A 
HETATM   12  C   UNL     1      42.215  -7.225  73.644  1.00  0.00     0.029 A 
HETATM   13  C   UNL     1      42.868  -7.455  72.434  1.00  0.00     0.004 A 
HETATM   14  C   UNL     1      44.073  -6.807  72.157  1.00  0.00     0.029 A 
BRANCH  11  15
HETATM   15  N   UNL     1      42.112  -6.115  75.788  1.00  0.00    -0.327 N 
HETATM   16  C   UNL     1      42.037  -6.956  76.901  1.00  0.00     0.226 C 
HETATM   17  O   UNL     1      42.534  -8.066  77.037  1.00  0.00    -0.273 OA
HETATM   18  H   UNL     1      41.627  -5.222  75.856  1.00  0.00     0.169 HD
BRANCH  16  19
HETATM   19  C   UNL     1      41.247  -6.386  78.038  1.00  0.00     0.078 A 
HETATM   20  C   UNL     1      41.350  -7.045  79.368  1.00  0.00     0.015 A 
HETATM   21  C   UNL     1      40.094  -7.172  78.557  1.00  0.00     0.015 A 
ENDBRANCH  16  19
ENDBRANCH  11  15
ENDBRANCH   7   9
ENDBRANCH   3   7
BRANCH   5  22
HETATM   22  N   UNL     1      45.028  -1.563  69.906  1.00  0.00    -0.341 N 
HETATM   23  H   UNL     1      44.445  -1.798  69.106  1.00  0.00     0.167 HD
BRANCH  22  24
HETATM   24  C   UNL     1      45.068  -0.175  70.157  1.00  0.00     0.034 A 
HETATM   25  C   UNL     1      44.815   0.311  71.439  1.00  0.00     0.045 A 
HETATM   26  C   UNL     1      44.857   1.683  71.686  1.00  0.00     0.050 A 
HETATM   27  C   UNL     1      45.151   2.569  70.650  1.00  0.00     0.016 A 
HETATM   28  C   UNL     1      45.404   2.084  69.367  1.00  0.00     0.003 A 
HETATM   29  C   UNL     1      45.362   0.711  69.121  1.00  0.00     0.029 A 
BRANCH  26  30
HETATM   30  C   UNL     1      44.586   2.203  73.058  1.00  0.00     0.417 C 
HETATM   31  F   UNL     1      43.793   3.314  73.075  1.00  0.00    -0.166 F 
HETATM   32  F   UNL     1      43.956   1.303  73.869  1.00  0.00    -0.166 F 
HETATM   33  F   UNL     1      45.726   2.557  73.720  1.00  0.00    -0.166 F 
ENDBRANCH  26  30
ENDBRANCH  22  24
ENDBRANCH   5  22
TORSDOF 7
ENDMDL
MODEL 4
REMARK VINA RESULT:      -6.1      5.694      9.296
REMARK  7 active torsions:
REMARK  status: ('A' for Active; 'I' for Inactive)
REMARK       I    between atoms: N_5  and  C_13 
REMARK    1  A    between atoms: N_5  and  C_14 
REMARK    2  A    between atoms: N_6  and  C_17 
REMARK    3  A    between atoms: N_6  and  C_20 
REMARK    4  A    between atoms: N_7  and  C_21 
REMARK    5  A    between atoms: N_7  and  C_23 
REMARK    6  A    between atoms: C_10  and  C_13 
REMARK    7  A    between atoms: C_24  and  C_29 
ROOT
HETATM    1  N   UNL     1      42.626   8.980  71.359  1.00  0.00    -0.224 NA
HETATM    2  N   UNL     1      44.274   7.913  69.962  1.00  0.00    -0.224 NA
HETATM    3  C   UNL     1      41.740   8.850  70.349  1.00  0.00     0.133 A 
HETATM    4  C   UNL     1      42.043   8.270  69.134  1.00  0.00     0.100 A 
HETATM    5  C   UNL     1      43.340   7.812  68.988  1.00  0.00     0.133 A 
HETATM    6  C   UNL     1      43.857   8.498  71.101  1.00  0.00     0.237 A 
ENDROOT
BRANCH   3   7
HETATM    7  N   UNL     1      40.421   9.331  70.533  1.00  0.00    -0.341 N 
HETATM    8  H   UNL     1      39.731   8.592  70.633  1.00  0.00     0.167 HD
BRANCH   7   9
HETATM    9  C   UNL     1      39.887  10.628  70.610  1.00  0.00     0.035 A 
HETATM   10  C   UNL     1      38.555  10.820  70.988  1.00  0.00     0.059 A 
HETATM   11  C   UNL     1      38.027  12.108  71.065  1.00  0.00     0.036 A 
HETATM   12  C   UNL     1      38.827  13.210  70.764  1.00  0.00     0.029 A 
HETATM   13  C   UNL     1      40.157  13.024  70.386  1.00  0.00     0.004 A 
HETATM   14  C   UNL     1      40.685  11.735  70.308  1.00  0.00     0.029 A 
BRANCH  11  15
HETATM   15  N   UNL     1      36.697  12.295  71.445  1.00  0.00    -0.327 N 
HETATM   16  C   UNL     1      36.037  11.771  72.559  1.00  0.00     0.226 C 
HETATM   17  O   UNL     1      36.496  11.041  73.428  1.00  0.00    -0.273 OA
HETATM   18  H   UNL     1      36.147  12.883  70.822  1.00  0.00     0.169 HD
BRANCH  16  19
HETATM   19  C   UNL     1      34.600  12.180  72.659  1.00  0.00     0.078 A 
HETATM   20  C   UNL     1      34.291  13.607  72.941  1.00  0.00     0.015 A 
HETATM   21  C   UNL     1      34.069  12.563  73.996  1.00  0.00     0.015 A 
ENDBRANCH  16  19
ENDBRANCH  11  15
ENDBRANCH   7   9
ENDBRANCH   3   7
BRANCH   5  22
HETATM   22  N   UNL     1      43.689   7.213  67.763  1.00  0.00    -0.341 N 
HETATM   23  H   UNL     1      43.655   6.196  67.796  1.00  0.00     0.167 HD
BRANCH  22  24
HETATM   24  C   UNL     1      44.370   7.693  66.625  1.00  0.00     0.034 A 
HETATM   25  C   UNL     1      44.868   6.798  65.678  1.00  0.00     0.045 A 
HETATM   26  C   UNL     1      45.539   7.274  64.553  1.00  0.00     0.050 A 
HETATM   27  C   UNL     1      45.714   8.646  64.374  1.00  0.00     0.016 A 
HETATM   28  C   UNL     1      45.217   9.542  65.320  1.00  0.00     0.003 A 
HETATM   29  C   UNL     1      44.545   9.066  66.446  1.00  0.00     0.029 A 
BRANCH  26  30
HETATM   30  C   UNL     1      46.072   6.316  63.541  1.00  0.00     0.417 C 
HETATM   31  F   UNL     1      47.246   5.725  63.910  1.00  0.00    -0.166 F 
HETATM   32  F   UNL     1      45.223   5.282  63.268  1.00  0.00    -0.166 F 
HETATM   33  F   UNL     1      46.323   6.910  62.337  1.00  0.00    -0.166 F 
ENDBRANCH  26  30
ENDBRANCH  22  24
ENDBRANCH   5  22
TORSDOF 7
ENDMDL
MODEL 5
REMARK VINA RESULT:      -6.1      3.059      7.811
REMARK  7 active torsions:
REMARK  status: ('A' for Active; 'I' for Inactive)
REMARK       I    between atoms: N_5  and  C_13 
REMARK    1  A    between atoms: N_5  and  C_14 
REMARK    2  A    between atoms: N_6  and  C_17 
REMARK    3  A    between atoms: N_6  and  C_20 
REMARK    4  A    between atoms: N_7  and  C_21 
REMARK    5  A    between atoms: N_7  and  C_23 
REMARK    6  A    between atoms: C_10  and  C_13 
REMARK    7  A    between atoms: C_24  and  C_29 
ROOT
HETATM    1  N   UNL     1      43.158   7.591  71.095  1.00  0.00    -0.224 NA
HETATM    2  N   UNL     1      42.326   8.638  69.091  1.00  0.00    -0.224 NA
HETATM    3  C   UNL     1      44.103   6.988  70.343  1.00  0.00     0.133 A 
HETATM    4  C   UNL     1      44.221   7.159  68.979  1.00  0.00     0.100 A 
HETATM    5  C   UNL     1      43.297   8.005  68.392  1.00  0.00     0.133 A 
HETATM    6  C   UNL     1      42.315   8.390  70.414  1.00  0.00     0.237 A 
ENDROOT
BRANCH   3   7
HETATM    7  N   UNL     1      45.033   6.127  70.976  1.00  0.00    -0.341 N 
HETATM    8  H   UNL     1      45.911   6.582  71.210  1.00  0.00     0.167 HD
BRANCH   7   9
HETATM    9  C   UNL     1      44.972   4.774  71.347  1.00  0.00     0.035 A 
HETATM   10  C   UNL     1      45.674   3.811  70.618  1.00  0.00     0.059 A 
HETATM   11  C   UNL     1      45.614   2.468  70.988  1.00  0.00     0.036 A 
HETATM   12  C   UNL     1      44.851   2.082  72.090  1.00  0.00     0.029 A 
HETATM   13  C   UNL     1      44.149   3.039  72.822  1.00  0.00     0.004 A 
HETATM   14  C   UNL     1      44.208   4.382  72.451  1.00  0.00     0.029 A 
BRANCH  11  15
HETATM   15  N   UNL     1      46.318   1.510  70.257  1.00  0.00    -0.327 N 
HETATM   16  C   UNL     1      45.929   0.870  69.078  1.00  0.00     0.226 C 
HETATM   17  O   UNL     1      44.890   1.022  68.449  1.00  0.00    -0.273 OA
HETATM   18  H   UNL     1      47.223   1.249  70.642  1.00  0.00     0.169 HD
BRANCH  16  19
HETATM   19  C   UNL     1      46.936  -0.110  68.561  1.00  0.00     0.078 A 
HETATM   20  C   UNL     1      46.772  -1.545  68.917  1.00  0.00     0.015 A 
HETATM   21  C   UNL     1      47.875  -0.734  69.532  1.00  0.00     0.015 A 
ENDBRANCH  16  19
ENDBRANCH  11  15
ENDBRANCH   7   9
ENDBRANCH   3   7
BRANCH   5  22
HETATM   22  N   UNL     1      43.384   8.207  67.002  1.00  0.00    -0.341 N 
HETATM   23  H   UNL     1      42.519   7.981  66.515  1.00  0.00     0.167 HD
BRANCH  22  24
HETATM   24  C   UNL     1      44.478   8.341  66.123  1.00  0.00     0.034 A 
HETATM   25  C   UNL     1      44.791   7.313  65.233  1.00  0.00     0.045 A 
HETATM   26  C   UNL     1      45.872   7.448  64.363  1.00  0.00     0.050 A 
HETATM   27  C   UNL     1      46.643   8.611  64.383  1.00  0.00     0.016 A 
HETATM   28  C   UNL     1      46.331   9.639  65.273  1.00  0.00     0.003 A 
HETATM   29  C   UNL     1      45.249   9.504  66.143  1.00  0.00     0.029 A 
BRANCH  26  30
HETATM   30  C   UNL     1      46.206   6.349  63.411  1.00  0.00     0.417 C 
HETATM   31  F   UNL     1      47.429   5.784  63.634  1.00  0.00    -0.166 F 
HETATM   32  F   UNL     1      45.322   5.309  63.446  1.00  0.00    -0.166 F 
HETATM   33  F   UNL     1      46.228   6.768  62.112  1.00  0.00    -0.166 F 
ENDBRANCH  26  30
ENDBRANCH  22  24
ENDBRANCH   5  22
TORSDOF 7
ENDMDL
MODEL 6
REMARK VINA RESULT:      -6.1      5.428      8.983
REMARK  7 active torsions:
REMARK  status: ('A' for Active; 'I' for Inactive)
REMARK       I    between atoms: N_5  and  C_13 
REMARK    1  A    between atoms: N_5  and  C_14 
REMARK    2  A    between atoms: N_6  and  C_17 
REMARK    3  A    between atoms: N_6  and  C_20 
REMARK    4  A    between atoms: N_7  and  C_21 
REMARK    5  A    between atoms: N_7  and  C_23 
REMARK    6  A    between atoms: C_10  and  C_13 
REMARK    7  A    between atoms: C_24  and  C_29 
ROOT
HETATM    1  N   UNL     1      44.508   8.971  69.605  1.00  0.00    -0.224 NA
HETATM    2  N   UNL     1      44.972   7.584  67.690  1.00  0.00    -0.224 NA
HETATM    3  C   UNL     1      43.826   9.803  68.790  1.00  0.00     0.133 A 
HETATM    4  C   UNL     1      43.675   9.595  67.434  1.00  0.00     0.100 A 
HETATM    5  C   UNL     1      44.274   8.457  66.926  1.00  0.00     0.133 A 
HETATM    6  C   UNL     1      45.048   7.897  68.997  1.00  0.00     0.237 A 
ENDROOT
BRANCH   3   7
HETATM    7  N   UNL     1      43.225  10.960  69.345  1.00  0.00    -0.341 N 
HETATM    8  H   UNL     1      43.838  11.770  69.352  1.00  0.00     0.167 HD
BRANCH   7   9
HETATM    9  C   UNL     1      41.948  11.202  69.877  1.00  0.00     0.035 A 
HETATM   10  C   UNL     1      41.211  10.158  70.443  1.00  0.00     0.059 A 
HETATM   11  C   UNL     1      39.944  10.399  70.972  1.00  0.00     0.036 A 
HETATM   12  C   UNL     1      39.408  11.687  70.939  1.00  0.00     0.029 A 
HETATM   13  C   UNL     1      40.139  12.732  70.376  1.00  0.00     0.004 A 
HETATM   14  C   UNL     1      41.406  12.490  69.845  1.00  0.00     0.029 A 
BRANCH  11  15
HETATM   15  N   UNL     1      39.212   9.354  71.537  1.00  0.00    -0.327 N 
HETATM   16  C   UNL     1      39.397   8.746  72.781  1.00  0.00     0.226 C 
HETATM   17  O   UNL     1      40.240   9.012  73.628  1.00  0.00    -0.273 OA
HETATM   18  H   UNL     1      38.456   8.992  70.959  1.00  0.00     0.169 HD
BRANCH  16  19
HETATM   19  C   UNL     1      38.423   7.647  73.069  1.00  0.00     0.078 A 
HETATM   20  C   UNL     1      38.708   6.732  74.207  1.00  0.00     0.015 A 
HETATM   21  C   UNL     1      38.842   6.245  72.794  1.00  0.00     0.015 A 
ENDBRANCH  16  19
ENDBRANCH  11  15
ENDBRANCH   7   9
ENDBRANCH   3   7
BRANCH   5  22
HETATM   22  N   UNL     1      44.143   8.208  65.547  1.00  0.00    -0.341 N 
HETATM   23  H   UNL     1      43.173   8.125  65.251  1.00  0.00     0.167 HD
BRANCH  22  24
HETATM   24  C   UNL     1      45.047   7.739  64.571  1.00  0.00     0.034 A 
HETATM   25  C   UNL     1      45.841   8.641  63.862  1.00  0.00     0.045 A 
HETATM   26  C   UNL     1      46.735   8.176  62.899  1.00  0.00     0.050 A 
HETATM   27  C   UNL     1      46.837   6.809  62.643  1.00  0.00     0.016 A 
HETATM   28  C   UNL     1      46.043   5.906  63.351  1.00  0.00     0.003 A 
HETATM   29  C   UNL     1      45.148   6.371  64.315  1.00  0.00     0.029 A 
BRANCH  26  30
HETATM   30  C   UNL     1      47.584   9.141  62.141  1.00  0.00     0.417 C 
HETATM   31  F   UNL     1      47.270   9.223  60.815  1.00  0.00    -0.166 F 
HETATM   32  F   UNL     1      47.503  10.423  62.606  1.00  0.00    -0.166 F 
HETATM   33  F   UNL     1      48.911   8.820  62.184  1.00  0.00    -0.166 F 
ENDBRANCH  26  30
ENDBRANCH  22  24
ENDBRANCH   5  22
TORSDOF 7
ENDMDL
MODEL 7
REMARK VINA RESULT:      -6.0     13.525     17.265
REMARK  7 active torsions:
REMARK  status: ('A' for Active; 'I' for Inactive)
REMARK       I    between atoms: N_5  and  C_13 
REMARK    1  A    between atoms: N_5  and  C_14 
REMARK    2  A    between atoms: N_6  and  C_17 
REMARK    3  A    between atoms: N_6  and  C_20 
REMARK    4  A    between atoms: N_7  and  C_21 
REMARK    5  A    between atoms: N_7  and  C_23 
REMARK    6  A    between atoms: C_10  and  C_13 
REMARK    7  A    between atoms: C_24  and  C_29 
ROOT
HETATM    1  N   UNL     1      29.716  10.066  72.189  1.00  0.00    -0.224 NA
HETATM    2  N   UNL     1      32.049  10.405  71.689  1.00  0.00    -0.224 NA
HETATM    3  C   UNL     1      29.975  10.428  73.463  1.00  0.00     0.133 A 
HETATM    4  C   UNL     1      31.227  10.788  73.918  1.00  0.00     0.100 A 
HETATM    5  C   UNL     1      32.244  10.759  72.980  1.00  0.00     0.133 A 
HETATM    6  C   UNL     1      30.784  10.076  71.368  1.00  0.00     0.237 A 
ENDROOT
BRANCH   3   7
HETATM    7  N   UNL     1      28.911  10.446  74.397  1.00  0.00    -0.341 N 
HETATM    8  H   UNL     1      29.055  11.097  75.163  1.00  0.00     0.167 HD
BRANCH   7   9
HETATM    9  C   UNL     1      27.696   9.743  74.464  1.00  0.00     0.035 A 
HETATM   10  C   UNL     1      27.637   8.499  75.098  1.00  0.00     0.059 A 
HETATM   11  C   UNL     1      26.430   7.803  75.165  1.00  0.00     0.036 A 
HETATM   12  C   UNL     1      25.278   8.347  74.597  1.00  0.00     0.029 A 
HETATM   13  C   UNL     1      25.332   9.588  73.963  1.00  0.00     0.004 A 
HETATM   14  C   UNL     1      26.540  10.284  73.895  1.00  0.00     0.029 A 
BRANCH  11  15
HETATM   15  N   UNL     1      26.375   6.561  75.801  1.00  0.00    -0.327 N 
HETATM   16  C   UNL     1      26.101   5.315  75.234  1.00  0.00     0.226 C 
HETATM   17  O   UNL     1      25.855   5.061  74.062  1.00  0.00    -0.273 OA
HETATM   18  H   UNL     1      26.552   6.579  76.803  1.00  0.00     0.169 HD
BRANCH  16  19
HETATM   19  C   UNL     1      26.124   4.185  76.216  1.00  0.00     0.078 A 
HETATM   20  C   UNL     1      26.877   2.953  75.856  1.00  0.00     0.015 A 
HETATM   21  C   UNL     1      25.376   2.943  75.878  1.00  0.00     0.015 A 
ENDBRANCH  16  19
ENDBRANCH  11  15
ENDBRANCH   7   9
ENDBRANCH   3   7
BRANCH   5  22
HETATM   22  N   UNL     1      33.537  11.119  73.405  1.00  0.00    -0.341 N 
HETATM   23  H   UNL     1      33.578  12.060  73.791  1.00  0.00     0.167 HD
BRANCH  22  24
HETATM   24  C   UNL     1      34.815  10.596  73.122  1.00  0.00     0.034 A 
HETATM   25  C   UNL     1      35.536  11.068  72.025  1.00  0.00     0.045 A 
HETATM   26  C   UNL     1      36.801  10.551  71.747  1.00  0.00     0.050 A 
HETATM   27  C   UNL     1      37.345   9.561  72.565  1.00  0.00     0.016 A 
HETATM   28  C   UNL     1      36.625   9.088  73.662  1.00  0.00     0.003 A 
HETATM   29  C   UNL     1      35.360   9.606  73.940  1.00  0.00     0.029 A 
BRANCH  26  30
HETATM   30  C   UNL     1      37.572  11.055  70.573  1.00  0.00     0.417 C 
HETATM   31  F   UNL     1      37.525  12.412  70.429  1.00  0.00    -0.166 F 
HETATM   32  F   UNL     1      38.902  10.748  70.621  1.00  0.00    -0.166 F 
HETATM   33  F   UNL     1      37.121  10.545  69.390  1.00  0.00    -0.166 F 
ENDBRANCH  26  30
ENDBRANCH  22  24
ENDBRANCH   5  22
TORSDOF 7
ENDMDL
MODEL 8
REMARK VINA RESULT:      -6.0      5.631      9.212
REMARK  7 active torsions:
REMARK  status: ('A' for Active; 'I' for Inactive)
REMARK       I    between atoms: N_5  and  C_13 
REMARK    1  A    between atoms: N_5  and  C_14 
REMARK    2  A    between atoms: N_6  and  C_17 
REMARK    3  A    between atoms: N_6  and  C_20 
REMARK    4  A    between atoms: N_7  and  C_21 
REMARK    5  A    between atoms: N_7  and  C_23 
REMARK    6  A    between atoms: C_10  and  C_13 
REMARK    7  A    between atoms: C_24  and  C_29 
ROOT
HETATM    1  N   UNL     1      45.100   8.906  69.750  1.00  0.00    -0.224 NA
HETATM    2  N   UNL     1      46.000   8.539  67.545  1.00  0.00    -0.224 NA
HETATM    3  C   UNL     1      43.882   9.050  69.189  1.00  0.00     0.133 A 
HETATM    4  C   UNL     1      43.646   8.953  67.832  1.00  0.00     0.100 A 
HETATM    5  C   UNL     1      44.752   8.694  67.043  1.00  0.00     0.133 A 
HETATM    6  C   UNL     1      46.100   8.657  68.882  1.00  0.00     0.237 A 
ENDROOT
BRANCH   3   7
HETATM    7  N   UNL     1      42.771   9.315  70.027  1.00  0.00    -0.341 N 
HETATM    8  H   UNL     1      42.556   8.555  70.666  1.00  0.00     0.167 HD
BRANCH   7   9
HETATM    9  C   UNL     1      41.919  10.425  70.148  1.00  0.00     0.035 A 
HETATM   10  C   UNL     1      40.639  10.275  70.687  1.00  0.00     0.059 A 
HETATM   11  C   UNL     1      39.795  11.378  70.808  1.00  0.00     0.036 A 
HETATM   12  C   UNL     1      40.227  12.637  70.391  1.00  0.00     0.029 A 
HETATM   13  C   UNL     1      41.504  12.793  69.853  1.00  0.00     0.004 A 
HETATM   14  C   UNL     1      42.348  11.689  69.730  1.00  0.00     0.029 A 
BRANCH  11  15
HETATM   15  N   UNL     1      38.517  11.223  71.348  1.00  0.00    -0.327 N 
HETATM   16  C   UNL     1      37.324  10.949  70.675  1.00  0.00     0.226 C 
HETATM   17  O   UNL     1      37.162  10.788  69.472  1.00  0.00    -0.273 OA
HETATM   18  H   UNL     1      38.457  11.331  72.359  1.00  0.00     0.169 HD
BRANCH  16  19
HETATM   19  C   UNL     1      36.131  10.847  71.573  1.00  0.00     0.078 A 
HETATM   20  C   UNL     1      35.912  11.921  72.579  1.00  0.00     0.015 A 
HETATM   21  C   UNL     1      36.358  10.556  73.015  1.00  0.00     0.015 A 
ENDBRANCH  16  19
ENDBRANCH  11  15
ENDBRANCH   7   9
ENDBRANCH   3   7
BRANCH   5  22
HETATM   22  N   UNL     1      44.554   8.587  65.653  1.00  0.00    -0.341 N 
HETATM   23  H   UNL     1      43.601   8.805  65.372  1.00  0.00     0.167 HD
BRANCH  22  24
HETATM   24  C   UNL     1      45.285   7.946  64.631  1.00  0.00     0.034 A 
HETATM   25  C   UNL     1      46.057   8.700  63.747  1.00  0.00     0.045 A 
HETATM   26  C   UNL     1      46.781   8.066  62.738  1.00  0.00     0.050 A 
HETATM   27  C   UNL     1      46.733   6.678  62.612  1.00  0.00     0.016 A 
HETATM   28  C   UNL     1      45.961   5.923  63.495  1.00  0.00     0.003 A 
HETATM   29  C   UNL     1      45.237   6.558  64.505  1.00  0.00     0.029 A 
BRANCH  26  30
HETATM   30  C   UNL     1      47.607   8.872  61.792  1.00  0.00     0.417 C 
HETATM   31  F   UNL     1      47.404   8.555  60.480  1.00  0.00    -0.166 F 
HETATM   32  F   UNL     1      47.376  10.215  61.874  1.00  0.00    -0.166 F 
HETATM   33  F   UNL     1      48.948   8.718  62.003  1.00  0.00    -0.166 F 
ENDBRANCH  26  30
ENDBRANCH  22  24
ENDBRANCH   5  22
TORSDOF 7
ENDMDL
MODEL 9
REMARK VINA RESULT:      -5.9      5.200      8.883
REMARK  7 active torsions:
REMARK  status: ('A' for Active; 'I' for Inactive)
REMARK       I    between atoms: N_5  and  C_13 
REMARK    1  A    between atoms: N_5  and  C_14 
REMARK    2  A    between atoms: N_6  and  C_17 
REMARK    3  A    between atoms: N_6  and  C_20 
REMARK    4  A    between atoms: N_7  and  C_21 
REMARK    5  A    between atoms: N_7  and  C_23 
REMARK    6  A    between atoms: C_10  and  C_13 
REMARK    7  A    between atoms: C_24  and  C_29 
ROOT
HETATM    1  N   UNL     1      45.063  10.592  68.639  1.00  0.00    -0.224 NA
HETATM    2  N   UNL     1      45.114  10.545  66.230  1.00  0.00    -0.224 NA
HETATM    3  C   UNL     1      44.619   9.318  68.617  1.00  0.00     0.133 A 
HETATM    4  C   UNL     1      44.402   8.601  67.457  1.00  0.00     0.100 A 
HETATM    5  C   UNL     1      44.667   9.269  66.275  1.00  0.00     0.133 A 
HETATM    6  C   UNL     1      45.286  11.137  67.428  1.00  0.00     0.237 A 
ENDROOT
BRANCH   3   7
HETATM    7  N   UNL     1      44.357   8.665  69.846  1.00  0.00    -0.341 N 
HETATM    8  H   UNL     1      45.194   8.321  70.308  1.00  0.00     0.167 HD
BRANCH   7   9
HETATM    9  C   UNL     1      43.168   8.410  70.549  1.00  0.00     0.035 A 
HETATM   10  C   UNL     1      42.034   9.196  70.325  1.00  0.00     0.059 A 
HETATM   11  C   UNL     1      40.854   8.941  71.022  1.00  0.00     0.036 A 
HETATM   12  C   UNL     1      40.802   7.899  71.947  1.00  0.00     0.029 A 
HETATM   13  C   UNL     1      41.930   7.111  72.175  1.00  0.00     0.004 A 
HETATM   14  C   UNL     1      43.111   7.367  71.478  1.00  0.00     0.029 A 
BRANCH  11  15
HETATM   15  N   UNL     1      39.725   9.729  70.794  1.00  0.00    -0.327 N 
HETATM   16  C   UNL     1      39.259  10.806  71.551  1.00  0.00     0.226 C 
HETATM   17  O   UNL     1      39.751  11.277  72.568  1.00  0.00    -0.273 OA
HETATM   18  H   UNL     1      39.176   9.474  69.975  1.00  0.00     0.169 HD
BRANCH  16  19
HETATM   19  C   UNL     1      38.007  11.427  71.013  1.00  0.00     0.078 A 
HETATM   20  C   UNL     1      37.736  11.320  69.554  1.00  0.00     0.015 A 
HETATM   21  C   UNL     1      38.133  12.636  70.154  1.00  0.00     0.015 A 
ENDBRANCH  16  19
ENDBRANCH  11  15
ENDBRANCH   7   9
ENDBRANCH   3   7
BRANCH   5  22
HETATM   22  N   UNL     1      44.458   8.573  65.069  1.00  0.00    -0.341 N 
HETATM   23  H   UNL     1      43.477   8.365  64.898  1.00  0.00     0.167 HD
BRANCH  22  24
HETATM   24  C   UNL     1      45.321   7.837  64.230  1.00  0.00     0.034 A 
HETATM   25  C   UNL     1      46.133   8.500  63.309  1.00  0.00     0.045 A 
HETATM   26  C   UNL     1      46.986   7.772  62.481  1.00  0.00     0.050 A 
HETATM   27  C   UNL     1      47.028   6.381  62.572  1.00  0.00     0.016 A 
HETATM   28  C   UNL     1      46.217   5.718  63.492  1.00  0.00     0.003 A 
HETATM   29  C   UNL     1      45.363   6.446  64.321  1.00  0.00     0.029 A 
BRANCH  26  30
HETATM   30  C   UNL     1      47.854   8.481  61.496  1.00  0.00     0.417 C 
HETATM   31  F   UNL     1      47.892   7.883  60.269  1.00  0.00    -0.166 F 
HETATM   32  F   UNL     1      47.467   9.768  61.253  1.00  0.00    -0.166 F 
HETATM   33  F   UNL     1      49.155   8.561  61.905  1.00  0.00    -0.166 F 
ENDBRANCH  26  30
ENDBRANCH  22  24
ENDBRANCH   5  22
TORSDOF 7
ENDMDL
