MODEL 1
REMARK VINA RESULT:      -6.4      0.000      0.000
REMARK  7 active torsions:
REMARK  status: ('A' for Active; 'I' for Inactive)
REMARK       I    between atoms: N_5  and  C_13 
REMARK    1  A    between atoms: N_5  and  C_14 
REMARK    2  A    between atoms: N_6  and  C_17 
REMARK    3  A    between atoms: N_6  and  C_20 
REMARK    4  A    between atoms: N_7  and  C_21 
REMARK    5  A    between atoms: N_7  and  C_23 
REMARK    6  A    between atoms: C_10  and  C_13 
REMARK    7  A    between atoms: C_24  and  C_29 
ROOT
HETATM    1  N   UNL     1      42.675   8.852  71.413  1.00  0.00    -0.224 NA
HETATM    2  N   UNL     1      44.257   7.838  69.904  1.00  0.00    -0.224 NA
HETATM    3  C   UNL     1      41.747   8.770  70.436  1.00  0.00     0.133 A 
HETATM    4  C   UNL     1      41.996   8.242  69.185  1.00  0.00     0.100 A 
HETATM    5  C   UNL     1      43.282   7.784  68.966  1.00  0.00     0.133 A 
HETATM    6  C   UNL     1      43.890   8.376  71.083  1.00  0.00     0.237 A 
ENDROOT
BRANCH   3   7
HETATM    7  N   UNL     1      40.440   9.249  70.694  1.00  0.00    -0.341 N 
HETATM    8  H   UNL     1      39.779   8.515  70.934  1.00  0.00     0.167 HD
BRANCH   7   9
HETATM    9  C   UNL     1      39.885  10.540  70.690  1.00  0.00     0.035 A 
HETATM   10  C   UNL     1      38.545  10.732  71.038  1.00  0.00     0.059 A 
HETATM   11  C   UNL     1      37.996  12.013  71.035  1.00  0.00     0.036 A 
HETATM   12  C   UNL     1      38.784  13.110  70.683  1.00  0.00     0.029 A 
HETATM   13  C   UNL     1      40.122  12.924  70.334  1.00  0.00     0.004 A 
HETATM   14  C   UNL     1      40.671  11.641  70.337  1.00  0.00     0.029 A 
BRANCH  11  15
HETATM   15  N   UNL     1      36.658  12.200  71.384  1.00  0.00    -0.327 N 
HETATM   16  C   UNL     1      36.093  12.198  72.662  1.00  0.00     0.226 C 
HETATM   17  O   UNL     1      36.661  12.032  73.733  1.00  0.00    -0.273 OA
HETATM   18  H   UNL     1      36.022  12.351  70.603  1.00  0.00     0.169 HD
BRANCH  16  19
HETATM   19  C   UNL     1      34.614  12.433  72.670  1.00  0.00     0.078 A 
HETATM   20  C   UNL     1      33.878  12.244  73.949  1.00  0.00     0.015 A 
HETATM   21  C   UNL     1      33.716  11.257  72.830  1.00  0.00     0.015 A 
ENDBRANCH  16  19
ENDBRANCH  11  15
ENDBRANCH   7   9
ENDBRANCH   3   7
BRANCH   5  22
HETATM   22  N   UNL     1      43.577   7.237  67.703  1.00  0.00    -0.341 N 
HETATM   23  H   UNL     1      43.424   6.232  67.662  1.00  0.00     0.167 HD
BRANCH  22  24
HETATM   24  C   UNL     1      44.325   7.714  66.607  1.00  0.00     0.034 A 
HETATM   25  C   UNL     1      44.824   6.820  65.659  1.00  0.00     0.045 A 
HETATM   26  C   UNL     1      45.562   7.293  64.575  1.00  0.00     0.050 A 
HETATM   27  C   UNL     1      45.802   8.660  64.438  1.00  0.00     0.016 A 
HETATM   28  C   UNL     1      45.304   9.555  65.385  1.00  0.00     0.003 A 
HETATM   29  C   UNL     1      44.565   9.081  66.469  1.00  0.00     0.029 A 
BRANCH  26  30
HETATM   30  C   UNL     1      46.096   6.337  63.562  1.00  0.00     0.417 C 
HETATM   31  F   UNL     1      45.306   5.239  63.374  1.00  0.00    -0.166 F 
HETATM   32  F   UNL     1      46.246   6.885  62.320  1.00  0.00    -0.166 F 
HETATM   33  F   UNL     1      47.327   5.849  63.898  1.00  0.00    -0.166 F 
ENDBRANCH  26  30
ENDBRANCH  22  24
ENDBRANCH   5  22
TORSDOF 7
ENDMDL
MODEL 2
REMARK VINA RESULT:      -6.3      5.136     10.358
REMARK  7 active torsions:
REMARK  status: ('A' for Active; 'I' for Inactive)
REMARK       I    between atoms: N_5  and  C_13 
REMARK    1  A    between atoms: N_5  and  C_14 
REMARK    2  A    between atoms: N_6  and  C_17 
REMARK    3  A    between atoms: N_6  and  C_20 
REMARK    4  A    between atoms: N_7  and  C_21 
REMARK    5  A    between atoms: N_7  and  C_23 
REMARK    6  A    between atoms: C_10  and  C_13 
REMARK    7  A    between atoms: C_24  and  C_29 
ROOT
HETATM    1  N   UNL     1      43.691   7.350  69.936  1.00  0.00    -0.224 NA
HETATM    2  N   UNL     1      42.331   7.433  71.924  1.00  0.00    -0.224 NA
HETATM    3  C   UNL     1      42.656   7.880  69.251  1.00  0.00     0.133 A 
HETATM    4  C   UNL     1      41.445   8.210  69.825  1.00  0.00     0.100 A 
HETATM    5  C   UNL     1      41.331   7.963  71.181  1.00  0.00     0.133 A 
HETATM    6  C   UNL     1      43.462   7.154  71.249  1.00  0.00     0.237 A 
ENDROOT
BRANCH   3   7
HETATM    7  N   UNL     1      42.808   8.119  67.863  1.00  0.00    -0.341 N 
HETATM    8  H   UNL     1      42.077   7.696  67.298  1.00  0.00     0.167 HD
BRANCH   7   9
HETATM    9  C   UNL     1      43.766   8.831  67.123  1.00  0.00     0.035 A 
HETATM   10  C   UNL     1      44.170   8.370  65.867  1.00  0.00     0.059 A 
HETATM   11  C   UNL     1      45.120   9.079  65.132  1.00  0.00     0.036 A 
HETATM   12  C   UNL     1      45.670  10.252  65.650  1.00  0.00     0.029 A 
HETATM   13  C   UNL     1      45.270  10.716  66.903  1.00  0.00     0.004 A 
HETATM   14  C   UNL     1      44.320  10.006  67.638  1.00  0.00     0.029 A 
BRANCH  11  15
HETATM   15  N   UNL     1      45.520   8.615  63.878  1.00  0.00    -0.327 N 
HETATM   16  C   UNL     1      46.508   7.674  63.583  1.00  0.00     0.226 C 
HETATM   17  O   UNL     1      47.223   7.064  64.368  1.00  0.00    -0.273 OA
HETATM   18  H   UNL     1      45.028   9.025  63.087  1.00  0.00     0.169 HD
BRANCH  16  19
HETATM   19  C   UNL     1      46.676   7.411  62.118  1.00  0.00     0.078 A 
HETATM   20  C   UNL     1      48.041   7.115  61.607  1.00  0.00     0.015 A 
HETATM   21  C   UNL     1      47.387   8.429  61.297  1.00  0.00     0.015 A 
ENDBRANCH  16  19
ENDBRANCH  11  15
ENDBRANCH   7   9
ENDBRANCH   3   7
BRANCH   5  22
HETATM   22  N   UNL     1      40.111   8.286  71.805  1.00  0.00    -0.341 N 
HETATM   23  H   UNL     1      39.432   7.528  71.761  1.00  0.00     0.167 HD
BRANCH  22  24
HETATM   24  C   UNL     1      39.526   9.512  72.183  1.00  0.00     0.034 A 
HETATM   25  C   UNL     1      39.268  10.489  71.221  1.00  0.00     0.045 A 
HETATM   26  C   UNL     1      38.689  11.701  71.596  1.00  0.00     0.050 A 
HETATM   27  C   UNL     1      38.368  11.937  72.932  1.00  0.00     0.016 A 
HETATM   28  C   UNL     1      38.626  10.961  73.895  1.00  0.00     0.003 A 
HETATM   29  C   UNL     1      39.205   9.748  73.520  1.00  0.00     0.029 A 
BRANCH  26  30
HETATM   30  C   UNL     1      38.413  12.746  70.567  1.00  0.00     0.417 C 
HETATM   31  F   UNL     1      39.511  13.485  70.229  1.00  0.00    -0.166 F 
HETATM   32  F   UNL     1      37.946  12.241  69.388  1.00  0.00    -0.166 F 
HETATM   33  F   UNL     1      37.475  13.650  70.976  1.00  0.00    -0.166 F 
ENDBRANCH  26  30
ENDBRANCH  22  24
ENDBRANCH   5  22
TORSDOF 7
ENDMDL
MODEL 3
REMARK VINA RESULT:      -6.3      6.529     10.395
REMARK  7 active torsions:
REMARK  status: ('A' for Active; 'I' for Inactive)
REMARK       I    between atoms: N_5  and  C_13 
REMARK    1  A    between atoms: N_5  and  C_14 
REMARK    2  A    between atoms: N_6  and  C_17 
REMARK    3  A    between atoms: N_6  and  C_20 
REMARK    4  A    between atoms: N_7  and  C_21 
REMARK    5  A    between atoms: N_7  and  C_23 
REMARK    6  A    between atoms: C_10  and  C_13 
REMARK    7  A    between atoms: C_24  and  C_29 
ROOT
HETATM    1  N   UNL     1      43.741   8.659  66.104  1.00  0.00    -0.224 NA
HETATM    2  N   UNL     1      44.167   8.612  68.475  1.00  0.00    -0.224 NA
HETATM    3  C   UNL     1      44.610   7.636  65.965  1.00  0.00     0.133 A 
HETATM    4  C   UNL     1      45.286   7.056  67.019  1.00  0.00     0.100 A 
HETATM    5  C   UNL     1      45.027   7.588  68.270  1.00  0.00     0.133 A 
HETATM    6  C   UNL     1      43.570   9.092  67.368  1.00  0.00     0.237 A 
ENDROOT
BRANCH   3   7
HETATM    7  N   UNL     1      44.852   7.118  64.669  1.00  0.00    -0.341 N 
HETATM    8  H   UNL     1      44.074   6.581  64.296  1.00  0.00     0.167 HD
BRANCH   7   9
HETATM    9  C   UNL     1      45.953   7.209  63.802  1.00  0.00     0.035 A 
HETATM   10  C   UNL     1      46.340   8.447  63.283  1.00  0.00     0.059 A 
HETATM   11  C   UNL     1      47.435   8.536  62.424  1.00  0.00     0.036 A 
HETATM   12  C   UNL     1      48.148   7.388  62.080  1.00  0.00     0.029 A 
HETATM   13  C   UNL     1      47.766   6.149  62.596  1.00  0.00     0.004 A 
HETATM   14  C   UNL     1      46.670   6.060  63.455  1.00  0.00     0.029 A 
BRANCH  11  15
HETATM   15  N   UNL     1      47.818   9.775  61.908  1.00  0.00    -0.327 N 
HETATM   16  C   UNL     1      48.494  10.809  62.561  1.00  0.00     0.226 C 
HETATM   17  O   UNL     1      48.886  10.833  63.720  1.00  0.00    -0.273 OA
HETATM   18  H   UNL     1      47.564   9.938  60.936  1.00  0.00     0.169 HD
BRANCH  16  19
HETATM   19  C   UNL     1      48.746  12.007  61.700  1.00  0.00     0.078 A 
HETATM   20  C   UNL     1      48.020  13.267  62.014  1.00  0.00     0.015 A 
HETATM   21  C   UNL     1      47.656  12.467  60.797  1.00  0.00     0.015 A 
ENDBRANCH  16  19
ENDBRANCH  11  15
ENDBRANCH   7   9
ENDBRANCH   3   7
BRANCH   5  22
HETATM   22  N   UNL     1      45.697   7.023  69.372  1.00  0.00    -0.341 N 
HETATM   23  H   UNL     1      45.943   7.712  70.080  1.00  0.00     0.167 HD
BRANCH  22  24
HETATM   24  C   UNL     1      46.370   5.798  69.555  1.00  0.00     0.034 A 
HETATM   25  C   UNL     1      45.656   4.600  69.542  1.00  0.00     0.045 A 
HETATM   26  C   UNL     1      46.323   3.388  69.721  1.00  0.00     0.050 A 
HETATM   27  C   UNL     1      47.704   3.374  69.915  1.00  0.00     0.016 A 
HETATM   28  C   UNL     1      48.419   4.572  69.929  1.00  0.00     0.003 A 
HETATM   29  C   UNL     1      47.752   5.784  69.749  1.00  0.00     0.029 A 
BRANCH  26  30
HETATM   30  C   UNL     1      45.559   2.106  69.707  1.00  0.00     0.417 C 
HETATM   31  F   UNL     1      44.754   1.937  70.797  1.00  0.00    -0.166 F 
HETATM   32  F   UNL     1      44.732   1.976  68.629  1.00  0.00    -0.166 F 
HETATM   33  F   UNL     1      46.373   1.010  69.679  1.00  0.00    -0.166 F 
ENDBRANCH  26  30
ENDBRANCH  22  24
ENDBRANCH   5  22
TORSDOF 7
ENDMDL
MODEL 4
REMARK VINA RESULT:      -6.2     12.922     15.268
REMARK  7 active torsions:
REMARK  status: ('A' for Active; 'I' for Inactive)
REMARK       I    between atoms: N_5  and  C_13 
REMARK    1  A    between atoms: N_5  and  C_14 
REMARK    2  A    between atoms: N_6  and  C_17 
REMARK    3  A    between atoms: N_6  and  C_20 
REMARK    4  A    between atoms: N_7  and  C_21 
REMARK    5  A    between atoms: N_7  and  C_23 
REMARK    6  A    between atoms: C_10  and  C_13 
REMARK    7  A    between atoms: C_24  and  C_29 
ROOT
HETATM    1  N   UNL     1      47.449  -4.691  71.386  1.00  0.00    -0.224 NA
HETATM    2  N   UNL     1      47.097  -2.844  69.879  1.00  0.00    -0.224 NA
HETATM    3  C   UNL     1      46.236  -4.438  71.921  1.00  0.00     0.133 A 
HETATM    4  C   UNL     1      45.408  -3.420  71.494  1.00  0.00     0.100 A 
HETATM    5  C   UNL     1      45.890  -2.641  70.457  1.00  0.00     0.133 A 
HETATM    6  C   UNL     1      47.811  -3.867  70.384  1.00  0.00     0.237 A 
ENDROOT
BRANCH   3   7
HETATM    7  N   UNL     1      45.774  -5.255  72.981  1.00  0.00    -0.341 N 
HETATM    8  H   UNL     1      46.449  -5.362  73.733  1.00  0.00     0.167 HD
BRANCH   7   9
HETATM    9  C   UNL     1      44.565  -5.936  73.195  1.00  0.00     0.035 A 
HETATM   10  C   UNL     1      43.844  -5.739  74.376  1.00  0.00     0.059 A 
HETATM   11  C   UNL     1      42.643  -6.415  74.587  1.00  0.00     0.036 A 
HETATM   12  C   UNL     1      42.156  -7.292  73.616  1.00  0.00     0.029 A 
HETATM   13  C   UNL     1      42.871  -7.491  72.436  1.00  0.00     0.004 A 
HETATM   14  C   UNL     1      44.073  -6.815  72.226  1.00  0.00     0.029 A 
BRANCH  11  15
HETATM   15  N   UNL     1      41.927  -6.215  75.768  1.00  0.00    -0.327 N 
HETATM   16  C   UNL     1      41.974  -6.970  76.942  1.00  0.00     0.226 C 
HETATM   17  O   UNL     1      42.656  -7.960  77.171  1.00  0.00    -0.273 OA
HETATM   18  H   UNL     1      41.290  -5.421  75.759  1.00  0.00     0.169 HD
BRANCH  16  19
HETATM   19  C   UNL     1      41.066  -6.468  78.021  1.00  0.00     0.078 A 
HETATM   20  C   UNL     1      41.671  -6.046  79.313  1.00  0.00     0.015 A 
HETATM   21  C   UNL     1      40.873  -7.314  79.230  1.00  0.00     0.015 A 
ENDBRANCH  16  19
ENDBRANCH  11  15
ENDBRANCH   7   9
ENDBRANCH   3   7
BRANCH   5  22
HETATM   22  N   UNL     1      45.074  -1.592  69.992  1.00  0.00    -0.341 N 
HETATM   23  H   UNL     1      44.536  -1.847  69.167  1.00  0.00     0.167 HD
BRANCH  22  24
HETATM   24  C   UNL     1      45.085  -0.201  70.221  1.00  0.00     0.034 A 
HETATM   25  C   UNL     1      44.815   0.300  71.495  1.00  0.00     0.045 A 
HETATM   26  C   UNL     1      44.828   1.676  71.721  1.00  0.00     0.050 A 
HETATM   27  C   UNL     1      45.110   2.552  70.673  1.00  0.00     0.016 A 
HETATM   28  C   UNL     1      45.380   2.053  69.400  1.00  0.00     0.003 A 
HETATM   29  C   UNL     1      45.368   0.676  69.174  1.00  0.00     0.029 A 
BRANCH  26  30
HETATM   30  C   UNL     1      44.539   2.211  73.083  1.00  0.00     0.417 C 
HETATM   31  F   UNL     1      43.314   2.804  73.190  1.00  0.00    -0.166 F 
HETATM   32  F   UNL     1      44.560   1.258  74.061  1.00  0.00    -0.166 F 
HETATM   33  F   UNL     1      45.440   3.159  73.477  1.00  0.00    -0.166 F 
ENDBRANCH  26  30
ENDBRANCH  22  24
ENDBRANCH   5  22
TORSDOF 7
ENDMDL
MODEL 5
REMARK VINA RESULT:      -6.1      7.101     10.183
REMARK  7 active torsions:
REMARK  status: ('A' for Active; 'I' for Inactive)
REMARK       I    between atoms: N_5  and  C_13 
REMARK    1  A    between atoms: N_5  and  C_14 
REMARK    2  A    between atoms: N_6  and  C_17 
REMARK    3  A    between atoms: N_6  and  C_20 
REMARK    4  A    between atoms: N_7  and  C_21 
REMARK    5  A    between atoms: N_7  and  C_23 
REMARK    6  A    between atoms: C_10  and  C_13 
REMARK    7  A    between atoms: C_24  and  C_29 
ROOT
HETATM    1  N   UNL     1      45.676   6.768  70.534  1.00  0.00    -0.224 NA
HETATM    2  N   UNL     1      46.906   4.740  70.958  1.00  0.00    -0.224 NA
HETATM    3  C   UNL     1      45.086   6.148  69.490  1.00  0.00     0.133 A 
HETATM    4  C   UNL     1      45.350   4.844  69.125  1.00  0.00     0.100 A 
HETATM    5  C   UNL     1      46.280   4.174  69.900  1.00  0.00     0.133 A 
HETATM    6  C   UNL     1      46.563   6.017  71.213  1.00  0.00     0.237 A 
ENDROOT
BRANCH   3   7
HETATM    7  N   UNL     1      44.139   6.864  68.718  1.00  0.00    -0.341 N 
HETATM    8  H   UNL     1      43.177   6.600  68.910  1.00  0.00     0.167 HD
BRANCH   7   9
HETATM    9  C   UNL     1      44.275   7.869  67.746  1.00  0.00     0.035 A 
HETATM   10  C   UNL     1      44.667   7.543  66.445  1.00  0.00     0.059 A 
HETATM   11  C   UNL     1      44.800   8.541  65.481  1.00  0.00     0.036 A 
HETATM   12  C   UNL     1      44.541   9.872  65.813  1.00  0.00     0.029 A 
HETATM   13  C   UNL     1      44.148  10.202  67.110  1.00  0.00     0.004 A 
HETATM   14  C   UNL     1      44.017   9.203  68.074  1.00  0.00     0.029 A 
BRANCH  11  15
HETATM   15  N   UNL     1      45.191   8.211  64.182  1.00  0.00    -0.327 N 
HETATM   16  C   UNL     1      46.483   7.972  63.707  1.00  0.00     0.226 C 
HETATM   17  O   UNL     1      47.532   8.004  64.336  1.00  0.00    -0.273 OA
HETATM   18  H   UNL     1      44.435   8.144  63.505  1.00  0.00     0.169 HD
BRANCH  16  19
HETATM   19  C   UNL     1      46.539   7.639  62.248  1.00  0.00     0.078 A 
HETATM   20  C   UNL     1      47.831   7.168  61.681  1.00  0.00     0.015 A 
HETATM   21  C   UNL     1      47.315   8.537  61.350  1.00  0.00     0.015 A 
ENDBRANCH  16  19
ENDBRANCH  11  15
ENDBRANCH   7   9
ENDBRANCH   3   7
BRANCH   5  22
HETATM   22  N   UNL     1      46.577   2.841  69.560  1.00  0.00    -0.341 N 
HETATM   23  H   UNL     1      47.222   2.768  68.776  1.00  0.00     0.167 HD
BRANCH  22  24
HETATM   24  C   UNL     1      45.942   1.616  69.852  1.00  0.00     0.034 A 
HETATM   25  C   UNL     1      45.287   1.443  71.072  1.00  0.00     0.045 A 
HETATM   26  C   UNL     1      44.657   0.233  71.359  1.00  0.00     0.050 A 
HETATM   27  C   UNL     1      44.682  -0.805  70.428  1.00  0.00     0.016 A 
HETATM   28  C   UNL     1      45.337  -0.633  69.209  1.00  0.00     0.003 A 
HETATM   29  C   UNL     1      45.967   0.578  68.921  1.00  0.00     0.029 A 
BRANCH  26  30
HETATM   30  C   UNL     1      43.957   0.047  72.664  1.00  0.00     0.417 C 
HETATM   31  F   UNL     1      42.678  -0.414  72.538  1.00  0.00    -0.166 F 
HETATM   32  F   UNL     1      44.576  -0.843  73.494  1.00  0.00    -0.166 F 
HETATM   33  F   UNL     1      43.860   1.207  73.378  1.00  0.00    -0.166 F 
ENDBRANCH  26  30
ENDBRANCH  22  24
ENDBRANCH   5  22
TORSDOF 7
ENDMDL
MODEL 6
REMARK VINA RESULT:      -6.1      5.640      9.613
REMARK  7 active torsions:
REMARK  status: ('A' for Active; 'I' for Inactive)
REMARK       I    between atoms: N_5  and  C_13 
REMARK    1  A    between atoms: N_5  and  C_14 
REMARK    2  A    between atoms: N_6  and  C_17 
REMARK    3  A    between atoms: N_6  and  C_20 
REMARK    4  A    between atoms: N_7  and  C_21 
REMARK    5  A    between atoms: N_7  and  C_23 
REMARK    6  A    between atoms: C_10  and  C_13 
REMARK    7  A    between atoms: C_24  and  C_29 
ROOT
HETATM    1  N   UNL     1      43.901   6.839  71.146  1.00  0.00    -0.224 NA
HETATM    2  N   UNL     1      43.190   7.819  69.063  1.00  0.00    -0.224 NA
HETATM    3  C   UNL     1      44.657   5.974  70.439  1.00  0.00     0.133 A 
HETATM    4  C   UNL     1      44.730   5.970  69.060  1.00  0.00     0.100 A 
HETATM    5  C   UNL     1      43.968   6.924  68.411  1.00  0.00     0.133 A 
HETATM    6  C   UNL     1      43.203   7.721  70.406  1.00  0.00     0.237 A 
ENDROOT
BRANCH   3   7
HETATM    7  N   UNL     1      45.424   5.009  71.136  1.00  0.00    -0.341 N 
HETATM    8  H   UNL     1      46.308   5.370  71.484  1.00  0.00     0.167 HD
BRANCH   7   9
HETATM    9  C   UNL     1      45.195   3.658  71.444  1.00  0.00     0.035 A 
HETATM   10  C   UNL     1      45.831   2.652  70.711  1.00  0.00     0.059 A 
HETATM   11  C   UNL     1      45.605   1.311  71.018  1.00  0.00     0.036 A 
HETATM   12  C   UNL     1      44.741   0.969  72.059  1.00  0.00     0.029 A 
HETATM   13  C   UNL     1      44.104   1.969  72.793  1.00  0.00     0.004 A 
HETATM   14  C   UNL     1      44.330   3.311  72.485  1.00  0.00     0.029 A 
BRANCH  11  15
HETATM   15  N   UNL     1      46.242   0.309  70.284  1.00  0.00    -0.327 N 
HETATM   16  C   UNL     1      45.993  -0.086  68.968  1.00  0.00     0.226 C 
HETATM   17  O   UNL     1      45.163   0.370  68.193  1.00  0.00    -0.273 OA
HETATM   18  H   UNL     1      46.975  -0.193  70.782  1.00  0.00     0.169 HD
BRANCH  16  19
HETATM   19  C   UNL     1      46.871  -1.202  68.494  1.00  0.00     0.078 A 
HETATM   20  C   UNL     1      47.260  -2.256  69.469  1.00  0.00     0.015 A 
HETATM   21  C   UNL     1      48.272  -1.256  68.994  1.00  0.00     0.015 A 
ENDBRANCH  16  19
ENDBRANCH  11  15
ENDBRANCH   7   9
ENDBRANCH   3   7
BRANCH   5  22
HETATM   22  N   UNL     1      44.015   6.954  67.004  1.00  0.00    -0.341 N 
HETATM   23  H   UNL     1      43.562   6.149  66.576  1.00  0.00     0.167 HD
BRANCH  22  24
HETATM   24  C   UNL     1      44.815   7.671  66.091  1.00  0.00     0.034 A 
HETATM   25  C   UNL     1      45.300   7.043  64.943  1.00  0.00     0.045 A 
HETATM   26  C   UNL     1      46.089   7.753  64.040  1.00  0.00     0.050 A 
HETATM   27  C   UNL     1      46.395   9.092  64.284  1.00  0.00     0.016 A 
HETATM   28  C   UNL     1      45.912   9.721  65.431  1.00  0.00     0.003 A 
HETATM   29  C   UNL     1      45.122   9.010  66.334  1.00  0.00     0.029 A 
BRANCH  26  30
HETATM   30  C   UNL     1      46.608   7.082  62.812  1.00  0.00     0.417 C 
HETATM   31  F   UNL     1      47.967   6.962  62.786  1.00  0.00    -0.166 F 
HETATM   32  F   UNL     1      46.135   5.812  62.643  1.00  0.00    -0.166 F 
HETATM   33  F   UNL     1      46.277   7.751  61.669  1.00  0.00    -0.166 F 
ENDBRANCH  26  30
ENDBRANCH  22  24
ENDBRANCH   5  22
TORSDOF 7
ENDMDL
MODEL 7
REMARK VINA RESULT:      -6.1      4.985      8.683
REMARK  7 active torsions:
REMARK  status: ('A' for Active; 'I' for Inactive)
REMARK       I    between atoms: N_5  and  C_13 
REMARK    1  A    between atoms: N_5  and  C_14 
REMARK    2  A    between atoms: N_6  and  C_17 
REMARK    3  A    between atoms: N_6  and  C_20 
REMARK    4  A    between atoms: N_7  and  C_21 
REMARK    5  A    between atoms: N_7  and  C_23 
REMARK    6  A    between atoms: C_10  and  C_13 
REMARK    7  A    between atoms: C_24  and  C_29 
ROOT
HETATM    1  N   UNL     1      42.995   7.356  70.906  1.00  0.00    -0.224 NA
HETATM    2  N   UNL     1      41.976   8.236  68.907  1.00  0.00    -0.224 NA
HETATM    3  C   UNL     1      44.178   7.354  70.257  1.00  0.00     0.133 A 
HETATM    4  C   UNL     1      44.337   7.772  68.951  1.00  0.00     0.100 A 
HETATM    5  C   UNL     1      43.191   8.209  68.312  1.00  0.00     0.133 A 
HETATM    6  C   UNL     1      41.950   7.802  70.181  1.00  0.00     0.237 A 
ENDROOT
BRANCH   3   7
HETATM    7  N   UNL     1      45.331   6.899  70.942  1.00  0.00    -0.341 N 
HETATM    8  H   UNL     1      45.572   7.466  71.750  1.00  0.00     0.167 HD
BRANCH   7   9
HETATM    9  C   UNL     1      46.197   5.815  70.724  1.00  0.00     0.035 A 
HETATM   10  C   UNL     1      45.690   4.579  70.314  1.00  0.00     0.059 A 
HETATM   11  C   UNL     1      46.551   3.505  70.096  1.00  0.00     0.036 A 
HETATM   12  C   UNL     1      47.925   3.661  70.287  1.00  0.00     0.029 A 
HETATM   13  C   UNL     1      48.436   4.892  70.696  1.00  0.00     0.004 A 
HETATM   14  C   UNL     1      47.574   5.967  70.915  1.00  0.00     0.029 A 
BRANCH  11  15
HETATM   15  N   UNL     1      46.040   2.272  69.686  1.00  0.00    -0.327 N 
HETATM   16  C   UNL     1      45.461   1.275  70.474  1.00  0.00     0.226 C 
HETATM   17  O   UNL     1      45.285   1.283  71.685  1.00  0.00    -0.273 OA
HETATM   18  H   UNL     1      46.109   2.085  68.688  1.00  0.00     0.169 HD
BRANCH  16  19
HETATM   19  C   UNL     1      45.018   0.073  69.699  1.00  0.00     0.078 A 
HETATM   20  C   UNL     1      46.014  -0.997  69.427  1.00  0.00     0.015 A 
HETATM   21  C   UNL     1      45.540  -0.106  68.317  1.00  0.00     0.015 A 
ENDBRANCH  16  19
ENDBRANCH  11  15
ENDBRANCH   7   9
ENDBRANCH   3   7
BRANCH   5  22
HETATM   22  N   UNL     1      43.311   8.645  66.978  1.00  0.00    -0.341 N 
HETATM   23  H   UNL     1      42.411   8.755  66.516  1.00  0.00     0.167 HD
BRANCH  22  24
HETATM   24  C   UNL     1      44.389   8.649  66.068  1.00  0.00     0.034 A 
HETATM   25  C   UNL     1      44.662   7.516  65.303  1.00  0.00     0.045 A 
HETATM   26  C   UNL     1      45.727   7.522  64.403  1.00  0.00     0.050 A 
HETATM   27  C   UNL     1      46.519   8.662  64.268  1.00  0.00     0.016 A 
HETATM   28  C   UNL     1      46.247   9.796  65.033  1.00  0.00     0.003 A 
HETATM   29  C   UNL     1      45.181   9.790  65.933  1.00  0.00     0.029 A 
BRANCH  26  30
HETATM   30  C   UNL     1      46.020   6.309  63.584  1.00  0.00     0.417 C 
HETATM   31  F   UNL     1      47.159   5.657  63.961  1.00  0.00    -0.166 F 
HETATM   32  F   UNL     1      45.035   5.365  63.635  1.00  0.00    -0.166 F 
HETATM   33  F   UNL     1      46.183   6.597  62.260  1.00  0.00    -0.166 F 
ENDBRANCH  26  30
ENDBRANCH  22  24
ENDBRANCH   5  22
TORSDOF 7
ENDMDL
MODEL 8
REMARK VINA RESULT:      -6.1      5.001     10.126
REMARK  7 active torsions:
REMARK  status: ('A' for Active; 'I' for Inactive)
REMARK       I    between atoms: N_5  and  C_13 
REMARK    1  A    between atoms: N_5  and  C_14 
REMARK    2  A    between atoms: N_6  and  C_17 
REMARK    3  A    between atoms: N_6  and  C_20 
REMARK    4  A    between atoms: N_7  and  C_21 
REMARK    5  A    between atoms: N_7  and  C_23 
REMARK    6  A    between atoms: C_10  and  C_13 
REMARK    7  A    between atoms: C_24  and  C_29 
ROOT
HETATM    1  N   UNL     1      43.117   7.492  70.783  1.00  0.00    -0.224 NA
HETATM    2  N   UNL     1      41.265   8.488  71.959  1.00  0.00    -0.224 NA
HETATM    3  C   UNL     1      42.602   7.978  69.635  1.00  0.00     0.133 A 
HETATM    4  C   UNL     1      41.439   8.718  69.569  1.00  0.00     0.100 A 
HETATM    5  C   UNL     1      40.799   8.948  70.774  1.00  0.00     0.133 A 
HETATM    6  C   UNL     1      42.408   7.779  71.891  1.00  0.00     0.237 A 
ENDROOT
BRANCH   3   7
HETATM    7  N   UNL     1      43.282   7.722  68.419  1.00  0.00    -0.341 N 
HETATM    8  H   UNL     1      43.263   6.744  68.143  1.00  0.00     0.167 HD
BRANCH   7   9
HETATM    9  C   UNL     1      43.969   8.558  67.523  1.00  0.00     0.035 A 
HETATM   10  C   UNL     1      44.316   8.093  66.252  1.00  0.00     0.059 A 
HETATM   11  C   UNL     1      44.996   8.925  65.363  1.00  0.00     0.036 A 
HETATM   12  C   UNL     1      45.332  10.225  65.741  1.00  0.00     0.029 A 
HETATM   13  C   UNL     1      44.988  10.693  67.008  1.00  0.00     0.004 A 
HETATM   14  C   UNL     1      44.308   9.861  67.898  1.00  0.00     0.029 A 
BRANCH  11  15
HETATM   15  N   UNL     1      45.340   8.457  64.094  1.00  0.00    -0.327 N 
HETATM   16  C   UNL     1      46.543   7.876  63.686  1.00  0.00     0.226 C 
HETATM   17  O   UNL     1      47.539   7.660  64.365  1.00  0.00    -0.273 OA
HETATM   18  H   UNL     1      44.619   8.562  63.383  1.00  0.00     0.169 HD
BRANCH  16  19
HETATM   19  C   UNL     1      46.569   7.487  62.241  1.00  0.00     0.078 A 
HETATM   20  C   UNL     1      47.855   7.013  61.661  1.00  0.00     0.015 A 
HETATM   21  C   UNL     1      47.310   8.360  61.290  1.00  0.00     0.015 A 
ENDBRANCH  16  19
ENDBRANCH  11  15
ENDBRANCH   7   9
ENDBRANCH   3   7
BRANCH   5  22
HETATM   22  N   UNL     1      39.609   9.700  70.751  1.00  0.00    -0.341 N 
HETATM   23  H   UNL     1      38.825   9.187  70.354  1.00  0.00     0.167 HD
BRANCH  22  24
HETATM   24  C   UNL     1      39.351  11.082  70.857  1.00  0.00     0.034 A 
HETATM   25  C   UNL     1      40.391  12.001  70.712  1.00  0.00     0.045 A 
HETATM   26  C   UNL     1      40.134  13.367  70.814  1.00  0.00     0.050 A 
HETATM   27  C   UNL     1      38.837  13.817  71.063  1.00  0.00     0.016 A 
HETATM   28  C   UNL     1      37.797  12.899  71.208  1.00  0.00     0.003 A 
HETATM   29  C   UNL     1      38.054  11.532  71.105  1.00  0.00     0.029 A 
BRANCH  26  30
HETATM   30  C   UNL     1      41.246  14.350  70.660  1.00  0.00     0.417 C 
HETATM   31  F   UNL     1      42.148  14.009  69.692  1.00  0.00    -0.166 F 
HETATM   32  F   UNL     1      40.824  15.605  70.327  1.00  0.00    -0.166 F 
HETATM   33  F   UNL     1      41.977  14.500  71.804  1.00  0.00    -0.166 F 
ENDBRANCH  26  30
ENDBRANCH  22  24
ENDBRANCH   5  22
TORSDOF 7
ENDMDL
MODEL 9
REMARK VINA RESULT:      -6.0      5.311     10.629
REMARK  7 active torsions:
REMARK  status: ('A' for Active; 'I' for Inactive)
REMARK       I    between atoms: N_5  and  C_13 
REMARK    1  A    between atoms: N_5  and  C_14 
REMARK    2  A    between atoms: N_6  and  C_17 
REMARK    3  A    between atoms: N_6  and  C_20 
REMARK    4  A    between atoms: N_7  and  C_21 
REMARK    5  A    between atoms: N_7  and  C_23 
REMARK    6  A    between atoms: C_10  and  C_13 
REMARK    7  A    between atoms: C_24  and  C_29 
ROOT
HETATM    1  N   UNL     1      44.682   9.993  67.854  1.00  0.00    -0.224 NA
HETATM    2  N   UNL     1      43.861  10.090  70.118  1.00  0.00    -0.224 NA
HETATM    3  C   UNL     1      43.725   9.080  67.586  1.00  0.00     0.133 A 
HETATM    4  C   UNL     1      42.812   8.630  68.518  1.00  0.00     0.100 A 
HETATM    5  C   UNL     1      42.924   9.172  69.786  1.00  0.00     0.133 A 
HETATM    6  C   UNL     1      44.693  10.449  69.121  1.00  0.00     0.237 A 
ENDROOT
BRANCH   3   7
HETATM    7  N   UNL     1      43.640   8.545  66.277  1.00  0.00    -0.341 N 
HETATM    8  H   UNL     1      42.686   8.448  65.941  1.00  0.00     0.167 HD
BRANCH   7   9
HETATM    9  C   UNL     1      44.617   8.130  65.357  1.00  0.00     0.035 A 
HETATM   10  C   UNL     1      45.385   9.076  64.672  1.00  0.00     0.059 A 
HETATM   11  C   UNL     1      46.356   8.663  63.760  1.00  0.00     0.036 A 
HETATM   12  C   UNL     1      46.564   7.303  63.529  1.00  0.00     0.029 A 
HETATM   13  C   UNL     1      45.801   6.355  64.212  1.00  0.00     0.004 A 
HETATM   14  C   UNL     1      44.829   6.769  65.123  1.00  0.00     0.029 A 
BRANCH  11  15
HETATM   15  N   UNL     1      47.121   9.611  63.078  1.00  0.00    -0.327 N 
HETATM   16  C   UNL     1      48.215  10.338  63.552  1.00  0.00     0.226 C 
HETATM   17  O   UNL     1      48.723  10.288  64.664  1.00  0.00    -0.273 OA
HETATM   18  H   UNL     1      46.833   9.791  62.118  1.00  0.00     0.169 HD
BRANCH  16  19
HETATM   19  C   UNL     1      48.802  11.275  62.543  1.00  0.00     0.078 A 
HETATM   20  C   UNL     1      48.313  12.680  62.517  1.00  0.00     0.015 A 
HETATM   21  C   UNL     1      47.940  11.729  61.418  1.00  0.00     0.015 A 
ENDBRANCH  16  19
ENDBRANCH  11  15
ENDBRANCH   7   9
ENDBRANCH   3   7
BRANCH   5  22
HETATM   22  N   UNL     1      42.011   8.739  70.766  1.00  0.00    -0.341 N 
HETATM   23  H   UNL     1      42.167   7.775  71.052  1.00  0.00     0.167 HD
BRANCH  22  24
HETATM   24  C   UNL     1      40.760   9.233  71.190  1.00  0.00     0.034 A 
HETATM   25  C   UNL     1      40.176  10.314  70.531  1.00  0.00     0.045 A 
HETATM   26  C   UNL     1      38.938  10.800  70.950  1.00  0.00     0.050 A 
HETATM   27  C   UNL     1      38.284  10.206  72.030  1.00  0.00     0.016 A 
HETATM   28  C   UNL     1      38.868   9.125  72.689  1.00  0.00     0.003 A 
HETATM   29  C   UNL     1      40.106   8.638  72.270  1.00  0.00     0.029 A 
BRANCH  26  30
HETATM   30  C   UNL     1      38.313  11.957  70.246  1.00  0.00     0.417 C 
HETATM   31  F   UNL     1      37.853  11.654  68.996  1.00  0.00    -0.166 F 
HETATM   32  F   UNL     1      37.237  12.481  70.903  1.00  0.00    -0.166 F 
HETATM   33  F   UNL     1      39.180  12.999  70.074  1.00  0.00    -0.166 F 
ENDBRANCH  26  30
ENDBRANCH  22  24
ENDBRANCH   5  22
TORSDOF 7
ENDMDL
