MODEL 1
REMARK VINA RESULT:      -6.4      0.000      0.000
REMARK  7 active torsions:
REMARK  status: ('A' for Active; 'I' for Inactive)
REMARK       I    between atoms: N_5  and  C_13 
REMARK    1  A    between atoms: N_5  and  C_14 
REMARK    2  A    between atoms: N_6  and  C_17 
REMARK    3  A    between atoms: N_6  and  C_20 
REMARK    4  A    between atoms: N_7  and  C_21 
REMARK    5  A    between atoms: N_7  and  C_23 
REMARK    6  A    between atoms: C_10  and  C_13 
REMARK    7  A    between atoms: C_24  and  C_29 
ROOT
HETATM    1  N   UNL     1      43.581   7.047  71.080  1.00  0.00    -0.224 NA
HETATM    2  N   UNL     1      42.603   8.345  69.301  1.00  0.00    -0.224 NA
HETATM    3  C   UNL     1      44.428   6.514  70.175  1.00  0.00     0.133 A 
HETATM    4  C   UNL     1      44.425   6.843  68.835  1.00  0.00     0.100 A 
HETATM    5  C   UNL     1      43.481   7.775  68.443  1.00  0.00     0.133 A 
HETATM    6  C   UNL     1      42.707   7.942  70.582  1.00  0.00     0.237 A 
ENDROOT
BRANCH   3   7
HETATM    7  N   UNL     1      45.382   5.562  70.611  1.00  0.00    -0.341 N 
HETATM    8  H   UNL     1      46.323   5.939  70.690  1.00  0.00     0.167 HD
BRANCH   7   9
HETATM    9  C   UNL     1      45.276   4.206  70.961  1.00  0.00     0.035 A 
HETATM   10  C   UNL     1      45.952   3.233  70.219  1.00  0.00     0.059 A 
HETATM   11  C   UNL     1      45.847   1.887  70.567  1.00  0.00     0.036 A 
HETATM   12  C   UNL     1      45.066   1.507  71.660  1.00  0.00     0.029 A 
HETATM   13  C   UNL     1      44.390   2.474  72.403  1.00  0.00     0.004 A 
HETATM   14  C   UNL     1      44.494   3.821  72.054  1.00  0.00     0.029 A 
BRANCH  11  15
HETATM   15  N   UNL     1      46.524   0.919  69.824  1.00  0.00    -0.327 N 
HETATM   16  C   UNL     1      46.052   0.184  68.734  1.00  0.00     0.226 C 
HETATM   17  O   UNL     1      44.947   0.243  68.211  1.00  0.00    -0.273 OA
HETATM   18  H   UNL     1      47.477   0.728  70.126  1.00  0.00     0.169 HD
BRANCH  16  19
HETATM   19  C   UNL     1      47.053  -0.777  68.173  1.00  0.00     0.078 A 
HETATM   20  C   UNL     1      47.236  -2.086  68.856  1.00  0.00     0.015 A 
HETATM   21  C   UNL     1      48.298  -1.031  68.948  1.00  0.00     0.015 A 
ENDBRANCH  16  19
ENDBRANCH  11  15
ENDBRANCH   7   9
ENDBRANCH   3   7
BRANCH   5  22
HETATM   22  N   UNL     1      43.444   8.139  67.083  1.00  0.00    -0.341 N 
HETATM   23  H   UNL     1      42.516   8.052  66.676  1.00  0.00     0.167 HD
BRANCH  22  24
HETATM   24  C   UNL     1      44.451   8.283  66.106  1.00  0.00     0.034 A 
HETATM   25  C   UNL     1      44.787   7.207  65.284  1.00  0.00     0.045 A 
HETATM   26  C   UNL     1      45.781   7.352  64.318  1.00  0.00     0.050 A 
HETATM   27  C   UNL     1      46.441   8.572  64.173  1.00  0.00     0.016 A 
HETATM   28  C   UNL     1      46.106   9.648  64.994  1.00  0.00     0.003 A 
HETATM   29  C   UNL     1      45.111   9.504  65.961  1.00  0.00     0.029 A 
BRANCH  26  30
HETATM   30  C   UNL     1      46.140   6.201  63.438  1.00  0.00     0.417 C 
HETATM   31  F   UNL     1      47.237   5.508  63.864  1.00  0.00    -0.166 F 
HETATM   32  F   UNL     1      45.150   5.267  63.329  1.00  0.00    -0.166 F 
HETATM   33  F   UNL     1      46.423   6.586  62.159  1.00  0.00    -0.166 F 
ENDBRANCH  26  30
ENDBRANCH  22  24
ENDBRANCH   5  22
TORSDOF 7
ENDMDL
MODEL 2
REMARK VINA RESULT:      -6.2      3.086      7.858
REMARK  7 active torsions:
REMARK  status: ('A' for Active; 'I' for Inactive)
REMARK       I    between atoms: N_5  and  C_13 
REMARK    1  A    between atoms: N_5  and  C_14 
REMARK    2  A    between atoms: N_6  and  C_17 
REMARK    3  A    between atoms: N_6  and  C_20 
REMARK    4  A    between atoms: N_7  and  C_21 
REMARK    5  A    between atoms: N_7  and  C_23 
REMARK    6  A    between atoms: C_10  and  C_13 
REMARK    7  A    between atoms: C_24  and  C_29 
ROOT
HETATM    1  N   UNL     1      42.162   8.205  70.402  1.00  0.00    -0.224 NA
HETATM    2  N   UNL     1      43.271   6.731  71.952  1.00  0.00    -0.224 NA
HETATM    3  C   UNL     1      43.025   7.794  69.450  1.00  0.00     0.133 A 
HETATM    4  C   UNL     1      44.024   6.866  69.670  1.00  0.00     0.100 A 
HETATM    5  C   UNL     1      44.106   6.359  70.954  1.00  0.00     0.133 A 
HETATM    6  C   UNL     1      42.339   7.642  71.612  1.00  0.00     0.237 A 
ENDROOT
BRANCH   3   7
HETATM    7  N   UNL     1      42.913   8.335  68.146  1.00  0.00    -0.341 N 
HETATM    8  H   UNL     1      41.990   8.219  67.738  1.00  0.00     0.167 HD
BRANCH   7   9
HETATM    9  C   UNL     1      43.827   9.004  67.316  1.00  0.00     0.035 A 
HETATM   10  C   UNL     1      44.195   8.452  66.085  1.00  0.00     0.059 A 
HETATM   11  C   UNL     1      45.102   9.118  65.261  1.00  0.00     0.036 A 
HETATM   12  C   UNL     1      45.644  10.339  65.663  1.00  0.00     0.029 A 
HETATM   13  C   UNL     1      45.280  10.894  66.889  1.00  0.00     0.004 A 
HETATM   14  C   UNL     1      44.374  10.227  67.714  1.00  0.00     0.029 A 
BRANCH  11  15
HETATM   15  N   UNL     1      45.466   8.563  64.033  1.00  0.00    -0.327 N 
HETATM   16  C   UNL     1      46.304   7.472  63.796  1.00  0.00     0.226 C 
HETATM   17  O   UNL     1      46.888   6.780  64.620  1.00  0.00    -0.273 OA
HETATM   18  H   UNL     1      45.071   9.023  63.216  1.00  0.00     0.169 HD
BRANCH  16  19
HETATM   19  C   UNL     1      46.477   7.146  62.345  1.00  0.00     0.078 A 
HETATM   20  C   UNL     1      47.837   6.787  61.860  1.00  0.00     0.015 A 
HETATM   21  C   UNL     1      47.227   8.107  61.491  1.00  0.00     0.015 A 
ENDBRANCH  16  19
ENDBRANCH  11  15
ENDBRANCH   7   9
ENDBRANCH   3   7
BRANCH   5  22
HETATM   22  N   UNL     1      45.111   5.410  71.220  1.00  0.00    -0.341 N 
HETATM   23  H   UNL     1      46.046   5.757  71.018  1.00  0.00     0.167 HD
BRANCH  22  24
HETATM   24  C   UNL     1      45.082   4.010  71.393  1.00  0.00     0.034 A 
HETATM   25  C   UNL     1      45.340   3.167  70.313  1.00  0.00     0.045 A 
HETATM   26  C   UNL     1      45.312   1.784  70.485  1.00  0.00     0.050 A 
HETATM   27  C   UNL     1      45.025   1.243  71.739  1.00  0.00     0.016 A 
HETATM   28  C   UNL     1      44.766   2.085  72.820  1.00  0.00     0.003 A 
HETATM   29  C   UNL     1      44.795   3.469  72.647  1.00  0.00     0.029 A 
BRANCH  26  30
HETATM   30  C   UNL     1      45.588   0.881  69.330  1.00  0.00     0.417 C 
HETATM   31  F   UNL     1      44.830   1.155  68.228  1.00  0.00    -0.166 F 
HETATM   32  F   UNL     1      46.881   0.932  68.894  1.00  0.00    -0.166 F 
HETATM   33  F   UNL     1      45.350  -0.432  69.620  1.00  0.00    -0.166 F 
ENDBRANCH  26  30
ENDBRANCH  22  24
ENDBRANCH   5  22
TORSDOF 7
ENDMDL
MODEL 3
REMARK VINA RESULT:      -6.2      4.761      8.662
REMARK  7 active torsions:
REMARK  status: ('A' for Active; 'I' for Inactive)
REMARK       I    between atoms: N_5  and  C_13 
REMARK    1  A    between atoms: N_5  and  C_14 
REMARK    2  A    between atoms: N_6  and  C_17 
REMARK    3  A    between atoms: N_6  and  C_20 
REMARK    4  A    between atoms: N_7  and  C_21 
REMARK    5  A    between atoms: N_7  and  C_23 
REMARK    6  A    between atoms: C_10  and  C_13 
REMARK    7  A    between atoms: C_24  and  C_29 
ROOT
HETATM    1  N   UNL     1      41.506   8.657  70.123  1.00  0.00    -0.224 NA
HETATM    2  N   UNL     1      42.254   7.631  72.171  1.00  0.00    -0.224 NA
HETATM    3  C   UNL     1      42.511   8.025  69.482  1.00  0.00     0.133 A 
HETATM    4  C   UNL     1      43.415   7.191  70.109  1.00  0.00     0.100 A 
HETATM    5  C   UNL     1      43.242   7.025  71.471  1.00  0.00     0.133 A 
HETATM    6  C   UNL     1      41.438   8.420  71.447  1.00  0.00     0.237 A 
ENDROOT
BRANCH   3   7
HETATM    7  N   UNL     1      42.660   8.218  68.087  1.00  0.00    -0.341 N 
HETATM    8  H   UNL     1      41.922   7.786  67.538  1.00  0.00     0.167 HD
BRANCH   7   9
HETATM    9  C   UNL     1      43.623   8.896  67.321  1.00  0.00     0.035 A 
HETATM   10  C   UNL     1      44.001   8.404  66.069  1.00  0.00     0.059 A 
HETATM   11  C   UNL     1      44.956   9.078  65.309  1.00  0.00     0.036 A 
HETATM   12  C   UNL     1      45.538  10.248  65.798  1.00  0.00     0.029 A 
HETATM   13  C   UNL     1      45.164  10.744  67.047  1.00  0.00     0.004 A 
HETATM   14  C   UNL     1      44.209  10.068  67.807  1.00  0.00     0.029 A 
BRANCH  11  15
HETATM   15  N   UNL     1      45.329   8.583  64.059  1.00  0.00    -0.327 N 
HETATM   16  C   UNL     1      46.430   7.783  63.742  1.00  0.00     0.226 C 
HETATM   17  O   UNL     1      47.289   7.355  64.502  1.00  0.00    -0.273 OA
HETATM   18  H   UNL     1      44.720   8.849  63.287  1.00  0.00     0.169 HD
BRANCH  16  19
HETATM   19  C   UNL     1      46.527   7.434  62.290  1.00  0.00     0.078 A 
HETATM   20  C   UNL     1      47.851   7.020  61.751  1.00  0.00     0.015 A 
HETATM   21  C   UNL     1      47.273   8.357  61.392  1.00  0.00     0.015 A 
ENDBRANCH  16  19
ENDBRANCH  11  15
ENDBRANCH   7   9
ENDBRANCH   3   7
BRANCH   5  22
HETATM   22  N   UNL     1      44.143   6.182  72.148  1.00  0.00    -0.341 N 
HETATM   23  H   UNL     1      44.963   6.676  72.494  1.00  0.00     0.167 HD
BRANCH  22  24
HETATM   24  C   UNL     1      44.308   4.781  72.169  1.00  0.00     0.034 A 
HETATM   25  C   UNL     1      43.508   3.996  72.999  1.00  0.00     0.045 A 
HETATM   26  C   UNL     1      43.671   2.611  73.017  1.00  0.00     0.050 A 
HETATM   27  C   UNL     1      44.634   2.011  72.206  1.00  0.00     0.016 A 
HETATM   28  C   UNL     1      45.435   2.796  71.376  1.00  0.00     0.003 A 
HETATM   29  C   UNL     1      45.271   4.181  71.357  1.00  0.00     0.029 A 
BRANCH  26  30
HETATM   30  C   UNL     1      42.816   1.770  73.905  1.00  0.00     0.417 C 
HETATM   31  F   UNL     1      41.793   1.147  73.249  1.00  0.00    -0.166 F 
HETATM   32  F   UNL     1      43.499   0.769  74.532  1.00  0.00    -0.166 F 
HETATM   33  F   UNL     1      42.226   2.492  74.902  1.00  0.00    -0.166 F 
ENDBRANCH  26  30
ENDBRANCH  22  24
ENDBRANCH   5  22
TORSDOF 7
ENDMDL
MODEL 4
REMARK VINA RESULT:      -6.1      5.205      9.392
REMARK  7 active torsions:
REMARK  status: ('A' for Active; 'I' for Inactive)
REMARK       I    between atoms: N_5  and  C_13 
REMARK    1  A    between atoms: N_5  and  C_14 
REMARK    2  A    between atoms: N_6  and  C_17 
REMARK    3  A    between atoms: N_6  and  C_20 
REMARK    4  A    between atoms: N_7  and  C_21 
REMARK    5  A    between atoms: N_7  and  C_23 
REMARK    6  A    between atoms: C_10  and  C_13 
REMARK    7  A    between atoms: C_24  and  C_29 
ROOT
HETATM    1  N   UNL     1      42.874   8.587  71.378  1.00  0.00    -0.224 NA
HETATM    2  N   UNL     1      44.368   7.604  69.764  1.00  0.00    -0.224 NA
HETATM    3  C   UNL     1      41.921   8.618  70.423  1.00  0.00     0.133 A 
HETATM    4  C   UNL     1      42.114   8.166  69.133  1.00  0.00     0.100 A 
HETATM    5  C   UNL     1      43.371   7.662  68.850  1.00  0.00     0.133 A 
HETATM    6  C   UNL     1      44.056   8.076  70.985  1.00  0.00     0.237 A 
ENDROOT
BRANCH   3   7
HETATM    7  N   UNL     1      40.646   9.141  70.747  1.00  0.00    -0.341 N 
HETATM    8  H   UNL     1      39.994   8.439  71.086  1.00  0.00     0.167 HD
BRANCH   7   9
HETATM    9  C   UNL     1      40.113  10.440  70.697  1.00  0.00     0.035 A 
HETATM   10  C   UNL     1      38.778  10.668  71.041  1.00  0.00     0.059 A 
HETATM   11  C   UNL     1      38.251  11.958  70.992  1.00  0.00     0.036 A 
HETATM   12  C   UNL     1      39.057  13.027  70.598  1.00  0.00     0.029 A 
HETATM   13  C   UNL     1      40.390  12.805  70.253  1.00  0.00     0.004 A 
HETATM   14  C   UNL     1      40.917  11.514  70.302  1.00  0.00     0.029 A 
BRANCH  11  15
HETATM   15  N   UNL     1      36.917  12.181  71.338  1.00  0.00    -0.327 N 
HETATM   16  C   UNL     1      36.308  11.997  72.581  1.00  0.00     0.226 C 
HETATM   17  O   UNL     1      36.824  11.604  73.619  1.00  0.00    -0.273 OA
HETATM   18  H   UNL     1      36.323  12.512  70.582  1.00  0.00     0.169 HD
BRANCH  16  19
HETATM   19  C   UNL     1      34.850  12.337  72.597  1.00  0.00     0.078 A 
HETATM   20  C   UNL     1      34.454  13.732  72.929  1.00  0.00     0.015 A 
HETATM   21  C   UNL     1      34.207  12.623  73.909  1.00  0.00     0.015 A 
ENDBRANCH  16  19
ENDBRANCH  11  15
ENDBRANCH   7   9
ENDBRANCH   3   7
BRANCH   5  22
HETATM   22  N   UNL     1      43.609   7.190  67.545  1.00  0.00    -0.341 N 
HETATM   23  H   UNL     1      43.402   6.199  67.440  1.00  0.00     0.167 HD
BRANCH  22  24
HETATM   24  C   UNL     1      44.358   7.703  66.466  1.00  0.00     0.034 A 
HETATM   25  C   UNL     1      44.873   6.838  65.500  1.00  0.00     0.045 A 
HETATM   26  C   UNL     1      45.611   7.346  64.432  1.00  0.00     0.050 A 
HETATM   27  C   UNL     1      45.836   8.719  64.330  1.00  0.00     0.016 A 
HETATM   28  C   UNL     1      45.321   9.584  65.295  1.00  0.00     0.003 A 
HETATM   29  C   UNL     1      44.582   9.075  66.364  1.00  0.00     0.029 A 
BRANCH  26  30
HETATM   30  C   UNL     1      46.163   6.422  63.398  1.00  0.00     0.417 C 
HETATM   31  F   UNL     1      47.394   5.922  63.711  1.00  0.00    -0.166 F 
HETATM   32  F   UNL     1      45.380   5.326  63.173  1.00  0.00    -0.166 F 
HETATM   33  F   UNL     1      46.310   7.024  62.181  1.00  0.00    -0.166 F 
ENDBRANCH  26  30
ENDBRANCH  22  24
ENDBRANCH   5  22
TORSDOF 7
ENDMDL
MODEL 5
REMARK VINA RESULT:      -6.1      5.514      8.078
REMARK  7 active torsions:
REMARK  status: ('A' for Active; 'I' for Inactive)
REMARK       I    between atoms: N_5  and  C_13 
REMARK    1  A    between atoms: N_5  and  C_14 
REMARK    2  A    between atoms: N_6  and  C_17 
REMARK    3  A    between atoms: N_6  and  C_20 
REMARK    4  A    between atoms: N_7  and  C_21 
REMARK    5  A    between atoms: N_7  and  C_23 
REMARK    6  A    between atoms: C_10  and  C_13 
REMARK    7  A    between atoms: C_24  and  C_29 
ROOT
HETATM    1  N   UNL     1      43.774   7.193  70.313  1.00  0.00    -0.224 NA
HETATM    2  N   UNL     1      42.243   8.148  71.911  1.00  0.00    -0.224 NA
HETATM    3  C   UNL     1      42.919   7.555  69.334  1.00  0.00     0.133 A 
HETATM    4  C   UNL     1      41.724   8.207  69.561  1.00  0.00     0.100 A 
HETATM    5  C   UNL     1      41.428   8.484  70.884  1.00  0.00     0.133 A 
HETATM    6  C   UNL     1      43.378   7.515  71.560  1.00  0.00     0.237 A 
ENDROOT
BRANCH   3   7
HETATM    7  N   UNL     1      43.253   7.255  67.991  1.00  0.00    -0.341 N 
HETATM    8  H   UNL     1      42.774   6.436  67.627  1.00  0.00     0.167 HD
BRANCH   7   9
HETATM    9  C   UNL     1      44.111   7.874  67.067  1.00  0.00     0.035 A 
HETATM   10  C   UNL     1      45.165   7.157  66.494  1.00  0.00     0.059 A 
HETATM   11  C   UNL     1      46.015   7.772  65.576  1.00  0.00     0.036 A 
HETATM   12  C   UNL     1      45.815   9.108  65.225  1.00  0.00     0.029 A 
HETATM   13  C   UNL     1      44.764   9.827  65.793  1.00  0.00     0.004 A 
HETATM   14  C   UNL     1      43.914   9.212  66.713  1.00  0.00     0.029 A 
BRANCH  11  15
HETATM   15  N   UNL     1      47.066   7.052  65.006  1.00  0.00    -0.327 N 
HETATM   16  C   UNL     1      47.022   6.181  63.915  1.00  0.00     0.226 C 
HETATM   17  O   UNL     1      46.049   5.876  63.238  1.00  0.00    -0.273 OA
HETATM   18  H   UNL     1      47.972   7.180  65.453  1.00  0.00     0.169 HD
BRANCH  16  19
HETATM   19  C   UNL     1      48.347   5.575  63.570  1.00  0.00     0.078 A 
HETATM   20  C   UNL     1      48.684   5.389  62.133  1.00  0.00     0.015 A 
HETATM   21  C   UNL     1      48.365   4.203  62.994  1.00  0.00     0.015 A 
ENDBRANCH  16  19
ENDBRANCH  11  15
ENDBRANCH   7   9
ENDBRANCH   3   7
BRANCH   5  22
HETATM   22  N   UNL     1      40.218   9.149  71.159  1.00  0.00    -0.341 N 
HETATM   23  H   UNL     1      39.446   8.509  71.332  1.00  0.00     0.167 HD
BRANCH  22  24
HETATM   24  C   UNL     1      39.783  10.471  70.933  1.00  0.00     0.034 A 
HETATM   25  C   UNL     1      40.711  11.510  70.864  1.00  0.00     0.045 A 
HETATM   26  C   UNL     1      40.280  12.817  70.639  1.00  0.00     0.050 A 
HETATM   27  C   UNL     1      38.920  13.086  70.484  1.00  0.00     0.016 A 
HETATM   28  C   UNL     1      37.991  12.048  70.554  1.00  0.00     0.003 A 
HETATM   29  C   UNL     1      38.423  10.740  70.779  1.00  0.00     0.029 A 
BRANCH  26  30
HETATM   30  C   UNL     1      41.273  13.928  70.565  1.00  0.00     0.417 C 
HETATM   31  F   UNL     1      40.704  15.162  70.422  1.00  0.00    -0.166 F 
HETATM   32  F   UNL     1      42.065  14.027  71.672  1.00  0.00    -0.166 F 
HETATM   33  F   UNL     1      42.130  13.796  69.511  1.00  0.00    -0.166 F 
ENDBRANCH  26  30
ENDBRANCH  22  24
ENDBRANCH   5  22
TORSDOF 7
ENDMDL
MODEL 6
REMARK VINA RESULT:      -6.1      7.283     10.872
REMARK  7 active torsions:
REMARK  status: ('A' for Active; 'I' for Inactive)
REMARK       I    between atoms: N_5  and  C_13 
REMARK    1  A    between atoms: N_5  and  C_14 
REMARK    2  A    between atoms: N_6  and  C_17 
REMARK    3  A    between atoms: N_6  and  C_20 
REMARK    4  A    between atoms: N_7  and  C_21 
REMARK    5  A    between atoms: N_7  and  C_23 
REMARK    6  A    between atoms: C_10  and  C_13 
REMARK    7  A    between atoms: C_24  and  C_29 
ROOT
HETATM    1  N   UNL     1      47.471  -4.670  71.028  1.00  0.00    -0.224 NA
HETATM    2  N   UNL     1      46.997  -2.748  69.654  1.00  0.00    -0.224 NA
HETATM    3  C   UNL     1      46.299  -4.459  71.663  1.00  0.00     0.133 A 
HETATM    4  C   UNL     1      45.435  -3.428  71.354  1.00  0.00     0.100 A 
HETATM    5  C   UNL     1      45.835  -2.589  70.329  1.00  0.00     0.133 A 
HETATM    6  C   UNL     1      47.753  -3.790  70.049  1.00  0.00     0.237 A 
ENDROOT
BRANCH   3   7
HETATM    7  N   UNL     1      45.921  -5.336  72.708  1.00  0.00    -0.341 N 
HETATM    8  H   UNL     1      46.678  -5.547  73.354  1.00  0.00     0.167 HD
BRANCH   7   9
HETATM    9  C   UNL     1      44.705  -5.963  73.027  1.00  0.00     0.035 A 
HETATM   10  C   UNL     1      44.106  -5.748  74.271  1.00  0.00     0.059 A 
HETATM   11  C   UNL     1      42.899  -6.369  74.585  1.00  0.00     0.036 A 
HETATM   12  C   UNL     1      42.283  -7.210  73.657  1.00  0.00     0.029 A 
HETATM   13  C   UNL     1      42.877  -7.428  72.413  1.00  0.00     0.004 A 
HETATM   14  C   UNL     1      44.086  -6.806  72.100  1.00  0.00     0.029 A 
BRANCH  11  15
HETATM   15  N   UNL     1      42.304  -6.151  75.829  1.00  0.00    -0.327 N 
HETATM   16  C   UNL     1      42.239  -7.023  76.918  1.00  0.00     0.226 C 
HETATM   17  O   UNL     1      42.694  -8.156  77.000  1.00  0.00    -0.273 OA
HETATM   18  H   UNL     1      41.859  -5.242  75.943  1.00  0.00     0.169 HD
BRANCH  16  19
HETATM   19  C   UNL     1      41.520  -6.458  78.103  1.00  0.00     0.078 A 
HETATM   20  C   UNL     1      41.401  -7.301  79.324  1.00  0.00     0.015 A 
HETATM   21  C   UNL     1      40.198  -7.038  78.467  1.00  0.00     0.015 A 
ENDBRANCH  16  19
ENDBRANCH  11  15
ENDBRANCH   7   9
ENDBRANCH   3   7
BRANCH   5  22
HETATM   22  N   UNL     1      44.981  -1.525  69.983  1.00  0.00    -0.341 N 
HETATM   23  H   UNL     1      44.320  -1.771  69.249  1.00  0.00     0.167 HD
BRANCH  22  24
HETATM   24  C   UNL     1      45.054  -0.133  70.198  1.00  0.00     0.034 A 
HETATM   25  C   UNL     1      44.860   0.388  71.478  1.00  0.00     0.045 A 
HETATM   26  C   UNL     1      44.935   1.764  71.690  1.00  0.00     0.050 A 
HETATM   27  C   UNL     1      45.203   2.620  70.622  1.00  0.00     0.016 A 
HETATM   28  C   UNL     1      45.396   2.101  69.342  1.00  0.00     0.003 A 
HETATM   29  C   UNL     1      45.322   0.724  69.130  1.00  0.00     0.029 A 
BRANCH  26  30
HETATM   30  C   UNL     1      44.727   2.321  73.058  1.00  0.00     0.417 C 
HETATM   31  F   UNL     1      43.413   2.447  73.404  1.00  0.00    -0.166 F 
HETATM   32  F   UNL     1      45.285   1.562  74.047  1.00  0.00    -0.166 F 
HETATM   33  F   UNL     1      45.266   3.567  73.205  1.00  0.00    -0.166 F 
ENDBRANCH  26  30
ENDBRANCH  22  24
ENDBRANCH   5  22
TORSDOF 7
ENDMDL
MODEL 7
REMARK VINA RESULT:      -6.1      1.451      2.215
REMARK  7 active torsions:
REMARK  status: ('A' for Active; 'I' for Inactive)
REMARK       I    between atoms: N_5  and  C_13 
REMARK    1  A    between atoms: N_5  and  C_14 
REMARK    2  A    between atoms: N_6  and  C_17 
REMARK    3  A    between atoms: N_6  and  C_20 
REMARK    4  A    between atoms: N_7  and  C_21 
REMARK    5  A    between atoms: N_7  and  C_23 
REMARK    6  A    between atoms: C_10  and  C_13 
REMARK    7  A    between atoms: C_24  and  C_29 
ROOT
HETATM    1  N   UNL     1      43.005   7.516  71.084  1.00  0.00    -0.224 NA
HETATM    2  N   UNL     1      41.972   8.352  69.074  1.00  0.00    -0.224 NA
HETATM    3  C   UNL     1      44.126   7.288  70.368  1.00  0.00     0.133 A 
HETATM    4  C   UNL     1      44.245   7.563  69.021  1.00  0.00     0.100 A 
HETATM    5  C   UNL     1      43.125   8.100  68.412  1.00  0.00     0.133 A 
HETATM    6  C   UNL     1      41.981   8.041  70.384  1.00  0.00     0.237 A 
ENDROOT
BRANCH   3   7
HETATM    7  N   UNL     1      45.254   6.736  71.024  1.00  0.00    -0.341 N 
HETATM    8  H   UNL     1      45.335   7.018  71.997  1.00  0.00     0.167 HD
BRANCH   7   9
HETATM    9  C   UNL     1      46.273   5.872  70.591  1.00  0.00     0.035 A 
HETATM   10  C   UNL     1      45.977   4.552  70.242  1.00  0.00     0.059 A 
HETATM   11  C   UNL     1      46.989   3.696  69.811  1.00  0.00     0.036 A 
HETATM   12  C   UNL     1      48.304   4.156  69.726  1.00  0.00     0.029 A 
HETATM   13  C   UNL     1      48.605   5.473  70.072  1.00  0.00     0.004 A 
HETATM   14  C   UNL     1      47.592   6.329  70.505  1.00  0.00     0.029 A 
BRANCH  11  15
HETATM   15  N   UNL     1      46.688   2.378  69.464  1.00  0.00    -0.327 N 
HETATM   16  C   UNL     1      46.559   1.272  70.308  1.00  0.00     0.226 C 
HETATM   17  O   UNL     1      46.684   1.239  71.525  1.00  0.00    -0.273 OA
HETATM   18  H   UNL     1      46.554   2.212  68.469  1.00  0.00     0.169 HD
BRANCH  16  19
HETATM   19  C   UNL     1      46.227   0.000  69.592  1.00  0.00     0.078 A 
HETATM   20  C   UNL     1      45.322   0.069  68.414  1.00  0.00     0.015 A 
HETATM   21  C   UNL     1      44.840  -0.528  69.703  1.00  0.00     0.015 A 
ENDBRANCH  16  19
ENDBRANCH  11  15
ENDBRANCH   7   9
ENDBRANCH   3   7
BRANCH   5  22
HETATM   22  N   UNL     1      43.205   8.396  67.038  1.00  0.00    -0.341 N 
HETATM   23  H   UNL     1      42.313   8.294  66.559  1.00  0.00     0.167 HD
BRANCH  22  24
HETATM   24  C   UNL     1      44.291   8.485  66.142  1.00  0.00     0.034 A 
HETATM   25  C   UNL     1      44.625   7.396  65.338  1.00  0.00     0.045 A 
HETATM   26  C   UNL     1      45.698   7.486  64.451  1.00  0.00     0.050 A 
HETATM   27  C   UNL     1      46.437   8.666  64.369  1.00  0.00     0.016 A 
HETATM   28  C   UNL     1      46.104   9.755  65.173  1.00  0.00     0.003 A 
HETATM   29  C   UNL     1      45.031   9.665  66.060  1.00  0.00     0.029 A 
BRANCH  26  30
HETATM   30  C   UNL     1      46.055   6.320  63.591  1.00  0.00     0.417 C 
HETATM   31  F   UNL     1      45.097   5.348  63.560  1.00  0.00    -0.166 F 
HETATM   32  F   UNL     1      46.269   6.652  62.284  1.00  0.00    -0.166 F 
HETATM   33  F   UNL     1      47.198   5.695  64.002  1.00  0.00    -0.166 F 
ENDBRANCH  26  30
ENDBRANCH  22  24
ENDBRANCH   5  22
TORSDOF 7
ENDMDL
MODEL 8
REMARK VINA RESULT:      -6.1      3.483      8.373
REMARK  7 active torsions:
REMARK  status: ('A' for Active; 'I' for Inactive)
REMARK       I    between atoms: N_5  and  C_13 
REMARK    1  A    between atoms: N_5  and  C_14 
REMARK    2  A    between atoms: N_6  and  C_17 
REMARK    3  A    between atoms: N_6  and  C_20 
REMARK    4  A    between atoms: N_7  and  C_21 
REMARK    5  A    between atoms: N_7  and  C_23 
REMARK    6  A    between atoms: C_10  and  C_13 
REMARK    7  A    between atoms: C_24  and  C_29 
ROOT
HETATM    1  N   UNL     1      46.591   6.196  69.349  1.00  0.00    -0.224 NA
HETATM    2  N   UNL     1      47.359   4.461  70.835  1.00  0.00    -0.224 NA
HETATM    3  C   UNL     1      45.411   5.547  69.262  1.00  0.00     0.133 A 
HETATM    4  C   UNL     1      45.134   4.367  69.922  1.00  0.00     0.100 A 
HETATM    5  C   UNL     1      46.155   3.858  70.705  1.00  0.00     0.133 A 
HETATM    6  C   UNL     1      47.507   5.605  70.141  1.00  0.00     0.237 A 
ENDROOT
BRANCH   3   7
HETATM    7  N   UNL     1      44.389   6.096  68.450  1.00  0.00    -0.341 N 
HETATM    8  H   UNL     1      43.513   5.585  68.501  1.00  0.00     0.167 HD
BRANCH   7   9
HETATM    9  C   UNL     1      44.353   7.211  67.596  1.00  0.00     0.035 A 
HETATM   10  C   UNL     1      44.788   7.099  66.273  1.00  0.00     0.059 A 
HETATM   11  C   UNL     1      44.751   8.206  65.426  1.00  0.00     0.036 A 
HETATM   12  C   UNL     1      44.277   9.431  65.898  1.00  0.00     0.029 A 
HETATM   13  C   UNL     1      43.841   9.547  67.218  1.00  0.00     0.004 A 
HETATM   14  C   UNL     1      43.880   8.440  68.065  1.00  0.00     0.029 A 
BRANCH  11  15
HETATM   15  N   UNL     1      45.186   8.090  64.105  1.00  0.00    -0.327 N 
HETATM   16  C   UNL     1      46.484   7.863  63.642  1.00  0.00     0.226 C 
HETATM   17  O   UNL     1      47.502   7.719  64.306  1.00  0.00    -0.273 OA
HETATM   18  H   UNL     1      44.460   8.190  63.399  1.00  0.00     0.169 HD
BRANCH  16  19
HETATM   19  C   UNL     1      46.592   7.793  62.151  1.00  0.00     0.078 A 
HETATM   20  C   UNL     1      47.860   7.290  61.558  1.00  0.00     0.015 A 
HETATM   21  C   UNL     1      47.508   8.745  61.466  1.00  0.00     0.015 A 
ENDBRANCH  16  19
ENDBRANCH  11  15
ENDBRANCH   7   9
ENDBRANCH   3   7
BRANCH   5  22
HETATM   22  N   UNL     1      45.912   2.656  71.396  1.00  0.00    -0.341 N 
HETATM   23  H   UNL     1      46.146   2.714  72.385  1.00  0.00     0.167 HD
BRANCH  22  24
HETATM   24  C   UNL     1      45.727   1.326  70.963  1.00  0.00     0.034 A 
HETATM   25  C   UNL     1      46.546   0.796  69.966  1.00  0.00     0.045 A 
HETATM   26  C   UNL     1      46.363  -0.519  69.540  1.00  0.00     0.050 A 
HETATM   27  C   UNL     1      45.361  -1.304  70.110  1.00  0.00     0.016 A 
HETATM   28  C   UNL     1      44.541  -0.774  71.106  1.00  0.00     0.003 A 
HETATM   29  C   UNL     1      44.725   0.541  71.533  1.00  0.00     0.029 A 
BRANCH  26  30
HETATM   30  C   UNL     1      47.239  -1.087  68.474  1.00  0.00     0.417 C 
HETATM   31  F   UNL     1      47.497  -2.418  68.629  1.00  0.00    -0.166 F 
HETATM   32  F   UNL     1      46.716  -0.969  67.218  1.00  0.00    -0.166 F 
HETATM   33  F   UNL     1      48.461  -0.480  68.420  1.00  0.00    -0.166 F 
ENDBRANCH  26  30
ENDBRANCH  22  24
ENDBRANCH   5  22
TORSDOF 7
ENDMDL
MODEL 9
REMARK VINA RESULT:      -6.0      5.596     10.784
REMARK  7 active torsions:
REMARK  status: ('A' for Active; 'I' for Inactive)
REMARK       I    between atoms: N_5  and  C_13 
REMARK    1  A    between atoms: N_5  and  C_14 
REMARK    2  A    between atoms: N_6  and  C_17 
REMARK    3  A    between atoms: N_6  and  C_20 
REMARK    4  A    between atoms: N_7  and  C_21 
REMARK    5  A    between atoms: N_7  and  C_23 
REMARK    6  A    between atoms: C_10  and  C_13 
REMARK    7  A    between atoms: C_24  and  C_29 
ROOT
HETATM    1  N   UNL     1      48.707   7.982  61.693  1.00  0.00    -0.224 NA
HETATM    2  N   UNL     1      46.852   6.889  62.775  1.00  0.00    -0.224 NA
HETATM    3  C   UNL     1      48.188   9.165  62.081  1.00  0.00     0.133 A 
HETATM    4  C   UNL     1      47.021   9.289  62.808  1.00  0.00     0.100 A 
HETATM    5  C   UNL     1      46.383   8.106  63.134  1.00  0.00     0.133 A 
HETATM    6  C   UNL     1      47.998   6.900  62.068  1.00  0.00     0.237 A 
ENDROOT
BRANCH   3   7
HETATM    7  N   UNL     1      48.867  10.357  61.729  1.00  0.00    -0.341 N 
HETATM    8  H   UNL     1      49.776  10.194  61.304  1.00  0.00     0.167 HD
BRANCH   7   9
HETATM    9  C   UNL     1      48.525  11.714  61.849  1.00  0.00     0.035 A 
HETATM   10  C   UNL     1      48.884  12.433  62.992  1.00  0.00     0.059 A 
HETATM   11  C   UNL     1      48.545  13.781  63.109  1.00  0.00     0.036 A 
HETATM   12  C   UNL     1      47.845  14.416  62.082  1.00  0.00     0.029 A 
HETATM   13  C   UNL     1      47.485  13.703  60.939  1.00  0.00     0.004 A 
HETATM   14  C   UNL     1      47.823  12.354  60.823  1.00  0.00     0.029 A 
BRANCH  11  15
HETATM   15  N   UNL     1      48.907  14.495  64.252  1.00  0.00    -0.327 N 
HETATM   16  C   UNL     1      48.228  14.572  65.470  1.00  0.00     0.226 C 
HETATM   17  O   UNL     1      47.178  14.025  65.779  1.00  0.00    -0.273 OA
HETATM   18  H   UNL     1      49.771  15.027  64.175  1.00  0.00     0.169 HD
BRANCH  16  19
HETATM   19  C   UNL     1      48.906  15.436  66.487  1.00  0.00     0.078 A 
HETATM   20  C   UNL     1      49.225  14.845  67.815  1.00  0.00     0.015 A 
HETATM   21  C   UNL     1      48.127  15.859  67.684  1.00  0.00     0.015 A 
ENDBRANCH  16  19
ENDBRANCH  11  15
ENDBRANCH   7   9
ENDBRANCH   3   7
BRANCH   5  22
HETATM   22  N   UNL     1      45.189   8.189  63.876  1.00  0.00    -0.341 N 
HETATM   23  H   UNL     1      44.375   8.381  63.296  1.00  0.00     0.167 HD
BRANCH  22  24
HETATM   24  C   UNL     1      44.930   8.382  65.249  1.00  0.00     0.034 A 
HETATM   25  C   UNL     1      44.870   7.285  66.109  1.00  0.00     0.045 A 
HETATM   26  C   UNL     1      44.615   7.477  67.467  1.00  0.00     0.050 A 
HETATM   27  C   UNL     1      44.420   8.765  67.965  1.00  0.00     0.016 A 
HETATM   28  C   UNL     1      44.480   9.862  67.106  1.00  0.00     0.003 A 
HETATM   29  C   UNL     1      44.735   9.670  65.747  1.00  0.00     0.029 A 
BRANCH  26  30
HETATM   30  C   UNL     1      44.551   6.304  68.387  1.00  0.00     0.417 C 
HETATM   31  F   UNL     1      45.775   5.796  68.713  1.00  0.00    -0.166 F 
HETATM   32  F   UNL     1      43.949   6.580  69.581  1.00  0.00    -0.166 F 
HETATM   33  F   UNL     1      43.850   5.258  67.857  1.00  0.00    -0.166 F 
ENDBRANCH  26  30
ENDBRANCH  22  24
ENDBRANCH   5  22
TORSDOF 7
ENDMDL
