MODEL 1
REMARK VINA RESULT:      -6.4      0.000      0.000
REMARK  7 active torsions:
REMARK  status: ('A' for Active; 'I' for Inactive)
REMARK       I    between atoms: N_5  and  C_13 
REMARK    1  A    between atoms: N_5  and  C_14 
REMARK    2  A    between atoms: N_6  and  C_17 
REMARK    3  A    between atoms: N_6  and  C_20 
REMARK    4  A    between atoms: N_7  and  C_21 
REMARK    5  A    between atoms: N_7  and  C_23 
REMARK    6  A    between atoms: C_10  and  C_13 
REMARK    7  A    between atoms: C_24  and  C_29 
ROOT
HETATM    1  N   UNL     1      43.198   7.292  70.961  1.00  0.00    -0.224 NA
HETATM    2  N   UNL     1      42.324   8.474  69.052  1.00  0.00    -0.224 NA
HETATM    3  C   UNL     1      44.179   6.812  70.168  1.00  0.00     0.133 A 
HETATM    4  C   UNL     1      44.298   7.115  68.827  1.00  0.00     0.100 A 
HETATM    5  C   UNL     1      43.332   7.961  68.310  1.00  0.00     0.133 A 
HETATM    6  C   UNL     1      42.317   8.104  70.347  1.00  0.00     0.237 A 
ENDROOT
BRANCH   3   7
HETATM    7  N   UNL     1      45.150   5.948  70.731  1.00  0.00    -0.341 N 
HETATM    8  H   UNL     1      46.024   6.415  70.958  1.00  0.00     0.167 HD
BRANCH   7   9
HETATM    9  C   UNL     1      45.135   4.578  71.039  1.00  0.00     0.035 A 
HETATM   10  C   UNL     1      45.800   3.664  70.218  1.00  0.00     0.059 A 
HETATM   11  C   UNL     1      45.786   2.304  70.525  1.00  0.00     0.036 A 
HETATM   12  C   UNL     1      45.105   1.851  71.656  1.00  0.00     0.029 A 
HETATM   13  C   UNL     1      44.439   2.760  72.479  1.00  0.00     0.004 A 
HETATM   14  C   UNL     1      44.453   4.120  72.170  1.00  0.00     0.029 A 
BRANCH  11  15
HETATM   15  N   UNL     1      46.453   1.395  69.703  1.00  0.00    -0.327 N 
HETATM   16  C   UNL     1      45.915   0.314  69.000  1.00  0.00     0.226 C 
HETATM   17  O   UNL     1      44.748  -0.052  68.965  1.00  0.00    -0.273 OA
HETATM   18  H   UNL     1      47.456   1.543  69.616  1.00  0.00     0.169 HD
BRANCH  16  19
HETATM   19  C   UNL     1      46.926  -0.457  68.210  1.00  0.00     0.078 A 
HETATM   20  C   UNL     1      47.041  -1.921  68.450  1.00  0.00     0.015 A 
HETATM   21  C   UNL     1      48.119  -0.991  68.923  1.00  0.00     0.015 A 
ENDBRANCH  16  19
ENDBRANCH  11  15
ENDBRANCH   7   9
ENDBRANCH   3   7
BRANCH   5  22
HETATM   22  N   UNL     1      43.418   8.295  66.945  1.00  0.00    -0.341 N 
HETATM   23  H   UNL     1      42.528   8.205  66.460  1.00  0.00     0.167 HD
BRANCH  22  24
HETATM   24  C   UNL     1      44.507   8.413  66.057  1.00  0.00     0.034 A 
HETATM   25  C   UNL     1      44.815   7.367  65.186  1.00  0.00     0.045 A 
HETATM   26  C   UNL     1      45.891   7.485  64.308  1.00  0.00     0.050 A 
HETATM   27  C   UNL     1      46.661   8.649  64.300  1.00  0.00     0.016 A 
HETATM   28  C   UNL     1      46.354   9.694  65.170  1.00  0.00     0.003 A 
HETATM   29  C   UNL     1      45.277   9.576  66.049  1.00  0.00     0.029 A 
BRANCH  26  30
HETATM   30  C   UNL     1      46.221   6.367  63.377  1.00  0.00     0.417 C 
HETATM   31  F   UNL     1      45.303   5.357  63.388  1.00  0.00    -0.166 F 
HETATM   32  F   UNL     1      46.310   6.754  62.070  1.00  0.00    -0.166 F 
HETATM   33  F   UNL     1      47.418   5.778  63.666  1.00  0.00    -0.166 F 
ENDBRANCH  26  30
ENDBRANCH  22  24
ENDBRANCH   5  22
TORSDOF 7
ENDMDL
MODEL 2
REMARK VINA RESULT:      -6.2      5.106      9.220
REMARK  7 active torsions:
REMARK  status: ('A' for Active; 'I' for Inactive)
REMARK       I    between atoms: N_5  and  C_13 
REMARK    1  A    between atoms: N_5  and  C_14 
REMARK    2  A    between atoms: N_6  and  C_17 
REMARK    3  A    between atoms: N_6  and  C_20 
REMARK    4  A    between atoms: N_7  and  C_21 
REMARK    5  A    between atoms: N_7  and  C_23 
REMARK    6  A    between atoms: C_10  and  C_13 
REMARK    7  A    between atoms: C_24  and  C_29 
ROOT
HETATM    1  N   UNL     1      42.916   8.941  71.270  1.00  0.00    -0.224 NA
HETATM    2  N   UNL     1      44.439   7.963  69.679  1.00  0.00    -0.224 NA
HETATM    3  C   UNL     1      41.936   8.822  70.349  1.00  0.00     0.133 A 
HETATM    4  C   UNL     1      42.128   8.290  69.090  1.00  0.00     0.100 A 
HETATM    5  C   UNL     1      43.414   7.871  68.800  1.00  0.00     0.133 A 
HETATM    6  C   UNL     1      44.125   8.500  70.873  1.00  0.00     0.237 A 
ENDROOT
BRANCH   3   7
HETATM    7  N   UNL     1      40.632   9.262  70.680  1.00  0.00    -0.341 N 
HETATM    8  H   UNL     1      40.016   8.513  70.983  1.00  0.00     0.167 HD
BRANCH   7   9
HETATM    9  C   UNL     1      40.031  10.532  70.677  1.00  0.00     0.035 A 
HETATM   10  C   UNL     1      38.679  10.672  71.003  1.00  0.00     0.059 A 
HETATM   11  C   UNL     1      38.084  11.933  71.001  1.00  0.00     0.036 A 
HETATM   12  C   UNL     1      38.838  13.060  70.673  1.00  0.00     0.029 A 
HETATM   13  C   UNL     1      40.187  12.926  70.346  1.00  0.00     0.004 A 
HETATM   14  C   UNL     1      40.782  11.664  70.348  1.00  0.00     0.029 A 
BRANCH  11  15
HETATM   15  N   UNL     1      36.734  12.068  71.329  1.00  0.00    -0.327 N 
HETATM   16  C   UNL     1      36.156  12.107  72.600  1.00  0.00     0.226 C 
HETATM   17  O   UNL     1      36.720  12.030  73.683  1.00  0.00    -0.273 OA
HETATM   18  H   UNL     1      36.101  12.142  70.536  1.00  0.00     0.169 HD
BRANCH  16  19
HETATM   19  C   UNL     1      34.667  12.263  72.583  1.00  0.00     0.078 A 
HETATM   20  C   UNL     1      33.951  12.335  73.885  1.00  0.00     0.015 A 
HETATM   21  C   UNL     1      33.833  11.112  73.024  1.00  0.00     0.015 A 
ENDBRANCH  16  19
ENDBRANCH  11  15
ENDBRANCH   7   9
ENDBRANCH   3   7
BRANCH   5  22
HETATM   22  N   UNL     1      43.652   7.322  67.525  1.00  0.00    -0.341 N 
HETATM   23  H   UNL     1      43.427   6.331  67.473  1.00  0.00     0.167 HD
BRANCH  22  24
HETATM   24  C   UNL     1      44.417   7.760  66.425  1.00  0.00     0.034 A 
HETATM   25  C   UNL     1      44.883   6.839  65.486  1.00  0.00     0.045 A 
HETATM   26  C   UNL     1      45.638   7.273  64.398  1.00  0.00     0.050 A 
HETATM   27  C   UNL     1      45.929   8.629  64.247  1.00  0.00     0.016 A 
HETATM   28  C   UNL     1      45.465   9.551  65.185  1.00  0.00     0.003 A 
HETATM   29  C   UNL     1      44.708   9.116  66.274  1.00  0.00     0.029 A 
BRANCH  26  30
HETATM   30  C   UNL     1      46.136   6.288  63.394  1.00  0.00     0.417 C 
HETATM   31  F   UNL     1      47.346   5.743  63.714  1.00  0.00    -0.166 F 
HETATM   32  F   UNL     1      45.302   5.222  63.215  1.00  0.00    -0.166 F 
HETATM   33  F   UNL     1      46.298   6.838  62.154  1.00  0.00    -0.166 F 
ENDBRANCH  26  30
ENDBRANCH  22  24
ENDBRANCH   5  22
TORSDOF 7
ENDMDL
MODEL 3
REMARK VINA RESULT:      -6.2      5.116      7.129
REMARK  7 active torsions:
REMARK  status: ('A' for Active; 'I' for Inactive)
REMARK       I    between atoms: N_5  and  C_13 
REMARK    1  A    between atoms: N_5  and  C_14 
REMARK    2  A    between atoms: N_6  and  C_17 
REMARK    3  A    between atoms: N_6  and  C_20 
REMARK    4  A    between atoms: N_7  and  C_21 
REMARK    5  A    between atoms: N_7  and  C_23 
REMARK    6  A    between atoms: C_10  and  C_13 
REMARK    7  A    between atoms: C_24  and  C_29 
ROOT
HETATM    1  N   UNL     1      45.129   9.805  69.392  1.00  0.00    -0.224 NA
HETATM    2  N   UNL     1      45.697   8.476  67.464  1.00  0.00    -0.224 NA
HETATM    3  C   UNL     1      44.197  10.429  68.641  1.00  0.00     0.133 A 
HETATM    4  C   UNL     1      43.960  10.135  67.313  1.00  0.00     0.100 A 
HETATM    5  C   UNL     1      44.747   9.139  66.764  1.00  0.00     0.133 A 
HETATM    6  C   UNL     1      45.833   8.854  68.749  1.00  0.00     0.237 A 
ENDROOT
BRANCH   3   7
HETATM    7  N   UNL     1      43.410  11.445  69.235  1.00  0.00    -0.341 N 
HETATM    8  H   UNL     1      43.879  12.346  69.282  1.00  0.00     0.167 HD
BRANCH   7   9
HETATM    9  C   UNL     1      42.109  11.449  69.764  1.00  0.00     0.035 A 
HETATM   10  C   UNL     1      41.562  10.279  70.298  1.00  0.00     0.059 A 
HETATM   11  C   UNL     1      40.271  10.284  70.824  1.00  0.00     0.036 A 
HETATM   12  C   UNL     1      39.520  11.459  70.819  1.00  0.00     0.029 A 
HETATM   13  C   UNL     1      40.061  12.630  70.288  1.00  0.00     0.004 A 
HETATM   14  C   UNL     1      41.352  12.624  69.761  1.00  0.00     0.029 A 
BRANCH  11  15
HETATM   15  N   UNL     1      39.729   9.113  71.356  1.00  0.00    -0.327 N 
HETATM   16  C   UNL     1      39.969   8.545  72.610  1.00  0.00     0.226 C 
HETATM   17  O   UNL     1      40.704   8.964  73.495  1.00  0.00    -0.273 OA
HETATM   18  H   UNL     1      39.085   8.615  70.745  1.00  0.00     0.169 HD
BRANCH  16  19
HETATM   19  C   UNL     1      39.214   7.276  72.855  1.00  0.00     0.078 A 
HETATM   20  C   UNL     1      39.844   6.234  73.709  1.00  0.00     0.015 A 
HETATM   21  C   UNL     1      39.719   6.024  72.228  1.00  0.00     0.015 A 
ENDBRANCH  16  19
ENDBRANCH  11  15
ENDBRANCH   7   9
ENDBRANCH   3   7
BRANCH   5  22
HETATM   22  N   UNL     1      44.536   8.808  65.412  1.00  0.00    -0.341 N 
HETATM   23  H   UNL     1      43.573   8.952  65.116  1.00  0.00     0.167 HD
BRANCH  22  24
HETATM   24  C   UNL     1      45.274   8.036  64.491  1.00  0.00     0.034 A 
HETATM   25  C   UNL     1      46.109   8.662  63.565  1.00  0.00     0.045 A 
HETATM   26  C   UNL     1      46.839   7.897  62.657  1.00  0.00     0.050 A 
HETATM   27  C   UNL     1      46.736   6.506  62.673  1.00  0.00     0.016 A 
HETATM   28  C   UNL     1      45.901   5.880  63.599  1.00  0.00     0.003 A 
HETATM   29  C   UNL     1      45.170   6.645  64.508  1.00  0.00     0.029 A 
BRANCH  26  30
HETATM   30  C   UNL     1      47.732   8.566  61.666  1.00  0.00     0.417 C 
HETATM   31  F   UNL     1      47.710   7.987  60.430  1.00  0.00    -0.166 F 
HETATM   32  F   UNL     1      47.422   9.878  61.450  1.00  0.00    -0.166 F 
HETATM   33  F   UNL     1      49.042   8.558  62.050  1.00  0.00    -0.166 F 
ENDBRANCH  26  30
ENDBRANCH  22  24
ENDBRANCH   5  22
TORSDOF 7
ENDMDL
MODEL 4
REMARK VINA RESULT:      -6.2      4.655      8.174
REMARK  7 active torsions:
REMARK  status: ('A' for Active; 'I' for Inactive)
REMARK       I    between atoms: N_5  and  C_13 
REMARK    1  A    between atoms: N_5  and  C_14 
REMARK    2  A    between atoms: N_6  and  C_17 
REMARK    3  A    between atoms: N_6  and  C_20 
REMARK    4  A    between atoms: N_7  and  C_21 
REMARK    5  A    between atoms: N_7  and  C_23 
REMARK    6  A    between atoms: C_10  and  C_13 
REMARK    7  A    between atoms: C_24  and  C_29 
ROOT
HETATM    1  N   UNL     1      43.823   7.114  69.227  1.00  0.00    -0.224 NA
HETATM    2  N   UNL     1      44.427   6.792  66.916  1.00  0.00    -0.224 NA
HETATM    3  C   UNL     1      43.687   8.431  68.969  1.00  0.00     0.133 A 
HETATM    4  C   UNL     1      43.899   8.996  67.727  1.00  0.00     0.100 A 
HETATM    5  C   UNL     1      44.273   8.123  66.722  1.00  0.00     0.133 A 
HETATM    6  C   UNL     1      44.191   6.363  68.171  1.00  0.00     0.237 A 
ENDROOT
BRANCH   3   7
HETATM    7  N   UNL     1      43.303   9.296  70.022  1.00  0.00    -0.341 N 
HETATM    8  H   UNL     1      43.792   9.114  70.894  1.00  0.00     0.167 HD
BRANCH   7   9
HETATM    9  C   UNL     1      42.385  10.358  70.091  1.00  0.00     0.035 A 
HETATM   10  C   UNL     1      41.084  10.135  70.549  1.00  0.00     0.059 A 
HETATM   11  C   UNL     1      40.174  11.189  70.618  1.00  0.00     0.036 A 
HETATM   12  C   UNL     1      40.562  12.472  70.230  1.00  0.00     0.029 A 
HETATM   13  C   UNL     1      41.859  12.700  69.772  1.00  0.00     0.004 A 
HETATM   14  C   UNL     1      42.769  11.644  69.703  1.00  0.00     0.029 A 
BRANCH  11  15
HETATM   15  N   UNL     1      38.876  10.962  71.076  1.00  0.00    -0.327 N 
HETATM   16  C   UNL     1      37.690  10.954  70.337  1.00  0.00     0.226 C 
HETATM   17  O   UNL     1      37.554  11.145  69.136  1.00  0.00    -0.273 OA
HETATM   18  H   UNL     1      38.793  10.787  72.075  1.00  0.00     0.169 HD
BRANCH  16  19
HETATM   19  C   UNL     1      36.469  10.673  71.155  1.00  0.00     0.078 A 
HETATM   20  C   UNL     1      36.081  11.655  72.204  1.00  0.00     0.015 A 
HETATM   21  C   UNL     1      36.648  10.320  72.590  1.00  0.00     0.015 A 
ENDBRANCH  16  19
ENDBRANCH  11  15
ENDBRANCH   7   9
ENDBRANCH   3   7
BRANCH   5  22
HETATM   22  N   UNL     1      44.500   8.659  65.440  1.00  0.00    -0.341 N 
HETATM   23  H   UNL     1      43.731   8.483  64.797  1.00  0.00     0.167 HD
BRANCH  22  24
HETATM   24  C   UNL     1      45.667   9.094  64.779  1.00  0.00     0.034 A 
HETATM   25  C   UNL     1      46.045   8.510  63.570  1.00  0.00     0.045 A 
HETATM   26  C   UNL     1      47.198   8.941  62.917  1.00  0.00     0.050 A 
HETATM   27  C   UNL     1      47.976   9.957  63.473  1.00  0.00     0.016 A 
HETATM   28  C   UNL     1      47.600  10.541  64.682  1.00  0.00     0.003 A 
HETATM   29  C   UNL     1      46.445  10.109  65.335  1.00  0.00     0.029 A 
BRANCH  26  30
HETATM   30  C   UNL     1      47.602   8.317  61.623  1.00  0.00     0.417 C 
HETATM   31  F   UNL     1      47.077   8.939  60.527  1.00  0.00    -0.166 F 
HETATM   32  F   UNL     1      48.952   8.311  61.417  1.00  0.00    -0.166 F 
HETATM   33  F   UNL     1      47.211   7.012  61.526  1.00  0.00    -0.166 F 
ENDBRANCH  26  30
ENDBRANCH  22  24
ENDBRANCH   5  22
TORSDOF 7
ENDMDL
MODEL 5
REMARK VINA RESULT:      -6.1      7.371     11.033
REMARK  7 active torsions:
REMARK  status: ('A' for Active; 'I' for Inactive)
REMARK       I    between atoms: N_5  and  C_13 
REMARK    1  A    between atoms: N_5  and  C_14 
REMARK    2  A    between atoms: N_6  and  C_17 
REMARK    3  A    between atoms: N_6  and  C_20 
REMARK    4  A    between atoms: N_7  and  C_21 
REMARK    5  A    between atoms: N_7  and  C_23 
REMARK    6  A    between atoms: C_10  and  C_13 
REMARK    7  A    between atoms: C_24  and  C_29 
ROOT
HETATM    1  N   UNL     1      47.641  -4.697  70.972  1.00  0.00    -0.224 NA
HETATM    2  N   UNL     1      47.173  -2.744  69.641  1.00  0.00    -0.224 NA
HETATM    3  C   UNL     1      46.432  -4.546  71.552  1.00  0.00     0.133 A 
HETATM    4  C   UNL     1      45.551  -3.533  71.233  1.00  0.00     0.100 A 
HETATM    5  C   UNL     1      45.974  -2.646  70.259  1.00  0.00     0.133 A 
HETATM    6  C   UNL     1      47.944  -3.774  70.039  1.00  0.00     0.237 A 
ENDROOT
BRANCH   3   7
HETATM    7  N   UNL     1      46.032  -5.471  72.546  1.00  0.00    -0.341 N 
HETATM    8  H   UNL     1      46.785  -5.746  73.171  1.00  0.00     0.167 HD
BRANCH   7   9
HETATM    9  C   UNL     1      44.797  -6.074  72.837  1.00  0.00     0.035 A 
HETATM   10  C   UNL     1      44.159  -5.822  74.055  1.00  0.00     0.059 A 
HETATM   11  C   UNL     1      42.933  -6.420  74.342  1.00  0.00     0.036 A 
HETATM   12  C   UNL     1      42.338  -7.274  73.412  1.00  0.00     0.029 A 
HETATM   13  C   UNL     1      42.970  -7.529  72.196  1.00  0.00     0.004 A 
HETATM   14  C   UNL     1      44.198  -6.931  71.909  1.00  0.00     0.029 A 
BRANCH  11  15
HETATM   15  N   UNL     1      42.299  -6.164  75.559  1.00  0.00    -0.327 N 
HETATM   16  C   UNL     1      42.232  -6.988  76.685  1.00  0.00     0.226 C 
HETATM   17  O   UNL     1      42.719  -8.101  76.830  1.00  0.00    -0.273 OA
HETATM   18  H   UNL     1      41.825  -5.266  75.620  1.00  0.00     0.169 HD
BRANCH  16  19
HETATM   19  C   UNL     1      41.465  -6.394  77.825  1.00  0.00     0.078 A 
HETATM   20  C   UNL     1      41.735  -6.901  79.197  1.00  0.00     0.015 A 
HETATM   21  C   UNL     1      40.447  -7.239  78.506  1.00  0.00     0.015 A 
ENDBRANCH  16  19
ENDBRANCH  11  15
ENDBRANCH   7   9
ENDBRANCH   3   7
BRANCH   5  22
HETATM   22  N   UNL     1      45.103  -1.598  69.905  1.00  0.00    -0.341 N 
HETATM   23  H   UNL     1      44.470  -1.849  69.148  1.00  0.00     0.167 HD
BRANCH  22  24
HETATM   24  C   UNL     1      45.134  -0.209  70.144  1.00  0.00     0.034 A 
HETATM   25  C   UNL     1      44.822   0.290  71.409  1.00  0.00     0.045 A 
HETATM   26  C   UNL     1      44.855   1.663  71.644  1.00  0.00     0.050 A 
HETATM   27  C   UNL     1      45.199   2.540  70.615  1.00  0.00     0.016 A 
HETATM   28  C   UNL     1      45.510   2.042  69.350  1.00  0.00     0.003 A 
HETATM   29  C   UNL     1      45.478   0.668  69.114  1.00  0.00     0.029 A 
BRANCH  26  30
HETATM   30  C   UNL     1      44.521   2.197  72.997  1.00  0.00     0.417 C 
HETATM   31  F   UNL     1      45.423   3.110  73.463  1.00  0.00    -0.166 F 
HETATM   32  F   UNL     1      43.313   2.830  73.052  1.00  0.00    -0.166 F 
HETATM   33  F   UNL     1      44.466   1.219  73.949  1.00  0.00    -0.166 F 
ENDBRANCH  26  30
ENDBRANCH  22  24
ENDBRANCH   5  22
TORSDOF 7
ENDMDL
MODEL 6
REMARK VINA RESULT:      -6.0     16.810     20.585
REMARK  7 active torsions:
REMARK  status: ('A' for Active; 'I' for Inactive)
REMARK       I    between atoms: N_5  and  C_13 
REMARK    1  A    between atoms: N_5  and  C_14 
REMARK    2  A    between atoms: N_6  and  C_17 
REMARK    3  A    between atoms: N_6  and  C_20 
REMARK    4  A    between atoms: N_7  and  C_21 
REMARK    5  A    between atoms: N_7  and  C_23 
REMARK    6  A    between atoms: C_10  and  C_13 
REMARK    7  A    between atoms: C_24  and  C_29 
ROOT
HETATM    1  N   UNL     1      29.192  10.755  77.050  1.00  0.00    -0.224 NA
HETATM    2  N   UNL     1      27.074   9.979  77.898  1.00  0.00    -0.224 NA
HETATM    3  C   UNL     1      29.146   9.766  76.134  1.00  0.00     0.133 A 
HETATM    4  C   UNL     1      28.111   8.858  76.038  1.00  0.00     0.100 A 
HETATM    5  C   UNL     1      27.087   9.008  76.956  1.00  0.00     0.133 A 
HETATM    6  C   UNL     1      28.140  10.802  77.890  1.00  0.00     0.237 A 
ENDROOT
BRANCH   3   7
HETATM    7  N   UNL     1      30.212   9.640  75.211  1.00  0.00    -0.341 N 
HETATM    8  H   UNL     1      31.074   9.304  75.631  1.00  0.00     0.167 HD
BRANCH   7   9
HETATM    9  C   UNL     1      30.305   9.884  73.831  1.00  0.00     0.035 A 
HETATM   10  C   UNL     1      29.205  10.385  73.129  1.00  0.00     0.059 A 
HETATM   11  C   UNL     1      29.299  10.628  71.759  1.00  0.00     0.036 A 
HETATM   12  C   UNL     1      30.493  10.372  71.084  1.00  0.00     0.029 A 
HETATM   13  C   UNL     1      31.593   9.872  71.780  1.00  0.00     0.004 A 
HETATM   14  C   UNL     1      31.499   9.628  73.151  1.00  0.00     0.029 A 
BRANCH  11  15
HETATM   15  N   UNL     1      28.198  11.129  71.062  1.00  0.00    -0.327 N 
HETATM   16  C   UNL     1      27.737  12.447  71.013  1.00  0.00     0.226 C 
HETATM   17  O   UNL     1      28.208  13.428  71.573  1.00  0.00    -0.273 OA
HETATM   18  H   UNL     1      27.670  10.440  70.531  1.00  0.00     0.169 HD
BRANCH  16  19
HETATM   19  C   UNL     1      26.520  12.631  70.161  1.00  0.00     0.078 A 
HETATM   20  C   UNL     1      25.184  12.431  70.785  1.00  0.00     0.015 A 
HETATM   21  C   UNL     1      25.719  11.427  69.807  1.00  0.00     0.015 A 
ENDBRANCH  16  19
ENDBRANCH  11  15
ENDBRANCH   7   9
ENDBRANCH   3   7
BRANCH   5  22
HETATM   22  N   UNL     1      26.012   8.101  76.892  1.00  0.00    -0.341 N 
HETATM   23  H   UNL     1      25.428   8.122  77.725  1.00  0.00     0.167 HD
BRANCH  22  24
HETATM   24  C   UNL     1      25.762   6.972  76.084  1.00  0.00     0.034 A 
HETATM   25  C   UNL     1      26.272   5.726  76.450  1.00  0.00     0.045 A 
HETATM   26  C   UNL     1      26.023   4.610  75.652  1.00  0.00     0.050 A 
HETATM   27  C   UNL     1      25.264   4.739  74.488  1.00  0.00     0.016 A 
HETATM   28  C   UNL     1      24.755   5.984  74.123  1.00  0.00     0.003 A 
HETATM   29  C   UNL     1      25.003   7.101  74.921  1.00  0.00     0.029 A 
BRANCH  26  30
HETATM   30  C   UNL     1      26.568   3.277  76.042  1.00  0.00     0.417 C 
HETATM   31  F   UNL     1      27.603   2.858  75.257  1.00  0.00    -0.166 F 
HETATM   32  F   UNL     1      27.050   3.237  77.319  1.00  0.00    -0.166 F 
HETATM   33  F   UNL     1      25.631   2.286  75.973  1.00  0.00    -0.166 F 
ENDBRANCH  26  30
ENDBRANCH  22  24
ENDBRANCH   5  22
TORSDOF 7
ENDMDL
MODEL 7
REMARK VINA RESULT:      -6.0      3.331      7.445
REMARK  7 active torsions:
REMARK  status: ('A' for Active; 'I' for Inactive)
REMARK       I    between atoms: N_5  and  C_13 
REMARK    1  A    between atoms: N_5  and  C_14 
REMARK    2  A    between atoms: N_6  and  C_17 
REMARK    3  A    between atoms: N_6  and  C_20 
REMARK    4  A    between atoms: N_7  and  C_21 
REMARK    5  A    between atoms: N_7  and  C_23 
REMARK    6  A    between atoms: C_10  and  C_13 
REMARK    7  A    between atoms: C_24  and  C_29 
ROOT
HETATM    1  N   UNL     1      42.116   8.420  69.443  1.00  0.00    -0.224 NA
HETATM    2  N   UNL     1      42.889   7.264  71.411  1.00  0.00    -0.224 NA
HETATM    3  C   UNL     1      43.139   7.865  68.761  1.00  0.00     0.133 A 
HETATM    4  C   UNL     1      44.065   7.012  69.326  1.00  0.00     0.100 A 
HETATM    5  C   UNL     1      43.894   6.740  70.672  1.00  0.00     0.133 A 
HETATM    6  C   UNL     1      42.052   8.082  70.745  1.00  0.00     0.237 A 
ENDROOT
BRANCH   3   7
HETATM    7  N   UNL     1      43.285   8.167  67.385  1.00  0.00    -0.341 N 
HETATM    8  H   UNL     1      42.433   8.028  66.848  1.00  0.00     0.167 HD
BRANCH   7   9
HETATM    9  C   UNL     1      44.373   8.625  66.624  1.00  0.00     0.035 A 
HETATM   10  C   UNL     1      45.189   7.717  65.943  1.00  0.00     0.059 A 
HETATM   11  C   UNL     1      46.268   8.173  65.188  1.00  0.00     0.036 A 
HETATM   12  C   UNL     1      46.538   9.540  65.110  1.00  0.00     0.029 A 
HETATM   13  C   UNL     1      45.727  10.450  65.788  1.00  0.00     0.004 A 
HETATM   14  C   UNL     1      44.648   9.993  66.545  1.00  0.00     0.029 A 
BRANCH  11  15
HETATM   15  N   UNL     1      47.079   7.263  64.508  1.00  0.00    -0.327 N 
HETATM   16  C   UNL     1      47.065   6.945  63.148  1.00  0.00     0.226 C 
HETATM   17  O   UNL     1      46.336   7.404  62.278  1.00  0.00    -0.273 OA
HETATM   18  H   UNL     1      47.758   6.771  65.086  1.00  0.00     0.169 HD
BRANCH  16  19
HETATM   19  C   UNL     1      48.080   5.918  62.756  1.00  0.00     0.078 A 
HETATM   20  C   UNL     1      47.808   4.494  63.089  1.00  0.00     0.015 A 
HETATM   21  C   UNL     1      48.864   5.255  63.833  1.00  0.00     0.015 A 
ENDBRANCH  16  19
ENDBRANCH  11  15
ENDBRANCH   7   9
ENDBRANCH   3   7
BRANCH   5  22
HETATM   22  N   UNL     1      44.817   5.873  71.287  1.00  0.00    -0.341 N 
HETATM   23  H   UNL     1      45.744   6.283  71.379  1.00  0.00     0.167 HD
BRANCH  22  24
HETATM   24  C   UNL     1      44.821   4.479  71.504  1.00  0.00     0.034 A 
HETATM   25  C   UNL     1      45.190   3.613  70.475  1.00  0.00     0.045 A 
HETATM   26  C   UNL     1      45.194   2.235  70.690  1.00  0.00     0.050 A 
HETATM   27  C   UNL     1      44.829   1.723  71.936  1.00  0.00     0.016 A 
HETATM   28  C   UNL     1      44.460   2.589  72.965  1.00  0.00     0.003 A 
HETATM   29  C   UNL     1      44.456   3.967  72.749  1.00  0.00     0.029 A 
BRANCH  26  30
HETATM   30  C   UNL     1      45.589   1.309  69.590  1.00  0.00     0.417 C 
HETATM   31  F   UNL     1      46.881   1.466  69.179  1.00  0.00    -0.166 F 
HETATM   32  F   UNL     1      45.479  -0.011  69.922  1.00  0.00    -0.166 F 
HETATM   33  F   UNL     1      44.826   1.469  68.469  1.00  0.00    -0.166 F 
ENDBRANCH  26  30
ENDBRANCH  22  24
ENDBRANCH   5  22
TORSDOF 7
ENDMDL
MODEL 8
REMARK VINA RESULT:      -6.0      6.227      8.618
REMARK  7 active torsions:
REMARK  status: ('A' for Active; 'I' for Inactive)
REMARK       I    between atoms: N_5  and  C_13 
REMARK    1  A    between atoms: N_5  and  C_14 
REMARK    2  A    between atoms: N_6  and  C_17 
REMARK    3  A    between atoms: N_6  and  C_20 
REMARK    4  A    between atoms: N_7  and  C_21 
REMARK    5  A    between atoms: N_7  and  C_23 
REMARK    6  A    between atoms: C_10  and  C_13 
REMARK    7  A    between atoms: C_24  and  C_29 
ROOT
HETATM    1  N   UNL     1      43.945   7.245  70.233  1.00  0.00    -0.224 NA
HETATM    2  N   UNL     1      42.430   8.173  71.861  1.00  0.00    -0.224 NA
HETATM    3  C   UNL     1      43.038   7.536  69.277  1.00  0.00     0.133 A 
HETATM    4  C   UNL     1      41.822   8.138  69.532  1.00  0.00     0.100 A 
HETATM    5  C   UNL     1      41.562   8.440  70.857  1.00  0.00     0.133 A 
HETATM    6  C   UNL     1      43.581   7.584  71.484  1.00  0.00     0.237 A 
ENDROOT
BRANCH   3   7
HETATM    7  N   UNL     1      43.336   7.213  67.931  1.00  0.00    -0.341 N 
HETATM    8  H   UNL     1      42.831   6.400  67.589  1.00  0.00     0.167 HD
BRANCH   7   9
HETATM    9  C   UNL     1      44.188   7.801  66.981  1.00  0.00     0.035 A 
HETATM   10  C   UNL     1      45.243   7.068  66.432  1.00  0.00     0.059 A 
HETATM   11  C   UNL     1      46.087   7.652  65.488  1.00  0.00     0.036 A 
HETATM   12  C   UNL     1      45.879   8.973  65.089  1.00  0.00     0.029 A 
HETATM   13  C   UNL     1      44.828   9.709  65.635  1.00  0.00     0.004 A 
HETATM   14  C   UNL     1      43.984   9.124  66.580  1.00  0.00     0.029 A 
BRANCH  11  15
HETATM   15  N   UNL     1      47.139   6.916  64.941  1.00  0.00    -0.327 N 
HETATM   16  C   UNL     1      47.110   6.066  63.833  1.00  0.00     0.226 C 
HETATM   17  O   UNL     1      46.154   5.797  63.118  1.00  0.00    -0.273 OA
HETATM   18  H   UNL     1      48.031   7.013  65.420  1.00  0.00     0.169 HD
BRANCH  16  19
HETATM   19  C   UNL     1      48.431   5.433  63.521  1.00  0.00     0.078 A 
HETATM   20  C   UNL     1      48.799   5.235  62.093  1.00  0.00     0.015 A 
HETATM   21  C   UNL     1      48.435   4.059  62.950  1.00  0.00     0.015 A 
ENDBRANCH  16  19
ENDBRANCH  11  15
ENDBRANCH   7   9
ENDBRANCH   3   7
BRANCH   5  22
HETATM   22  N   UNL     1      40.332   9.055  71.159  1.00  0.00    -0.341 N 
HETATM   23  H   UNL     1      39.569   8.388  71.251  1.00  0.00     0.167 HD
BRANCH  22  24
HETATM   24  C   UNL     1      39.876  10.385  71.046  1.00  0.00     0.034 A 
HETATM   25  C   UNL     1      38.640  10.747  71.579  1.00  0.00     0.045 A 
HETATM   26  C   UNL     1      38.191  12.063  71.468  1.00  0.00     0.050 A 
HETATM   27  C   UNL     1      38.978  13.016  70.823  1.00  0.00     0.016 A 
HETATM   28  C   UNL     1      40.215  12.655  70.289  1.00  0.00     0.003 A 
HETATM   29  C   UNL     1      40.664  11.338  70.401  1.00  0.00     0.029 A 
BRANCH  26  30
HETATM   30  C   UNL     1      36.868  12.451  72.039  1.00  0.00     0.417 C 
HETATM   31  F   UNL     1      36.475  13.714  71.700  1.00  0.00    -0.166 F 
HETATM   32  F   UNL     1      35.843  11.640  71.642  1.00  0.00    -0.166 F 
HETATM   33  F   UNL     1      36.854  12.417  73.404  1.00  0.00    -0.166 F 
ENDBRANCH  26  30
ENDBRANCH  22  24
ENDBRANCH   5  22
TORSDOF 7
ENDMDL
MODEL 9
REMARK VINA RESULT:      -5.9      5.637      8.434
REMARK  7 active torsions:
REMARK  status: ('A' for Active; 'I' for Inactive)
REMARK       I    between atoms: N_5  and  C_13 
REMARK    1  A    between atoms: N_5  and  C_14 
REMARK    2  A    between atoms: N_6  and  C_17 
REMARK    3  A    between atoms: N_6  and  C_20 
REMARK    4  A    between atoms: N_7  and  C_21 
REMARK    5  A    between atoms: N_7  and  C_23 
REMARK    6  A    between atoms: C_10  and  C_13 
REMARK    7  A    between atoms: C_24  and  C_29 
ROOT
HETATM    1  N   UNL     1      45.144   9.936  69.399  1.00  0.00    -0.224 NA
HETATM    2  N   UNL     1      46.086   9.602  67.207  1.00  0.00    -0.224 NA
HETATM    3  C   UNL     1      43.927   9.688  68.873  1.00  0.00     0.133 A 
HETATM    4  C   UNL     1      43.712   9.392  67.542  1.00  0.00     0.100 A 
HETATM    5  C   UNL     1      44.839   9.362  66.740  1.00  0.00     0.133 A 
HETATM    6  C   UNL     1      46.165   9.879  68.522  1.00  0.00     0.237 A 
ENDROOT
BRANCH   3   7
HETATM    7  N   UNL     1      42.795   9.728  69.724  1.00  0.00    -0.341 N 
HETATM    8  H   UNL     1      42.614   8.848  70.199  1.00  0.00     0.167 HD
BRANCH   7   9
HETATM    9  C   UNL     1      41.883  10.748  70.040  1.00  0.00     0.035 A 
HETATM   10  C   UNL     1      40.698  10.449  70.718  1.00  0.00     0.059 A 
HETATM   11  C   UNL     1      39.794  11.462  71.033  1.00  0.00     0.036 A 
HETATM   12  C   UNL     1      40.070  12.781  70.670  1.00  0.00     0.029 A 
HETATM   13  C   UNL     1      41.251  13.086  69.994  1.00  0.00     0.004 A 
HETATM   14  C   UNL     1      42.155  12.071  69.678  1.00  0.00     0.029 A 
BRANCH  11  15
HETATM   15  N   UNL     1      38.613  11.159  71.711  1.00  0.00    -0.327 N 
HETATM   16  C   UNL     1      37.354  10.889  71.170  1.00  0.00     0.226 C 
HETATM   17  O   UNL     1      37.035  10.863  69.988  1.00  0.00    -0.273 OA
HETATM   18  H   UNL     1      38.688  11.140  72.726  1.00  0.00     0.169 HD
BRANCH  16  19
HETATM   19  C   UNL     1      36.303  10.600  72.196  1.00  0.00     0.078 A 
HETATM   20  C   UNL     1      36.593  10.934  73.616  1.00  0.00     0.015 A 
HETATM   21  C   UNL     1      36.552   9.502  73.169  1.00  0.00     0.015 A 
ENDBRANCH  16  19
ENDBRANCH  11  15
ENDBRANCH   7   9
ENDBRANCH   3   7
BRANCH   5  22
HETATM   22  N   UNL     1      44.663   9.064  65.375  1.00  0.00    -0.341 N 
HETATM   23  H   UNL     1      43.742   9.324  65.030  1.00  0.00     0.167 HD
BRANCH  22  24
HETATM   24  C   UNL     1      45.351   8.211  64.488  1.00  0.00     0.034 A 
HETATM   25  C   UNL     1      46.161   8.751  63.488  1.00  0.00     0.045 A 
HETATM   26  C   UNL     1      46.843   7.907  62.612  1.00  0.00     0.050 A 
HETATM   27  C   UNL     1      46.715   6.523  62.735  1.00  0.00     0.016 A 
HETATM   28  C   UNL     1      45.905   5.983  63.734  1.00  0.00     0.003 A 
HETATM   29  C   UNL     1      45.223   6.828  64.610  1.00  0.00     0.029 A 
BRANCH  26  30
HETATM   30  C   UNL     1      47.709   8.483  61.543  1.00  0.00     0.417 C 
HETATM   31  F   UNL     1      47.569   7.867  60.333  1.00  0.00    -0.166 F 
HETATM   32  F   UNL     1      47.469   9.805  61.299  1.00  0.00    -0.166 F 
HETATM   33  F   UNL     1      49.039   8.402  61.843  1.00  0.00    -0.166 F 
ENDBRANCH  26  30
ENDBRANCH  22  24
ENDBRANCH   5  22
TORSDOF 7
ENDMDL
