MODEL 1
REMARK VINA RESULT:      -6.4      0.000      0.000
REMARK  7 active torsions:
REMARK  status: ('A' for Active; 'I' for Inactive)
REMARK       I    between atoms: N_5  and  C_13 
REMARK    1  A    between atoms: N_5  and  C_14 
REMARK    2  A    between atoms: N_6  and  C_17 
REMARK    3  A    between atoms: N_6  and  C_20 
REMARK    4  A    between atoms: N_7  and  C_21 
REMARK    5  A    between atoms: N_7  and  C_23 
REMARK    6  A    between atoms: C_10  and  C_13 
REMARK    7  A    between atoms: C_24  and  C_29 
ROOT
HETATM    1  N   UNL     1      43.083   7.278  70.947  1.00  0.00    -0.224 NA
HETATM    2  N   UNL     1      42.201   8.469  69.047  1.00  0.00    -0.224 NA
HETATM    3  C   UNL     1      44.099   6.857  70.165  1.00  0.00     0.133 A 
HETATM    4  C   UNL     1      44.233   7.196  68.833  1.00  0.00     0.100 A 
HETATM    5  C   UNL     1      43.245   8.014  68.315  1.00  0.00     0.133 A 
HETATM    6  C   UNL     1      42.183   8.068  70.332  1.00  0.00     0.237 A 
ENDROOT
BRANCH   3   7
HETATM    7  N   UNL     1      45.093   6.020  70.728  1.00  0.00    -0.341 N 
HETATM    8  H   UNL     1      45.957   6.507  70.946  1.00  0.00     0.167 HD
BRANCH   7   9
HETATM    9  C   UNL     1      45.110   4.652  71.048  1.00  0.00     0.035 A 
HETATM   10  C   UNL     1      45.759   3.741  70.210  1.00  0.00     0.059 A 
HETATM   11  C   UNL     1      45.776   2.384  70.530  1.00  0.00     0.036 A 
HETATM   12  C   UNL     1      45.145   1.931  71.689  1.00  0.00     0.029 A 
HETATM   13  C   UNL     1      44.496   2.837  72.528  1.00  0.00     0.004 A 
HETATM   14  C   UNL     1      44.477   4.194  72.207  1.00  0.00     0.029 A 
BRANCH  11  15
HETATM   15  N   UNL     1      46.426   1.477  69.691  1.00  0.00    -0.327 N 
HETATM   16  C   UNL     1      45.887   0.364  69.042  1.00  0.00     0.226 C 
HETATM   17  O   UNL     1      44.731  -0.039  69.079  1.00  0.00    -0.273 OA
HETATM   18  H   UNL     1      47.418   1.655  69.546  1.00  0.00     0.169 HD
BRANCH  16  19
HETATM   19  C   UNL     1      46.877  -0.393  68.214  1.00  0.00     0.078 A 
HETATM   20  C   UNL     1      47.068  -1.842  68.491  1.00  0.00     0.015 A 
HETATM   21  C   UNL     1      48.134  -0.854  68.865  1.00  0.00     0.015 A 
ENDBRANCH  16  19
ENDBRANCH  11  15
ENDBRANCH   7   9
ENDBRANCH   3   7
BRANCH   5  22
HETATM   22  N   UNL     1      43.345   8.384  66.960  1.00  0.00    -0.341 N 
HETATM   23  H   UNL     1      42.446   8.385  66.484  1.00  0.00     0.167 HD
BRANCH  22  24
HETATM   24  C   UNL     1      44.431   8.437  66.063  1.00  0.00     0.034 A 
HETATM   25  C   UNL     1      44.722   7.340  65.252  1.00  0.00     0.045 A 
HETATM   26  C   UNL     1      45.796   7.394  64.364  1.00  0.00     0.050 A 
HETATM   27  C   UNL     1      46.579   8.546  64.286  1.00  0.00     0.016 A 
HETATM   28  C   UNL     1      46.289   9.643  65.096  1.00  0.00     0.003 A 
HETATM   29  C   UNL     1      45.214   9.589  65.985  1.00  0.00     0.029 A 
BRANCH  26  30
HETATM   30  C   UNL     1      46.107   6.221  63.497  1.00  0.00     0.417 C 
HETATM   31  F   UNL     1      45.158   5.241  63.539  1.00  0.00    -0.166 F 
HETATM   32  F   UNL     1      46.234   6.537  62.174  1.00  0.00    -0.166 F 
HETATM   33  F   UNL     1      47.279   5.610  63.841  1.00  0.00    -0.166 F 
ENDBRANCH  26  30
ENDBRANCH  22  24
ENDBRANCH   5  22
TORSDOF 7
ENDMDL
MODEL 2
REMARK VINA RESULT:      -6.3      5.971      8.757
REMARK  7 active torsions:
REMARK  status: ('A' for Active; 'I' for Inactive)
REMARK       I    between atoms: N_5  and  C_13 
REMARK    1  A    between atoms: N_5  and  C_14 
REMARK    2  A    between atoms: N_6  and  C_17 
REMARK    3  A    between atoms: N_6  and  C_20 
REMARK    4  A    between atoms: N_7  and  C_21 
REMARK    5  A    between atoms: N_7  and  C_23 
REMARK    6  A    between atoms: C_10  and  C_13 
REMARK    7  A    between atoms: C_24  and  C_29 
ROOT
HETATM    1  N   UNL     1      43.431   7.298  70.404  1.00  0.00    -0.224 NA
HETATM    2  N   UNL     1      41.901   8.044  72.110  1.00  0.00    -0.224 NA
HETATM    3  C   UNL     1      42.628   7.873  69.485  1.00  0.00     0.133 A 
HETATM    4  C   UNL     1      41.462   8.542  69.797  1.00  0.00     0.100 A 
HETATM    5  C   UNL     1      41.139   8.600  71.140  1.00  0.00     0.133 A 
HETATM    6  C   UNL     1      43.013   7.419  71.678  1.00  0.00     0.237 A 
ENDROOT
BRANCH   3   7
HETATM    7  N   UNL     1      42.990   7.794  68.118  1.00  0.00    -0.341 N 
HETATM    8  H   UNL     1      42.565   7.009  67.631  1.00  0.00     0.167 HD
BRANCH   7   9
HETATM    9  C   UNL     1      43.814   8.592  67.307  1.00  0.00     0.035 A 
HETATM   10  C   UNL     1      44.193   8.150  66.037  1.00  0.00     0.059 A 
HETATM   11  C   UNL     1      45.010   8.944  65.233  1.00  0.00     0.036 A 
HETATM   12  C   UNL     1      45.452  10.184  65.695  1.00  0.00     0.029 A 
HETATM   13  C   UNL     1      45.076  10.630  66.962  1.00  0.00     0.004 A 
HETATM   14  C   UNL     1      44.259   9.835  67.767  1.00  0.00     0.029 A 
BRANCH  11  15
HETATM   15  N   UNL     1      45.386   8.499  63.964  1.00  0.00    -0.327 N 
HETATM   16  C   UNL     1      46.616   7.971  63.566  1.00  0.00     0.226 C 
HETATM   17  O   UNL     1      47.613   7.792  64.253  1.00  0.00    -0.273 OA
HETATM   18  H   UNL     1      44.668   8.579  63.247  1.00  0.00     0.169 HD
BRANCH  16  19
HETATM   19  C   UNL     1      46.672   7.593  62.119  1.00  0.00     0.078 A 
HETATM   20  C   UNL     1      47.970   7.122  61.563  1.00  0.00     0.015 A 
HETATM   21  C   UNL     1      47.433   8.472  61.190  1.00  0.00     0.015 A 
ENDBRANCH  16  19
ENDBRANCH  11  15
ENDBRANCH   7   9
ENDBRANCH   3   7
BRANCH   5  22
HETATM   22  N   UNL     1      39.956   9.275  71.501  1.00  0.00    -0.341 N 
HETATM   23  H   UNL     1      39.225   8.645  71.823  1.00  0.00     0.167 HD
BRANCH  22  24
HETATM   24  C   UNL     1      39.469  10.566  71.213  1.00  0.00     0.034 A 
HETATM   25  C   UNL     1      40.345  11.650  71.168  1.00  0.00     0.045 A 
HETATM   26  C   UNL     1      39.862  12.927  70.881  1.00  0.00     0.050 A 
HETATM   27  C   UNL     1      38.502  13.120  70.640  1.00  0.00     0.016 A 
HETATM   28  C   UNL     1      37.625  12.037  70.685  1.00  0.00     0.003 A 
HETATM   29  C   UNL     1      38.108  10.760  70.972  1.00  0.00     0.029 A 
BRANCH  26  30
HETATM   30  C   UNL     1      40.800  14.086  70.833  1.00  0.00     0.417 C 
HETATM   31  F   UNL     1      41.745  13.986  69.853  1.00  0.00    -0.166 F 
HETATM   32  F   UNL     1      40.179  15.282  70.608  1.00  0.00    -0.166 F 
HETATM   33  F   UNL     1      41.495  14.248  71.998  1.00  0.00    -0.166 F 
ENDBRANCH  26  30
ENDBRANCH  22  24
ENDBRANCH   5  22
TORSDOF 7
ENDMDL
MODEL 3
REMARK VINA RESULT:      -6.2      6.904     10.943
REMARK  7 active torsions:
REMARK  status: ('A' for Active; 'I' for Inactive)
REMARK       I    between atoms: N_5  and  C_13 
REMARK    1  A    between atoms: N_5  and  C_14 
REMARK    2  A    between atoms: N_6  and  C_17 
REMARK    3  A    between atoms: N_6  and  C_20 
REMARK    4  A    between atoms: N_7  and  C_21 
REMARK    5  A    between atoms: N_7  and  C_23 
REMARK    6  A    between atoms: C_10  and  C_13 
REMARK    7  A    between atoms: C_24  and  C_29 
ROOT
HETATM    1  N   UNL     1      48.546   7.983  61.557  1.00  0.00    -0.224 NA
HETATM    2  N   UNL     1      46.766   6.896  62.763  1.00  0.00    -0.224 NA
HETATM    3  C   UNL     1      48.086   9.165  62.016  1.00  0.00     0.133 A 
HETATM    4  C   UNL     1      46.987   9.291  62.842  1.00  0.00     0.100 A 
HETATM    5  C   UNL     1      46.354   8.112  63.191  1.00  0.00     0.133 A 
HETATM    6  C   UNL     1      47.849   6.905  61.962  1.00  0.00     0.237 A 
ENDROOT
BRANCH   3   7
HETATM    7  N   UNL     1      48.758  10.353  61.638  1.00  0.00    -0.341 N 
HETATM    8  H   UNL     1      49.640  10.185  61.163  1.00  0.00     0.167 HD
BRANCH   7   9
HETATM    9  C   UNL     1      48.437  11.713  61.788  1.00  0.00     0.035 A 
HETATM   10  C   UNL     1      48.751  12.384  62.973  1.00  0.00     0.059 A 
HETATM   11  C   UNL     1      48.434  13.734  63.120  1.00  0.00     0.036 A 
HETATM   12  C   UNL     1      47.800  14.419  62.082  1.00  0.00     0.029 A 
HETATM   13  C   UNL     1      47.485  13.753  60.898  1.00  0.00     0.004 A 
HETATM   14  C   UNL     1      47.802  12.402  60.751  1.00  0.00     0.029 A 
BRANCH  11  15
HETATM   15  N   UNL     1      48.750  14.401  64.304  1.00  0.00    -0.327 N 
HETATM   16  C   UNL     1      47.895  15.121  65.141  1.00  0.00     0.226 C 
HETATM   17  O   UNL     1      46.694  15.311  65.003  1.00  0.00    -0.273 OA
HETATM   18  H   UNL     1      49.729  14.354  64.580  1.00  0.00     0.169 HD
BRANCH  16  19
HETATM   19  C   UNL     1      48.575  15.711  66.338  1.00  0.00     0.078 A 
HETATM   20  C   UNL     1      49.114  14.785  67.370  1.00  0.00     0.015 A 
HETATM   21  C   UNL     1      47.893  15.609  67.657  1.00  0.00     0.015 A 
ENDBRANCH  16  19
ENDBRANCH  11  15
ENDBRANCH   7   9
ENDBRANCH   3   7
BRANCH   5  22
HETATM   22  N   UNL     1      45.228   8.197  64.032  1.00  0.00    -0.341 N 
HETATM   23  H   UNL     1      44.377   7.856  63.590  1.00  0.00     0.167 HD
BRANCH  22  24
HETATM   24  C   UNL     1      44.968   8.933  65.207  1.00  0.00     0.034 A 
HETATM   25  C   UNL     1      45.743  10.050  65.518  1.00  0.00     0.045 A 
HETATM   26  C   UNL     1      45.484  10.778  66.679  1.00  0.00     0.050 A 
HETATM   27  C   UNL     1      44.450  10.387  67.531  1.00  0.00     0.016 A 
HETATM   28  C   UNL     1      43.675   9.270  67.221  1.00  0.00     0.003 A 
HETATM   29  C   UNL     1      43.934   8.542  66.059  1.00  0.00     0.029 A 
BRANCH  26  30
HETATM   30  C   UNL     1      46.312  11.973  67.012  1.00  0.00     0.417 C 
HETATM   31  F   UNL     1      46.829  11.947  68.275  1.00  0.00    -0.166 F 
HETATM   32  F   UNL     1      47.390  12.136  66.189  1.00  0.00    -0.166 F 
HETATM   33  F   UNL     1      45.608  13.140  66.928  1.00  0.00    -0.166 F 
ENDBRANCH  26  30
ENDBRANCH  22  24
ENDBRANCH   5  22
TORSDOF 7
ENDMDL
MODEL 4
REMARK VINA RESULT:      -6.2      5.081      7.154
REMARK  7 active torsions:
REMARK  status: ('A' for Active; 'I' for Inactive)
REMARK       I    between atoms: N_5  and  C_13 
REMARK    1  A    between atoms: N_5  and  C_14 
REMARK    2  A    between atoms: N_6  and  C_17 
REMARK    3  A    between atoms: N_6  and  C_20 
REMARK    4  A    between atoms: N_7  and  C_21 
REMARK    5  A    between atoms: N_7  and  C_23 
REMARK    6  A    between atoms: C_10  and  C_13 
REMARK    7  A    between atoms: C_24  and  C_29 
ROOT
HETATM    1  N   UNL     1      45.092   9.770  69.474  1.00  0.00    -0.224 NA
HETATM    2  N   UNL     1      45.613   8.222  67.702  1.00  0.00    -0.224 NA
HETATM    3  C   UNL     1      44.135  10.297  68.682  1.00  0.00     0.133 A 
HETATM    4  C   UNL     1      43.861   9.846  67.406  1.00  0.00     0.100 A 
HETATM    5  C   UNL     1      44.638   8.794  66.957  1.00  0.00     0.133 A 
HETATM    6  C   UNL     1      45.784   8.751  68.928  1.00  0.00     0.237 A 
ENDROOT
BRANCH   3   7
HETATM    7  N   UNL     1      43.359  11.374  69.174  1.00  0.00    -0.341 N 
HETATM    8  H   UNL     1      43.814  12.277  69.081  1.00  0.00     0.167 HD
BRANCH   7   9
HETATM    9  C   UNL     1      42.082  11.434  69.757  1.00  0.00     0.035 A 
HETATM   10  C   UNL     1      41.497  10.282  70.291  1.00  0.00     0.059 A 
HETATM   11  C   UNL     1      40.231  10.343  70.871  1.00  0.00     0.036 A 
HETATM   12  C   UNL     1      39.543  11.556  70.921  1.00  0.00     0.029 A 
HETATM   13  C   UNL     1      40.123  12.708  70.390  1.00  0.00     0.004 A 
HETATM   14  C   UNL     1      41.389  12.647  69.809  1.00  0.00     0.029 A 
BRANCH  11  15
HETATM   15  N   UNL     1      39.650   9.190  71.403  1.00  0.00    -0.327 N 
HETATM   16  C   UNL     1      39.967   8.539  72.597  1.00  0.00     0.226 C 
HETATM   17  O   UNL     1      40.820   8.851  73.418  1.00  0.00    -0.273 OA
HETATM   18  H   UNL     1      38.909   8.778  70.840  1.00  0.00     0.169 HD
BRANCH  16  19
HETATM   19  C   UNL     1      39.138   7.321  72.861  1.00  0.00     0.078 A 
HETATM   20  C   UNL     1      39.702   6.260  73.738  1.00  0.00     0.015 A 
HETATM   21  C   UNL     1      39.573   6.029  72.262  1.00  0.00     0.015 A 
ENDBRANCH  16  19
ENDBRANCH  11  15
ENDBRANCH   7   9
ENDBRANCH   3   7
BRANCH   5  22
HETATM   22  N   UNL     1      44.390   8.304  65.660  1.00  0.00    -0.341 N 
HETATM   23  H   UNL     1      43.417   8.045  65.515  1.00  0.00     0.167 HD
BRANCH  22  24
HETATM   24  C   UNL     1      45.238   7.803  64.650  1.00  0.00     0.034 A 
HETATM   25  C   UNL     1      45.956   8.684  63.841  1.00  0.00     0.045 A 
HETATM   26  C   UNL     1      46.795   8.188  62.844  1.00  0.00     0.050 A 
HETATM   27  C   UNL     1      46.916   6.811  62.655  1.00  0.00     0.016 A 
HETATM   28  C   UNL     1      46.198   5.930  63.463  1.00  0.00     0.003 A 
HETATM   29  C   UNL     1      45.359   6.427  64.461  1.00  0.00     0.029 A 
BRANCH  26  30
HETATM   30  C   UNL     1      47.564   9.130  61.978  1.00  0.00     0.417 C 
HETATM   31  F   UNL     1      47.541  10.421  62.420  1.00  0.00    -0.166 F 
HETATM   32  F   UNL     1      48.888   8.813  61.869  1.00  0.00    -0.166 F 
HETATM   33  F   UNL     1      47.090   9.172  60.698  1.00  0.00    -0.166 F 
ENDBRANCH  26  30
ENDBRANCH  22  24
ENDBRANCH   5  22
TORSDOF 7
ENDMDL
MODEL 5
REMARK VINA RESULT:      -6.1     16.736     20.397
REMARK  7 active torsions:
REMARK  status: ('A' for Active; 'I' for Inactive)
REMARK       I    between atoms: N_5  and  C_13 
REMARK    1  A    between atoms: N_5  and  C_14 
REMARK    2  A    between atoms: N_6  and  C_17 
REMARK    3  A    between atoms: N_6  and  C_20 
REMARK    4  A    between atoms: N_7  and  C_21 
REMARK    5  A    between atoms: N_7  and  C_23 
REMARK    6  A    between atoms: C_10  and  C_13 
REMARK    7  A    between atoms: C_24  and  C_29 
ROOT
HETATM    1  N   UNL     1      29.323  10.859  77.136  1.00  0.00    -0.224 NA
HETATM    2  N   UNL     1      27.298   9.923  78.048  1.00  0.00    -0.224 NA
HETATM    3  C   UNL     1      29.308   9.886  76.201  1.00  0.00     0.133 A 
HETATM    4  C   UNL     1      28.335   8.911  76.126  1.00  0.00     0.100 A 
HETATM    5  C   UNL     1      27.340   8.973  77.085  1.00  0.00     0.133 A 
HETATM    6  C   UNL     1      28.304  10.818  78.016  1.00  0.00     0.237 A 
ENDROOT
BRANCH   3   7
HETATM    7  N   UNL     1      30.344   9.852  75.236  1.00  0.00    -0.341 N 
HETATM    8  H   UNL     1      31.260   9.664  75.631  1.00  0.00     0.167 HD
BRANCH   7   9
HETATM    9  C   UNL     1      30.345  10.020  73.841  1.00  0.00     0.035 A 
HETATM   10  C   UNL     1      29.207  10.503  73.189  1.00  0.00     0.059 A 
HETATM   11  C   UNL     1      29.210  10.671  71.805  1.00  0.00     0.036 A 
HETATM   12  C   UNL     1      30.351  10.357  71.066  1.00  0.00     0.029 A 
HETATM   13  C   UNL     1      31.489   9.875  71.712  1.00  0.00     0.004 A 
HETATM   14  C   UNL     1      31.486   9.706  73.097  1.00  0.00     0.029 A 
BRANCH  11  15
HETATM   15  N   UNL     1      28.072  11.155  71.158  1.00  0.00    -0.327 N 
HETATM   16  C   UNL     1      27.720  12.484  70.912  1.00  0.00     0.226 C 
HETATM   17  O   UNL     1      28.343  13.493  71.214  1.00  0.00    -0.273 OA
HETATM   18  H   UNL     1      27.421  10.442  70.834  1.00  0.00     0.169 HD
BRANCH  16  19
HETATM   19  C   UNL     1      26.420  12.642  70.187  1.00  0.00     0.078 A 
HETATM   20  C   UNL     1      25.693  11.414  69.766  1.00  0.00     0.015 A 
HETATM   21  C   UNL     1      26.369  12.280  68.744  1.00  0.00     0.015 A 
ENDBRANCH  16  19
ENDBRANCH  11  15
ENDBRANCH   7   9
ENDBRANCH   3   7
BRANCH   5  22
HETATM   22  N   UNL     1      26.327   7.995  77.042  1.00  0.00    -0.341 N 
HETATM   23  H   UNL     1      25.836   7.897  77.928  1.00  0.00     0.167 HD
BRANCH  22  24
HETATM   24  C   UNL     1      26.069   6.926  76.160  1.00  0.00     0.034 A 
HETATM   25  C   UNL     1      26.416   5.624  76.520  1.00  0.00     0.045 A 
HETATM   26  C   UNL     1      26.159   4.567  75.648  1.00  0.00     0.050 A 
HETATM   27  C   UNL     1      25.554   4.812  74.414  1.00  0.00     0.016 A 
HETATM   28  C   UNL     1      25.208   6.114  74.054  1.00  0.00     0.003 A 
HETATM   29  C   UNL     1      25.465   7.171  74.927  1.00  0.00     0.029 A 
BRANCH  26  30
HETATM   30  C   UNL     1      26.530   3.174  76.032  1.00  0.00     0.417 C 
HETATM   31  F   UNL     1      27.587   2.675  75.327  1.00  0.00    -0.166 F 
HETATM   32  F   UNL     1      26.884   3.046  77.345  1.00  0.00    -0.166 F 
HETATM   33  F   UNL     1      25.510   2.287  75.840  1.00  0.00    -0.166 F 
ENDBRANCH  26  30
ENDBRANCH  22  24
ENDBRANCH   5  22
TORSDOF 7
ENDMDL
MODEL 6
REMARK VINA RESULT:      -6.1      7.439     11.047
REMARK  7 active torsions:
REMARK  status: ('A' for Active; 'I' for Inactive)
REMARK       I    between atoms: N_5  and  C_13 
REMARK    1  A    between atoms: N_5  and  C_14 
REMARK    2  A    between atoms: N_6  and  C_17 
REMARK    3  A    between atoms: N_6  and  C_20 
REMARK    4  A    between atoms: N_7  and  C_21 
REMARK    5  A    between atoms: N_7  and  C_23 
REMARK    6  A    between atoms: C_10  and  C_13 
REMARK    7  A    between atoms: C_24  and  C_29 
ROOT
HETATM    1  N   UNL     1      47.506  -4.688  71.049  1.00  0.00    -0.224 NA
HETATM    2  N   UNL     1      47.038  -2.774  69.662  1.00  0.00    -0.224 NA
HETATM    3  C   UNL     1      46.325  -4.481  71.668  1.00  0.00     0.133 A 
HETATM    4  C   UNL     1      45.459  -3.457  71.344  1.00  0.00     0.100 A 
HETATM    5  C   UNL     1      45.867  -2.619  70.322  1.00  0.00     0.133 A 
HETATM    6  C   UNL     1      47.796  -3.809  70.071  1.00  0.00     0.237 A 
ENDROOT
BRANCH   3   7
HETATM    7  N   UNL     1      45.939  -5.357  72.712  1.00  0.00    -0.341 N 
HETATM    8  H   UNL     1      46.692  -5.572  73.360  1.00  0.00     0.167 HD
BRANCH   7   9
HETATM    9  C   UNL     1      44.719  -5.978  73.025  1.00  0.00     0.035 A 
HETATM   10  C   UNL     1      44.108  -5.747  74.261  1.00  0.00     0.059 A 
HETATM   11  C   UNL     1      42.896  -6.363  74.570  1.00  0.00     0.036 A 
HETATM   12  C   UNL     1      42.288  -7.213  73.645  1.00  0.00     0.029 A 
HETATM   13  C   UNL     1      42.894  -7.447  72.411  1.00  0.00     0.004 A 
HETATM   14  C   UNL     1      44.107  -6.831  72.102  1.00  0.00     0.029 A 
BRANCH  11  15
HETATM   15  N   UNL     1      42.289  -6.129  75.805  1.00  0.00    -0.327 N 
HETATM   16  C   UNL     1      42.205  -6.990  76.901  1.00  0.00     0.226 C 
HETATM   17  O   UNL     1      42.651  -8.126  76.998  1.00  0.00    -0.273 OA
HETATM   18  H   UNL     1      41.850  -5.216  75.906  1.00  0.00     0.169 HD
BRANCH  16  19
HETATM   19  C   UNL     1      41.477  -6.410  78.073  1.00  0.00     0.078 A 
HETATM   20  C   UNL     1      41.474  -7.174  79.350  1.00  0.00     0.015 A 
HETATM   21  C   UNL     1      40.225  -7.076  78.524  1.00  0.00     0.015 A 
ENDBRANCH  16  19
ENDBRANCH  11  15
ENDBRANCH   7   9
ENDBRANCH   3   7
BRANCH   5  22
HETATM   22  N   UNL     1      45.011  -1.562  69.960  1.00  0.00    -0.341 N 
HETATM   23  H   UNL     1      44.366  -1.813  69.214  1.00  0.00     0.167 HD
BRANCH  22  24
HETATM   24  C   UNL     1      45.069  -0.169  70.178  1.00  0.00     0.034 A 
HETATM   25  C   UNL     1      44.909   0.344  71.465  1.00  0.00     0.045 A 
HETATM   26  C   UNL     1      44.968   1.721  71.679  1.00  0.00     0.050 A 
HETATM   27  C   UNL     1      45.188   2.585  70.606  1.00  0.00     0.016 A 
HETATM   28  C   UNL     1      45.347   2.072  69.319  1.00  0.00     0.003 A 
HETATM   29  C   UNL     1      45.288   0.695  69.105  1.00  0.00     0.029 A 
BRANCH  26  30
HETATM   30  C   UNL     1      44.797   2.270  73.055  1.00  0.00     0.417 C 
HETATM   31  F   UNL     1      43.811   3.210  73.151  1.00  0.00    -0.166 F 
HETATM   32  F   UNL     1      44.479   1.323  73.986  1.00  0.00    -0.166 F 
HETATM   33  F   UNL     1      45.928   2.877  73.523  1.00  0.00    -0.166 F 
ENDBRANCH  26  30
ENDBRANCH  22  24
ENDBRANCH   5  22
TORSDOF 7
ENDMDL
MODEL 7
REMARK VINA RESULT:      -6.1      5.484     10.648
REMARK  7 active torsions:
REMARK  status: ('A' for Active; 'I' for Inactive)
REMARK       I    between atoms: N_5  and  C_13 
REMARK    1  A    between atoms: N_5  and  C_14 
REMARK    2  A    between atoms: N_6  and  C_17 
REMARK    3  A    between atoms: N_6  and  C_20 
REMARK    4  A    between atoms: N_7  and  C_21 
REMARK    5  A    between atoms: N_7  and  C_23 
REMARK    6  A    between atoms: C_10  and  C_13 
REMARK    7  A    between atoms: C_24  and  C_29 
ROOT
HETATM    1  N   UNL     1      48.675   8.006  61.640  1.00  0.00    -0.224 NA
HETATM    2  N   UNL     1      46.835   6.896  62.731  1.00  0.00    -0.224 NA
HETATM    3  C   UNL     1      48.163   9.183  62.055  1.00  0.00     0.133 A 
HETATM    4  C   UNL     1      47.008   9.296  62.802  1.00  0.00     0.100 A 
HETATM    5  C   UNL     1      46.373   8.108  63.117  1.00  0.00     0.133 A 
HETATM    6  C   UNL     1      47.970   6.918  62.007  1.00  0.00     0.237 A 
ENDROOT
BRANCH   3   7
HETATM    7  N   UNL     1      48.839  10.380  61.714  1.00  0.00    -0.341 N 
HETATM    8  H   UNL     1      49.748  10.224  61.287  1.00  0.00     0.167 HD
BRANCH   7   9
HETATM    9  C   UNL     1      48.492  11.735  61.845  1.00  0.00     0.035 A 
HETATM   10  C   UNL     1      48.794  12.428  63.021  1.00  0.00     0.059 A 
HETATM   11  C   UNL     1      48.451  13.773  63.149  1.00  0.00     0.036 A 
HETATM   12  C   UNL     1      47.804  14.432  62.103  1.00  0.00     0.029 A 
HETATM   13  C   UNL     1      47.502  13.745  60.928  1.00  0.00     0.004 A 
HETATM   14  C   UNL     1      47.844  12.398  60.800  1.00  0.00     0.029 A 
BRANCH  11  15
HETATM   15  N   UNL     1      48.754  14.462  64.325  1.00  0.00    -0.327 N 
HETATM   16  C   UNL     1      48.125  14.363  65.568  1.00  0.00     0.226 C 
HETATM   17  O   UNL     1      47.179  13.650  65.875  1.00  0.00    -0.273 OA
HETATM   18  H   UNL     1      49.528  15.119  64.255  1.00  0.00     0.169 HD
BRANCH  16  19
HETATM   19  C   UNL     1      48.714  15.254  66.617  1.00  0.00     0.078 A 
HETATM   20  C   UNL     1      48.536  14.875  68.045  1.00  0.00     0.015 A 
HETATM   21  C   UNL     1      47.787  16.042  67.473  1.00  0.00     0.015 A 
ENDBRANCH  16  19
ENDBRANCH  11  15
ENDBRANCH   7   9
ENDBRANCH   3   7
BRANCH   5  22
HETATM   22  N   UNL     1      45.190   8.179  63.878  1.00  0.00    -0.341 N 
HETATM   23  H   UNL     1      44.364   8.353  63.309  1.00  0.00     0.167 HD
BRANCH  22  24
HETATM   24  C   UNL     1      44.950   8.380  65.253  1.00  0.00     0.034 A 
HETATM   25  C   UNL     1      44.855   7.285  66.112  1.00  0.00     0.045 A 
HETATM   26  C   UNL     1      44.620   7.484  67.472  1.00  0.00     0.050 A 
HETATM   27  C   UNL     1      44.479   8.778  67.974  1.00  0.00     0.016 A 
HETATM   28  C   UNL     1      44.574   9.873  67.115  1.00  0.00     0.003 A 
HETATM   29  C   UNL     1      44.810   9.674  65.755  1.00  0.00     0.029 A 
BRANCH  26  30
HETATM   30  C   UNL     1      44.518   6.313  68.392  1.00  0.00     0.417 C 
HETATM   31  F   UNL     1      43.877   5.240  67.843  1.00  0.00    -0.166 F 
HETATM   32  F   UNL     1      45.729   5.833  68.801  1.00  0.00    -0.166 F 
HETATM   33  F   UNL     1      43.833   6.603  69.537  1.00  0.00    -0.166 F 
ENDBRANCH  26  30
ENDBRANCH  22  24
ENDBRANCH   5  22
TORSDOF 7
ENDMDL
MODEL 8
REMARK VINA RESULT:      -6.1      2.042      2.653
REMARK  7 active torsions:
REMARK  status: ('A' for Active; 'I' for Inactive)
REMARK       I    between atoms: N_5  and  C_13 
REMARK    1  A    between atoms: N_5  and  C_14 
REMARK    2  A    between atoms: N_6  and  C_17 
REMARK    3  A    between atoms: N_6  and  C_20 
REMARK    4  A    between atoms: N_7  and  C_21 
REMARK    5  A    between atoms: N_7  and  C_23 
REMARK    6  A    between atoms: C_10  and  C_13 
REMARK    7  A    between atoms: C_24  and  C_29 
ROOT
HETATM    1  N   UNL     1      44.334   8.874  69.210  1.00  0.00    -0.224 NA
HETATM    2  N   UNL     1      43.611   9.401  66.972  1.00  0.00    -0.224 NA
HETATM    3  C   UNL     1      45.028   7.835  68.701  1.00  0.00     0.133 A 
HETATM    4  C   UNL     1      45.063   7.521  67.357  1.00  0.00     0.100 A 
HETATM    5  C   UNL     1      44.328   8.345  66.524  1.00  0.00     0.133 A 
HETATM    6  C   UNL     1      43.656   9.604  68.303  1.00  0.00     0.237 A 
ENDROOT
BRANCH   3   7
HETATM    7  N   UNL     1      45.769   7.012  69.583  1.00  0.00    -0.341 N 
HETATM    8  H   UNL     1      46.716   7.344  69.747  1.00  0.00     0.167 HD
BRANCH   7   9
HETATM    9  C   UNL     1      45.446   5.834  70.277  1.00  0.00     0.035 A 
HETATM   10  C   UNL     1      45.448   4.604  69.615  1.00  0.00     0.059 A 
HETATM   11  C   UNL     1      45.128   3.435  70.305  1.00  0.00     0.036 A 
HETATM   12  C   UNL     1      44.806   3.492  71.662  1.00  0.00     0.029 A 
HETATM   13  C   UNL     1      44.803   4.717  72.327  1.00  0.00     0.004 A 
HETATM   14  C   UNL     1      45.121   5.886  71.636  1.00  0.00     0.029 A 
BRANCH  11  15
HETATM   15  N   UNL     1      45.132   2.208  69.640  1.00  0.00    -0.327 N 
HETATM   16  C   UNL     1      46.221   1.373  69.381  1.00  0.00     0.226 C 
HETATM   17  O   UNL     1      47.393   1.550  69.687  1.00  0.00    -0.273 OA
HETATM   18  H   UNL     1      44.225   1.896  69.301  1.00  0.00     0.169 HD
BRANCH  16  19
HETATM   19  C   UNL     1      45.862   0.123  68.639  1.00  0.00     0.078 A 
HETATM   20  C   UNL     1      46.141  -1.187  69.287  1.00  0.00     0.015 A 
HETATM   21  C   UNL     1      46.965  -0.730  68.119  1.00  0.00     0.015 A 
ENDBRANCH  16  19
ENDBRANCH  11  15
ENDBRANCH   7   9
ENDBRANCH   3   7
BRANCH   5  22
HETATM   22  N   UNL     1      44.337   8.058  65.146  1.00  0.00    -0.341 N 
HETATM   23  H   UNL     1      43.404   7.914  64.766  1.00  0.00     0.167 HD
BRANCH  22  24
HETATM   24  C   UNL     1      45.351   7.620  64.268  1.00  0.00     0.034 A 
HETATM   25  C   UNL     1      46.203   8.546  63.668  1.00  0.00     0.045 A 
HETATM   26  C   UNL     1      47.206   8.112  62.802  1.00  0.00     0.050 A 
HETATM   27  C   UNL     1      47.357   6.751  62.536  1.00  0.00     0.016 A 
HETATM   28  C   UNL     1      46.505   5.824  63.136  1.00  0.00     0.003 A 
HETATM   29  C   UNL     1      45.502   6.259  64.002  1.00  0.00     0.029 A 
BRANCH  26  30
HETATM   30  C   UNL     1      48.118   9.102  62.159  1.00  0.00     0.417 C 
HETATM   31  F   UNL     1      48.961   8.553  61.236  1.00  0.00    -0.166 F 
HETATM   32  F   UNL     1      47.461  10.097  61.493  1.00  0.00    -0.166 F 
HETATM   33  F   UNL     1      48.925   9.736  63.061  1.00  0.00    -0.166 F 
ENDBRANCH  26  30
ENDBRANCH  22  24
ENDBRANCH   5  22
TORSDOF 7
ENDMDL
MODEL 9
REMARK VINA RESULT:      -6.0      4.577      6.873
REMARK  7 active torsions:
REMARK  status: ('A' for Active; 'I' for Inactive)
REMARK       I    between atoms: N_5  and  C_13 
REMARK    1  A    between atoms: N_5  and  C_14 
REMARK    2  A    between atoms: N_6  and  C_17 
REMARK    3  A    between atoms: N_6  and  C_20 
REMARK    4  A    between atoms: N_7  and  C_21 
REMARK    5  A    between atoms: N_7  and  C_23 
REMARK    6  A    between atoms: C_10  and  C_13 
REMARK    7  A    between atoms: C_24  and  C_29 
ROOT
HETATM    1  N   UNL     1      45.035  10.088  67.564  1.00  0.00    -0.224 NA
HETATM    2  N   UNL     1      46.189   9.698  65.485  1.00  0.00    -0.224 NA
HETATM    3  C   UNL     1      44.078   9.231  67.150  1.00  0.00     0.133 A 
HETATM    4  C   UNL     1      44.107   8.578  65.935  1.00  0.00     0.100 A 
HETATM    5  C   UNL     1      45.198   8.849  65.128  1.00  0.00     0.133 A 
HETATM    6  C   UNL     1      46.046  10.273  66.694  1.00  0.00     0.237 A 
ENDROOT
BRANCH   3   7
HETATM    7  N   UNL     1      42.975   8.977  68.001  1.00  0.00    -0.341 N 
HETATM    8  H   UNL     1      42.096   9.340  67.644  1.00  0.00     0.167 HD
BRANCH   7   9
HETATM    9  C   UNL     1      42.863   8.316  69.236  1.00  0.00     0.035 A 
HETATM   10  C   UNL     1      41.624   8.229  69.878  1.00  0.00     0.059 A 
HETATM   11  C   UNL     1      41.514   7.572  71.102  1.00  0.00     0.036 A 
HETATM   12  C   UNL     1      42.641   6.997  71.691  1.00  0.00     0.029 A 
HETATM   13  C   UNL     1      43.879   7.081  71.054  1.00  0.00     0.004 A 
HETATM   14  C   UNL     1      43.989   7.740  69.829  1.00  0.00     0.029 A 
BRANCH  11  15
HETATM   15  N   UNL     1      40.275   7.487  71.740  1.00  0.00    -0.327 N 
HETATM   16  C   UNL     1      39.549   8.511  72.351  1.00  0.00     0.226 C 
HETATM   17  O   UNL     1      39.854   9.693  72.448  1.00  0.00    -0.273 OA
HETATM   18  H   UNL     1      39.862   6.557  71.762  1.00  0.00     0.169 HD
BRANCH  16  19
HETATM   19  C   UNL     1      38.248   8.063  72.940  1.00  0.00     0.078 A 
HETATM   20  C   UNL     1      37.254   9.100  73.327  1.00  0.00     0.015 A 
HETATM   21  C   UNL     1      37.997   8.335  74.382  1.00  0.00     0.015 A 
ENDBRANCH  16  19
ENDBRANCH  11  15
ENDBRANCH   7   9
ENDBRANCH   3   7
BRANCH   5  22
HETATM   22  N   UNL     1      45.266   8.202  63.879  1.00  0.00    -0.341 N 
HETATM   23  H   UNL     1      44.372   7.812  63.587  1.00  0.00     0.167 HD
BRANCH  22  24
HETATM   24  C   UNL     1      46.345   7.710  63.116  1.00  0.00     0.034 A 
HETATM   25  C   UNL     1      46.845   6.430  63.358  1.00  0.00     0.045 A 
HETATM   26  C   UNL     1      47.910   5.943  62.602  1.00  0.00     0.050 A 
HETATM   27  C   UNL     1      48.477   6.736  61.605  1.00  0.00     0.016 A 
HETATM   28  C   UNL     1      47.979   8.016  61.363  1.00  0.00     0.003 A 
HETATM   29  C   UNL     1      46.912   8.502  62.119  1.00  0.00     0.029 A 
BRANCH  26  30
HETATM   30  C   UNL     1      48.445   4.574  62.861  1.00  0.00     0.417 C 
HETATM   31  F   UNL     1      49.258   4.502  63.956  1.00  0.00    -0.166 F 
HETATM   32  F   UNL     1      47.473   3.640  63.076  1.00  0.00    -0.166 F 
HETATM   33  F   UNL     1      49.189   4.096  61.820  1.00  0.00    -0.166 F 
ENDBRANCH  26  30
ENDBRANCH  22  24
ENDBRANCH   5  22
TORSDOF 7
ENDMDL
