MODEL 1
REMARK VINA RESULT:      -7.6      0.000      0.000
REMARK  7 active torsions:
REMARK  status: ('A' for Active; 'I' for Inactive)
REMARK       I    between atoms: N_5  and  C_13 
REMARK    1  A    between atoms: N_5  and  C_14 
REMARK    2  A    between atoms: N_6  and  C_17 
REMARK    3  A    between atoms: N_6  and  C_20 
REMARK    4  A    between atoms: N_7  and  C_21 
REMARK    5  A    between atoms: N_7  and  C_23 
REMARK    6  A    between atoms: C_10  and  C_13 
REMARK    7  A    between atoms: C_24  and  C_29 
ROOT
HETATM    1  N   UNL     1      11.230  -0.209  36.955  1.00  0.00    -0.224 NA
HETATM    2  N   UNL     1      11.957   1.730  38.187  1.00  0.00    -0.224 NA
HETATM    3  C   UNL     1      12.510  -0.637  36.947  1.00  0.00     0.133 A 
HETATM    4  C   UNL     1      13.553   0.053  37.529  1.00  0.00     0.100 A 
HETATM    5  C   UNL     1      13.220   1.247  38.144  1.00  0.00     0.133 A 
HETATM    6  C   UNL     1      11.028   0.965  37.583  1.00  0.00     0.237 A 
ENDROOT
BRANCH   3   7
HETATM    7  N   UNL     1      12.815  -1.863  36.307  1.00  0.00    -0.341 N 
HETATM    8  H   UNL     1      11.995  -2.356  35.965  1.00  0.00     0.167 HD
BRANCH   7   9
HETATM    9  C   UNL     1      14.028  -2.523  36.051  1.00  0.00     0.035 A 
HETATM   10  C   UNL     1      14.794  -2.180  34.933  1.00  0.00     0.059 A 
HETATM   11  C   UNL     1      15.999  -2.834  34.681  1.00  0.00     0.036 A 
HETATM   12  C   UNL     1      16.445  -3.834  35.545  1.00  0.00     0.029 A 
HETATM   13  C   UNL     1      15.685  -4.180  36.662  1.00  0.00     0.004 A 
HETATM   14  C   UNL     1      14.478  -3.526  36.914  1.00  0.00     0.029 A 
BRANCH  11  15
HETATM   15  N   UNL     1      16.761  -2.487  33.564  1.00  0.00    -0.327 N 
HETATM   16  C   UNL     1      18.110  -2.128  33.519  1.00  0.00     0.226 C 
HETATM   17  O   UNL     1      18.896  -2.047  34.454  1.00  0.00    -0.273 OA
HETATM   18  H   UNL     1      16.260  -2.495  32.678  1.00  0.00     0.169 HD
BRANCH  16  19
HETATM   19  C   UNL     1      18.608  -1.817  32.142  1.00  0.00     0.078 A 
HETATM   20  C   UNL     1      18.025  -0.649  31.428  1.00  0.00     0.015 A 
HETATM   21  C   UNL     1      17.690  -2.045  30.993  1.00  0.00     0.015 A 
ENDBRANCH  16  19
ENDBRANCH  11  15
ENDBRANCH   7   9
ENDBRANCH   3   7
BRANCH   5  22
HETATM   22  N   UNL     1      14.257   1.982  38.751  1.00  0.00    -0.341 N 
HETATM   23  H   UNL     1      14.205   1.972  39.767  1.00  0.00     0.167 HD
BRANCH  22  24
HETATM   24  C   UNL     1      15.138   2.970  38.264  1.00  0.00     0.034 A 
HETATM   25  C   UNL     1      14.634   4.171  37.764  1.00  0.00     0.045 A 
HETATM   26  C   UNL     1      15.506   5.148  37.285  1.00  0.00     0.050 A 
HETATM   27  C   UNL     1      16.883   4.924  37.306  1.00  0.00     0.016 A 
HETATM   28  C   UNL     1      17.387   3.724  37.805  1.00  0.00     0.003 A 
HETATM   29  C   UNL     1      16.515   2.747  38.285  1.00  0.00     0.029 A 
BRANCH  26  30
HETATM   30  C   UNL     1      14.967   6.432  36.750  1.00  0.00     0.417 C 
HETATM   31  F   UNL     1      14.196   6.280  35.634  1.00  0.00    -0.166 F 
HETATM   32  F   UNL     1      14.179   7.106  37.639  1.00  0.00    -0.166 F 
HETATM   33  F   UNL     1      15.953   7.309  36.397  1.00  0.00    -0.166 F 
ENDBRANCH  26  30
ENDBRANCH  22  24
ENDBRANCH   5  22
TORSDOF 7
ENDMDL
MODEL 2
REMARK VINA RESULT:      -7.4      4.023      8.139
REMARK  7 active torsions:
REMARK  status: ('A' for Active; 'I' for Inactive)
REMARK       I    between atoms: N_5  and  C_13 
REMARK    1  A    between atoms: N_5  and  C_14 
REMARK    2  A    between atoms: N_6  and  C_17 
REMARK    3  A    between atoms: N_6  and  C_20 
REMARK    4  A    between atoms: N_7  and  C_21 
REMARK    5  A    between atoms: N_7  and  C_23 
REMARK    6  A    between atoms: C_10  and  C_13 
REMARK    7  A    between atoms: C_24  and  C_29 
ROOT
HETATM    1  N   UNL     1      12.225   1.399  38.289  1.00  0.00    -0.224 NA
HETATM    2  N   UNL     1      11.608  -0.407  36.818  1.00  0.00    -0.224 NA
HETATM    3  C   UNL     1      13.518   1.137  38.008  1.00  0.00     0.133 A 
HETATM    4  C   UNL     1      13.929   0.134  37.153  1.00  0.00     0.100 A 
HETATM    5  C   UNL     1      12.922  -0.620  36.577  1.00  0.00     0.133 A 
HETATM    6  C   UNL     1      11.335   0.600  37.670  1.00  0.00     0.237 A 
ENDROOT
BRANCH   3   7
HETATM    7  N   UNL     1      14.523   1.928  38.616  1.00  0.00    -0.341 N 
HETATM    8  H   UNL     1      14.707   1.675  39.583  1.00  0.00     0.167 HD
BRANCH   7   9
HETATM    9  C   UNL     1      15.315   2.985  38.140  1.00  0.00     0.035 A 
HETATM   10  C   UNL     1      14.716   4.150  37.652  1.00  0.00     0.059 A 
HETATM   11  C   UNL     1      15.504   5.199  37.181  1.00  0.00     0.036 A 
HETATM   12  C   UNL     1      16.895   5.089  37.194  1.00  0.00     0.029 A 
HETATM   13  C   UNL     1      17.497   3.929  37.680  1.00  0.00     0.004 A 
HETATM   14  C   UNL     1      16.709   2.879  38.151  1.00  0.00     0.029 A 
BRANCH  11  15
HETATM   15  N   UNL     1      14.901   6.361  36.696  1.00  0.00    -0.327 N 
HETATM   16  C   UNL     1      14.634   7.545  37.386  1.00  0.00     0.226 C 
HETATM   17  O   UNL     1      14.876   7.801  38.559  1.00  0.00    -0.273 OA
HETATM   18  H   UNL     1      14.621   6.329  35.718  1.00  0.00     0.169 HD
BRANCH  16  19
HETATM   19  C   UNL     1      13.973   8.597  36.551  1.00  0.00     0.078 A 
HETATM   20  C   UNL     1      14.116   8.517  35.073  1.00  0.00     0.015 A 
HETATM   21  C   UNL     1      14.837   9.582  35.845  1.00  0.00     0.015 A 
ENDBRANCH  16  19
ENDBRANCH  11  15
ENDBRANCH   7   9
ENDBRANCH   3   7
BRANCH   5  22
HETATM   22  N   UNL     1      13.299  -1.654  35.698  1.00  0.00    -0.341 N 
HETATM   23  H   UNL     1      12.508  -2.204  35.373  1.00  0.00     0.167 HD
BRANCH  22  24
HETATM   24  C   UNL     1      14.536  -2.278  35.433  1.00  0.00     0.034 A 
HETATM   25  C   UNL     1      15.165  -2.087  34.203  1.00  0.00     0.045 A 
HETATM   26  C   UNL     1      16.389  -2.703  33.942  1.00  0.00     0.050 A 
HETATM   27  C   UNL     1      16.983  -3.511  34.912  1.00  0.00     0.016 A 
HETATM   28  C   UNL     1      16.355  -3.702  36.142  1.00  0.00     0.003 A 
HETATM   29  C   UNL     1      15.131  -3.086  36.403  1.00  0.00     0.029 A 
BRANCH  26  30
HETATM   30  C   UNL     1      17.062  -2.499  32.627  1.00  0.00     0.417 C 
HETATM   31  F   UNL     1      17.538  -1.232  32.445  1.00  0.00    -0.166 F 
HETATM   32  F   UNL     1      18.139  -3.316  32.432  1.00  0.00    -0.166 F 
HETATM   33  F   UNL     1      16.230  -2.733  31.569  1.00  0.00    -0.166 F 
ENDBRANCH  26  30
ENDBRANCH  22  24
ENDBRANCH   5  22
TORSDOF 7
ENDMDL
MODEL 3
REMARK VINA RESULT:      -7.4      4.279      8.281
REMARK  7 active torsions:
REMARK  status: ('A' for Active; 'I' for Inactive)
REMARK       I    between atoms: N_5  and  C_13 
REMARK    1  A    between atoms: N_5  and  C_14 
REMARK    2  A    between atoms: N_6  and  C_17 
REMARK    3  A    between atoms: N_6  and  C_20 
REMARK    4  A    between atoms: N_7  and  C_21 
REMARK    5  A    between atoms: N_7  and  C_23 
REMARK    6  A    between atoms: C_10  and  C_13 
REMARK    7  A    between atoms: C_24  and  C_29 
ROOT
HETATM    1  N   UNL     1      18.993  -0.887  39.882  1.00  0.00    -0.224 NA
HETATM    2  N   UNL     1      19.457  -2.756  38.433  1.00  0.00    -0.224 NA
HETATM    3  C   UNL     1      18.578  -0.198  38.799  1.00  0.00     0.133 A 
HETATM    4  C   UNL     1      18.572  -0.713  37.518  1.00  0.00     0.100 A 
HETATM    5  C   UNL     1      19.028  -2.012  37.386  1.00  0.00     0.133 A 
HETATM    6  C   UNL     1      19.414  -2.141  39.630  1.00  0.00     0.237 A 
ENDROOT
BRANCH   3   7
HETATM    7  N   UNL     1      18.118   1.131  38.970  1.00  0.00    -0.341 N 
HETATM    8  H   UNL     1      18.772   1.723  39.473  1.00  0.00     0.167 HD
BRANCH   7   9
HETATM    9  C   UNL     1      16.940   1.785  38.573  1.00  0.00     0.035 A 
HETATM   10  C   UNL     1      15.694   1.202  38.819  1.00  0.00     0.059 A 
HETATM   11  C   UNL     1      14.525   1.853  38.426  1.00  0.00     0.036 A 
HETATM   12  C   UNL     1      14.597   3.090  37.786  1.00  0.00     0.029 A 
HETATM   13  C   UNL     1      15.838   3.677  37.539  1.00  0.00     0.004 A 
HETATM   14  C   UNL     1      17.007   3.025  37.931  1.00  0.00     0.029 A 
BRANCH  11  15
HETATM   15  N   UNL     1      13.283   1.267  38.673  1.00  0.00    -0.327 N 
HETATM   16  C   UNL     1      12.425   0.648  37.761  1.00  0.00     0.226 C 
HETATM   17  O   UNL     1      12.593   0.496  36.558  1.00  0.00    -0.273 OA
HETATM   18  H   UNL     1      12.970   1.306  39.641  1.00  0.00     0.169 HD
BRANCH  16  19
HETATM   19  C   UNL     1      11.164   0.125  38.375  1.00  0.00     0.078 A 
HETATM   20  C   UNL     1      10.142   1.105  38.832  1.00  0.00     0.015 A 
HETATM   21  C   UNL     1      10.951   0.334  39.833  1.00  0.00     0.015 A 
ENDBRANCH  16  19
ENDBRANCH  11  15
ENDBRANCH   7   9
ENDBRANCH   3   7
BRANCH   5  22
HETATM   22  N   UNL     1      19.038  -2.575  36.096  1.00  0.00    -0.341 N 
HETATM   23  H   UNL     1      19.975  -2.806  35.773  1.00  0.00     0.167 HD
BRANCH  22  24
HETATM   24  C   UNL     1      18.089  -2.589  35.053  1.00  0.00     0.034 A 
HETATM   25  C   UNL     1      18.465  -2.224  33.760  1.00  0.00     0.045 A 
HETATM   26  C   UNL     1      17.526  -2.240  32.730  1.00  0.00     0.050 A 
HETATM   27  C   UNL     1      16.210  -2.621  32.991  1.00  0.00     0.016 A 
HETATM   28  C   UNL     1      15.833  -2.986  34.283  1.00  0.00     0.003 A 
HETATM   29  C   UNL     1      16.773  -2.971  35.314  1.00  0.00     0.029 A 
BRANCH  26  30
HETATM   30  C   UNL     1      17.929  -1.848  31.347  1.00  0.00     0.417 C 
HETATM   31  F   UNL     1      18.977  -2.572  30.856  1.00  0.00    -0.166 F 
HETATM   32  F   UNL     1      16.932  -1.996  30.426  1.00  0.00    -0.166 F 
HETATM   33  F   UNL     1      18.315  -0.541  31.263  1.00  0.00    -0.166 F 
ENDBRANCH  26  30
ENDBRANCH  22  24
ENDBRANCH   5  22
TORSDOF 7
ENDMDL
MODEL 4
REMARK VINA RESULT:      -7.2     16.405     19.751
REMARK  7 active torsions:
REMARK  status: ('A' for Active; 'I' for Inactive)
REMARK       I    between atoms: N_5  and  C_13 
REMARK    1  A    between atoms: N_5  and  C_14 
REMARK    2  A    between atoms: N_6  and  C_17 
REMARK    3  A    between atoms: N_6  and  C_20 
REMARK    4  A    between atoms: N_7  and  C_21 
REMARK    5  A    between atoms: N_7  and  C_23 
REMARK    6  A    between atoms: C_10  and  C_13 
REMARK    7  A    between atoms: C_24  and  C_29 
ROOT
HETATM    1  N   UNL     1      18.624  13.317  28.106  1.00  0.00    -0.224 NA
HETATM    2  N   UNL     1      20.577  12.269  27.160  1.00  0.00    -0.224 NA
HETATM    3  C   UNL     1      18.732  14.280  27.167  1.00  0.00     0.133 A 
HETATM    4  C   UNL     1      19.720  14.304  26.204  1.00  0.00     0.100 A 
HETATM    5  C   UNL     1      20.631  13.264  26.245  1.00  0.00     0.133 A 
HETATM    6  C   UNL     1      19.566  12.357  28.046  1.00  0.00     0.237 A 
ENDROOT
BRANCH   3   7
HETATM    7  N   UNL     1      17.783  15.331  27.155  1.00  0.00    -0.341 N 
HETATM    8  H   UNL     1      17.701  15.812  28.047  1.00  0.00     0.167 HD
BRANCH   7   9
HETATM    9  C   UNL     1      16.942  15.839  26.151  1.00  0.00     0.035 A 
HETATM   10  C   UNL     1      15.724  15.215  25.870  1.00  0.00     0.059 A 
HETATM   11  C   UNL     1      14.890  15.720  24.874  1.00  0.00     0.036 A 
HETATM   12  C   UNL     1      15.270  16.853  24.153  1.00  0.00     0.029 A 
HETATM   13  C   UNL     1      16.485  17.479  24.429  1.00  0.00     0.004 A 
HETATM   14  C   UNL     1      17.320  16.972  25.425  1.00  0.00     0.029 A 
BRANCH  11  15
HETATM   15  N   UNL     1      13.673  15.094  24.598  1.00  0.00    -0.327 N 
HETATM   16  C   UNL     1      12.392  15.492  24.988  1.00  0.00     0.226 C 
HETATM   17  O   UNL     1      12.080  16.472  25.650  1.00  0.00    -0.273 OA
HETATM   18  H   UNL     1      13.740  14.240  24.048  1.00  0.00     0.169 HD
BRANCH  16  19
HETATM   19  C   UNL     1      11.304  14.579  24.513  1.00  0.00     0.078 A 
HETATM   20  C   UNL     1      10.645  14.884  23.214  1.00  0.00     0.015 A 
HETATM   21  C   UNL     1       9.908  15.093  24.504  1.00  0.00     0.015 A 
ENDBRANCH  16  19
ENDBRANCH  11  15
ENDBRANCH   7   9
ENDBRANCH   3   7
BRANCH   5  22
HETATM   22  N   UNL     1      21.655  13.252  25.279  1.00  0.00    -0.341 N 
HETATM   23  H   UNL     1      22.583  13.339  25.687  1.00  0.00     0.167 HD
BRANCH  22  24
HETATM   24  C   UNL     1      21.656  13.465  23.885  1.00  0.00     0.034 A 
HETATM   25  C   UNL     1      21.796  12.386  23.013  1.00  0.00     0.045 A 
HETATM   26  C   UNL     1      21.795  12.598  21.635  1.00  0.00     0.050 A 
HETATM   27  C   UNL     1      21.654  13.890  21.128  1.00  0.00     0.016 A 
HETATM   28  C   UNL     1      21.515  14.970  21.999  1.00  0.00     0.003 A 
HETATM   29  C   UNL     1      21.515  14.757  23.378  1.00  0.00     0.029 A 
BRANCH  26  30
HETATM   30  C   UNL     1      21.944  11.443  20.701  1.00  0.00     0.417 C 
HETATM   31  F   UNL     1      23.242  11.080  20.483  1.00  0.00    -0.166 F 
HETATM   32  F   UNL     1      21.324  10.307  21.136  1.00  0.00    -0.166 F 
HETATM   33  F   UNL     1      21.421  11.696  19.465  1.00  0.00    -0.166 F 
ENDBRANCH  26  30
ENDBRANCH  22  24
ENDBRANCH   5  22
TORSDOF 7
ENDMDL
MODEL 5
REMARK VINA RESULT:      -7.2      4.360      8.531
REMARK  7 active torsions:
REMARK  status: ('A' for Active; 'I' for Inactive)
REMARK       I    between atoms: N_5  and  C_13 
REMARK    1  A    between atoms: N_5  and  C_14 
REMARK    2  A    between atoms: N_6  and  C_17 
REMARK    3  A    between atoms: N_6  and  C_20 
REMARK    4  A    between atoms: N_7  and  C_21 
REMARK    5  A    between atoms: N_7  and  C_23 
REMARK    6  A    between atoms: C_10  and  C_13 
REMARK    7  A    between atoms: C_24  and  C_29 
ROOT
HETATM    1  N   UNL     1      20.701   1.653  38.100  1.00  0.00    -0.224 NA
HETATM    2  N   UNL     1      21.821   0.125  36.612  1.00  0.00    -0.224 NA
HETATM    3  C   UNL     1      19.600   0.878  38.008  1.00  0.00     0.133 A 
HETATM    4  C   UNL     1      19.535  -0.273  37.250  1.00  0.00     0.100 A 
HETATM    5  C   UNL     1      20.687  -0.611  36.561  1.00  0.00     0.133 A 
HETATM    6  C   UNL     1      21.759   1.225  37.386  1.00  0.00     0.237 A 
ENDROOT
BRANCH   3   7
HETATM    7  N   UNL     1      18.439   1.254  38.725  1.00  0.00    -0.341 N 
HETATM    8  H   UNL     1      18.431   0.923  39.686  1.00  0.00     0.167 HD
BRANCH   7   9
HETATM    9  C   UNL     1      17.303   1.998  38.367  1.00  0.00     0.035 A 
HETATM   10  C   UNL     1      16.030   1.428  38.456  1.00  0.00     0.059 A 
HETATM   11  C   UNL     1      14.903   2.168  38.102  1.00  0.00     0.036 A 
HETATM   12  C   UNL     1      15.043   3.483  37.656  1.00  0.00     0.029 A 
HETATM   13  C   UNL     1      16.311   4.057  37.565  1.00  0.00     0.004 A 
HETATM   14  C   UNL     1      17.439   3.315  37.919  1.00  0.00     0.029 A 
BRANCH  11  15
HETATM   15  N   UNL     1      13.634   1.595  38.193  1.00  0.00    -0.327 N 
HETATM   16  C   UNL     1      13.105   0.547  37.437  1.00  0.00     0.226 C 
HETATM   17  O   UNL     1      13.653  -0.081  36.540  1.00  0.00    -0.273 OA
HETATM   18  H   UNL     1      13.023   2.003  38.898  1.00  0.00     0.169 HD
BRANCH  16  19
HETATM   19  C   UNL     1      11.701   0.183  37.805  1.00  0.00     0.078 A 
HETATM   20  C   UNL     1      10.690   1.271  37.895  1.00  0.00     0.015 A 
HETATM   21  C   UNL     1      11.191   0.600  39.139  1.00  0.00     0.015 A 
ENDBRANCH  16  19
ENDBRANCH  11  15
ENDBRANCH   7   9
ENDBRANCH   3   7
BRANCH   5  22
HETATM   22  N   UNL     1      20.661  -1.779  35.776  1.00  0.00    -0.341 N 
HETATM   23  H   UNL     1      21.591  -2.099  35.514  1.00  0.00     0.167 HD
BRANCH  22  24
HETATM   24  C   UNL     1      19.644  -2.402  35.023  1.00  0.00     0.034 A 
HETATM   25  C   UNL     1      19.337  -1.936  33.745  1.00  0.00     0.045 A 
HETATM   26  C   UNL     1      18.332  -2.554  33.000  1.00  0.00     0.050 A 
HETATM   27  C   UNL     1      17.634  -3.637  33.535  1.00  0.00     0.016 A 
HETATM   28  C   UNL     1      17.941  -4.103  34.813  1.00  0.00     0.003 A 
HETATM   29  C   UNL     1      18.946  -3.485  35.557  1.00  0.00     0.029 A 
BRANCH  26  30
HETATM   30  C   UNL     1      18.003  -2.056  31.633  1.00  0.00     0.417 C 
HETATM   31  F   UNL     1      16.764  -2.430  31.198  1.00  0.00    -0.166 F 
HETATM   32  F   UNL     1      18.021  -0.695  31.528  1.00  0.00    -0.166 F 
HETATM   33  F   UNL     1      18.876  -2.508  30.685  1.00  0.00    -0.166 F 
ENDBRANCH  26  30
ENDBRANCH  22  24
ENDBRANCH   5  22
TORSDOF 7
ENDMDL
MODEL 6
REMARK VINA RESULT:      -7.1      4.375      8.131
REMARK  7 active torsions:
REMARK  status: ('A' for Active; 'I' for Inactive)
REMARK       I    between atoms: N_5  and  C_13 
REMARK    1  A    between atoms: N_5  and  C_14 
REMARK    2  A    between atoms: N_6  and  C_17 
REMARK    3  A    between atoms: N_6  and  C_20 
REMARK    4  A    between atoms: N_7  and  C_21 
REMARK    5  A    between atoms: N_7  and  C_23 
REMARK    6  A    between atoms: C_10  and  C_13 
REMARK    7  A    between atoms: C_24  and  C_29 
ROOT
HETATM    1  N   UNL     1      19.633   1.691  38.265  1.00  0.00    -0.224 NA
HETATM    2  N   UNL     1      21.206   0.655  36.762  1.00  0.00    -0.224 NA
HETATM    3  C   UNL     1      18.851   0.599  38.139  1.00  0.00     0.133 A 
HETATM    4  C   UNL     1      19.174  -0.490  37.355  1.00  0.00     0.100 A 
HETATM    5  C   UNL     1      20.377  -0.411  36.677  1.00  0.00     0.133 A 
HETATM    6  C   UNL     1      20.779   1.653  37.559  1.00  0.00     0.237 A 
ENDROOT
BRANCH   3   7
HETATM    7  N   UNL     1      17.624   0.553  38.847  1.00  0.00    -0.341 N 
HETATM    8  H   UNL     1      17.727   0.269  39.817  1.00  0.00     0.167 HD
BRANCH   7   9
HETATM    9  C   UNL     1      16.300   0.829  38.468  1.00  0.00     0.035 A 
HETATM   10  C   UNL     1      15.335  -0.182  38.493  1.00  0.00     0.059 A 
HETATM   11  C   UNL     1      14.021   0.094  38.117  1.00  0.00     0.036 A 
HETATM   12  C   UNL     1      13.665   1.382  37.716  1.00  0.00     0.029 A 
HETATM   13  C   UNL     1      14.624   2.394  37.690  1.00  0.00     0.004 A 
HETATM   14  C   UNL     1      15.940   2.118  38.064  1.00  0.00     0.029 A 
BRANCH  11  15
HETATM   15  N   UNL     1      13.060  -0.918  38.144  1.00  0.00    -0.327 N 
HETATM   16  C   UNL     1      12.722  -1.811  37.126  1.00  0.00     0.226 C 
HETATM   17  O   UNL     1      13.202  -1.886  36.002  1.00  0.00    -0.273 OA
HETATM   18  H   UNL     1      12.544  -1.003  39.018  1.00  0.00     0.169 HD
BRANCH  16  19
HETATM   19  C   UNL     1      11.638  -2.774  37.500  1.00  0.00     0.078 A 
HETATM   20  C   UNL     1      10.455  -2.887  36.605  1.00  0.00     0.015 A 
HETATM   21  C   UNL     1      10.329  -2.223  37.945  1.00  0.00     0.015 A 
ENDBRANCH  16  19
ENDBRANCH  11  15
ENDBRANCH   7   9
ENDBRANCH   3   7
BRANCH   5  22
HETATM   22  N   UNL     1      20.744  -1.502  35.866  1.00  0.00    -0.341 N 
HETATM   23  H   UNL     1      21.739  -1.520  35.654  1.00  0.00     0.167 HD
BRANCH  22  24
HETATM   24  C   UNL     1      20.001  -2.369  35.039  1.00  0.00     0.034 A 
HETATM   25  C   UNL     1      19.372  -1.876  33.896  1.00  0.00     0.045 A 
HETATM   26  C   UNL     1      18.638  -2.734  33.077  1.00  0.00     0.050 A 
HETATM   27  C   UNL     1      18.534  -4.087  33.402  1.00  0.00     0.016 A 
HETATM   28  C   UNL     1      19.162  -4.581  34.544  1.00  0.00     0.003 A 
HETATM   29  C   UNL     1      19.896  -3.722  35.363  1.00  0.00     0.029 A 
BRANCH  26  30
HETATM   30  C   UNL     1      17.965  -2.207  31.855  1.00  0.00     0.417 C 
HETATM   31  F   UNL     1      16.708  -2.705  31.664  1.00  0.00    -0.166 F 
HETATM   32  F   UNL     1      17.814  -0.850  31.857  1.00  0.00    -0.166 F 
HETATM   33  F   UNL     1      18.652  -2.497  30.711  1.00  0.00    -0.166 F 
ENDBRANCH  26  30
ENDBRANCH  22  24
ENDBRANCH   5  22
TORSDOF 7
ENDMDL
MODEL 7
REMARK VINA RESULT:      -7.0      4.179      8.027
REMARK  7 active torsions:
REMARK  status: ('A' for Active; 'I' for Inactive)
REMARK       I    between atoms: N_5  and  C_13 
REMARK    1  A    between atoms: N_5  and  C_14 
REMARK    2  A    between atoms: N_6  and  C_17 
REMARK    3  A    between atoms: N_6  and  C_20 
REMARK    4  A    between atoms: N_7  and  C_21 
REMARK    5  A    between atoms: N_7  and  C_23 
REMARK    6  A    between atoms: C_10  and  C_13 
REMARK    7  A    between atoms: C_24  and  C_29 
ROOT
HETATM    1  N   UNL     1      12.445  -0.186  37.531  1.00  0.00    -0.224 NA
HETATM    2  N   UNL     1      13.091  -2.187  36.354  1.00  0.00    -0.224 NA
HETATM    3  C   UNL     1      13.754   0.087  37.709  1.00  0.00     0.133 A 
HETATM    4  C   UNL     1      14.775  -0.717  37.246  1.00  0.00     0.100 A 
HETATM    5  C   UNL     1      14.387  -1.858  36.567  1.00  0.00     0.133 A 
HETATM    6  C   UNL     1      12.189  -1.322  36.856  1.00  0.00     0.237 A 
ENDROOT
BRANCH   3   7
HETATM    7  N   UNL     1      14.117   1.263  38.411  1.00  0.00    -0.341 N 
HETATM    8  H   UNL     1      13.647   1.361  39.307  1.00  0.00     0.167 HD
BRANCH   7   9
HETATM    9  C   UNL     1      15.002   2.312  38.109  1.00  0.00     0.035 A 
HETATM   10  C   UNL     1      14.533   3.472  37.487  1.00  0.00     0.059 A 
HETATM   11  C   UNL     1      15.412   4.513  37.190  1.00  0.00     0.036 A 
HETATM   12  C   UNL     1      16.764   4.399  37.514  1.00  0.00     0.029 A 
HETATM   13  C   UNL     1      17.237   3.243  38.135  1.00  0.00     0.004 A 
HETATM   14  C   UNL     1      16.357   2.201  38.432  1.00  0.00     0.029 A 
BRANCH  11  15
HETATM   15  N   UNL     1      14.939   5.670  36.569  1.00  0.00    -0.327 N 
HETATM   16  C   UNL     1      14.727   6.928  37.138  1.00  0.00     0.226 C 
HETATM   17  O   UNL     1      14.915   7.267  38.299  1.00  0.00    -0.273 OA
HETATM   18  H   UNL     1      14.720   5.573  35.580  1.00  0.00     0.169 HD
BRANCH  16  19
HETATM   19  C   UNL     1      14.209   7.949  36.174  1.00  0.00     0.078 A 
HETATM   20  C   UNL     1      15.078   8.347  35.033  1.00  0.00     0.015 A 
HETATM   21  C   UNL     1      14.840   9.297  36.170  1.00  0.00     0.015 A 
ENDBRANCH  16  19
ENDBRANCH  11  15
ENDBRANCH   7   9
ENDBRANCH   3   7
BRANCH   5  22
HETATM   22  N   UNL     1      15.399  -2.705  36.077  1.00  0.00    -0.341 N 
HETATM   23  H   UNL     1      15.715  -3.383  36.767  1.00  0.00     0.167 HD
BRANCH  22  24
HETATM   24  C   UNL     1      16.272  -2.611  34.974  1.00  0.00     0.034 A 
HETATM   25  C   UNL     1      17.642  -2.443  35.179  1.00  0.00     0.045 A 
HETATM   26  C   UNL     1      18.505  -2.352  34.088  1.00  0.00     0.050 A 
HETATM   27  C   UNL     1      17.999  -2.429  32.790  1.00  0.00     0.016 A 
HETATM   28  C   UNL     1      16.630  -2.596  32.584  1.00  0.00     0.003 A 
HETATM   29  C   UNL     1      15.766  -2.687  33.676  1.00  0.00     0.029 A 
BRANCH  26  30
HETATM   30  C   UNL     1      19.969  -2.173  34.308  1.00  0.00     0.417 C 
HETATM   31  F   UNL     1      20.400  -0.892  34.111  1.00  0.00    -0.166 F 
HETATM   32  F   UNL     1      20.376  -2.495  35.571  1.00  0.00    -0.166 F 
HETATM   33  F   UNL     1      20.724  -2.945  33.471  1.00  0.00    -0.166 F 
ENDBRANCH  26  30
ENDBRANCH  22  24
ENDBRANCH   5  22
TORSDOF 7
ENDMDL
MODEL 8
REMARK VINA RESULT:      -7.0      4.725      7.070
REMARK  7 active torsions:
REMARK  status: ('A' for Active; 'I' for Inactive)
REMARK       I    between atoms: N_5  and  C_13 
REMARK    1  A    between atoms: N_5  and  C_14 
REMARK    2  A    between atoms: N_6  and  C_17 
REMARK    3  A    between atoms: N_6  and  C_20 
REMARK    4  A    between atoms: N_7  and  C_21 
REMARK    5  A    between atoms: N_7  and  C_23 
REMARK    6  A    between atoms: C_10  and  C_13 
REMARK    7  A    between atoms: C_24  and  C_29 
ROOT
HETATM    1  N   UNL     1      16.763  -3.103  32.996  1.00  0.00    -0.224 NA
HETATM    2  N   UNL     1      14.820  -2.407  34.240  1.00  0.00    -0.224 NA
HETATM    3  C   UNL     1      17.500  -2.905  34.108  1.00  0.00     0.133 A 
HETATM    4  C   UNL     1      16.976  -2.467  35.307  1.00  0.00     0.100 A 
HETATM    5  C   UNL     1      15.614  -2.228  35.321  1.00  0.00     0.133 A 
HETATM    6  C   UNL     1      15.450  -2.837  33.130  1.00  0.00     0.237 A 
ENDROOT
BRANCH   3   7
HETATM    7  N   UNL     1      18.893  -3.159  34.058  1.00  0.00    -0.341 N 
HETATM    8  H   UNL     1      19.161  -3.801  33.318  1.00  0.00     0.167 HD
BRANCH   7   9
HETATM    9  C   UNL     1      19.970  -2.689  34.828  1.00  0.00     0.035 A 
HETATM   10  C   UNL     1      20.488  -1.410  34.607  1.00  0.00     0.059 A 
HETATM   11  C   UNL     1      21.556  -0.944  35.373  1.00  0.00     0.036 A 
HETATM   12  C   UNL     1      22.112  -1.755  36.362  1.00  0.00     0.029 A 
HETATM   13  C   UNL     1      21.599  -3.032  36.586  1.00  0.00     0.004 A 
HETATM   14  C   UNL     1      20.531  -3.499  35.819  1.00  0.00     0.029 A 
BRANCH  11  15
HETATM   15  N   UNL     1      22.069   0.335  35.150  1.00  0.00    -0.327 N 
HETATM   16  C   UNL     1      21.819   1.502  35.875  1.00  0.00     0.226 C 
HETATM   17  O   UNL     1      21.098   1.636  36.855  1.00  0.00    -0.273 OA
HETATM   18  H   UNL     1      22.698   0.417  34.354  1.00  0.00     0.169 HD
BRANCH  16  19
HETATM   19  C   UNL     1      22.542   2.705  35.355  1.00  0.00     0.078 A 
HETATM   20  C   UNL     1      21.839   4.015  35.377  1.00  0.00     0.015 A 
HETATM   21  C   UNL     1      22.078   3.308  34.076  1.00  0.00     0.015 A 
ENDBRANCH  16  19
ENDBRANCH  11  15
ENDBRANCH   7   9
ENDBRANCH   3   7
BRANCH   5  22
HETATM   22  N   UNL     1      15.040  -1.780  36.526  1.00  0.00    -0.341 N 
HETATM   23  H   UNL     1      15.563  -2.076  37.347  1.00  0.00     0.167 HD
BRANCH  22  24
HETATM   24  C   UNL     1      13.754  -1.298  36.850  1.00  0.00     0.034 A 
HETATM   25  C   UNL     1      12.721  -2.194  37.126  1.00  0.00     0.045 A 
HETATM   26  C   UNL     1      11.452  -1.717  37.448  1.00  0.00     0.050 A 
HETATM   27  C   UNL     1      11.214  -0.343  37.494  1.00  0.00     0.016 A 
HETATM   28  C   UNL     1      12.245   0.553  37.218  1.00  0.00     0.003 A 
HETATM   29  C   UNL     1      13.516   0.075  36.896  1.00  0.00     0.029 A 
BRANCH  26  30
HETATM   30  C   UNL     1      10.347  -2.675  37.744  1.00  0.00     0.417 C 
HETATM   31  F   UNL     1       9.308  -2.118  38.433  1.00  0.00    -0.166 F 
HETATM   32  F   UNL     1       9.781  -3.218  36.625  1.00  0.00    -0.166 F 
HETATM   33  F   UNL     1      10.759  -3.737  38.497  1.00  0.00    -0.166 F 
ENDBRANCH  26  30
ENDBRANCH  22  24
ENDBRANCH   5  22
TORSDOF 7
ENDMDL
MODEL 9
REMARK VINA RESULT:      -6.9     16.400     18.303
REMARK  7 active torsions:
REMARK  status: ('A' for Active; 'I' for Inactive)
REMARK       I    between atoms: N_5  and  C_13 
REMARK    1  A    between atoms: N_5  and  C_14 
REMARK    2  A    between atoms: N_6  and  C_17 
REMARK    3  A    between atoms: N_6  and  C_20 
REMARK    4  A    between atoms: N_7  and  C_21 
REMARK    5  A    between atoms: N_7  and  C_23 
REMARK    6  A    between atoms: C_10  and  C_13 
REMARK    7  A    between atoms: C_24  and  C_29 
ROOT
HETATM    1  N   UNL     1      16.866  16.171  28.788  1.00  0.00    -0.224 NA
HETATM    2  N   UNL     1      14.727  16.400  27.702  1.00  0.00    -0.224 NA
HETATM    3  C   UNL     1      17.393  15.826  27.594  1.00  0.00     0.133 A 
HETATM    4  C   UNL     1      16.661  15.748  26.427  1.00  0.00     0.100 A 
HETATM    5  C   UNL     1      15.315  16.047  26.535  1.00  0.00     0.133 A 
HETATM    6  C   UNL     1      15.547  16.440  28.770  1.00  0.00     0.237 A 
ENDROOT
BRANCH   3   7
HETATM    7  N   UNL     1      18.775  15.525  27.520  1.00  0.00    -0.341 N 
HETATM    8  H   UNL     1      19.374  16.319  27.725  1.00  0.00     0.167 HD
BRANCH   7   9
HETATM    9  C   UNL     1      19.473  14.342  27.225  1.00  0.00     0.035 A 
HETATM   10  C   UNL     1      19.999  14.135  25.946  1.00  0.00     0.059 A 
HETATM   11  C   UNL     1      20.692  12.961  25.655  1.00  0.00     0.036 A 
HETATM   12  C   UNL     1      20.864  11.988  26.640  1.00  0.00     0.029 A 
HETATM   13  C   UNL     1      20.341  12.191  27.918  1.00  0.00     0.004 A 
HETATM   14  C   UNL     1      19.646  13.365  28.209  1.00  0.00     0.029 A 
BRANCH  11  15
HETATM   15  N   UNL     1      21.216  12.759  24.377  1.00  0.00    -0.327 N 
HETATM   16  C   UNL     1      22.555  12.783  23.982  1.00  0.00     0.226 C 
HETATM   17  O   UNL     1      23.540  12.987  24.680  1.00  0.00    -0.273 OA
HETATM   18  H   UNL     1      20.528  12.577  23.650  1.00  0.00     0.169 HD
BRANCH  16  19
HETATM   19  C   UNL     1      22.761  12.522  22.522  1.00  0.00     0.078 A 
HETATM   20  C   UNL     1      21.800  13.121  21.557  1.00  0.00     0.015 A 
HETATM   21  C   UNL     1      21.785  11.644  21.819  1.00  0.00     0.015 A 
ENDBRANCH  16  19
ENDBRANCH  11  15
ENDBRANCH   7   9
ENDBRANCH   3   7
BRANCH   5  22
HETATM   22  N   UNL     1      14.533  15.980  25.367  1.00  0.00    -0.341 N 
HETATM   23  H   UNL     1      14.908  16.543  24.607  1.00  0.00     0.167 HD
BRANCH  22  24
HETATM   24  C   UNL     1      13.204  15.570  25.129  1.00  0.00     0.034 A 
HETATM   25  C   UNL     1      12.158  16.483  25.257  1.00  0.00     0.045 A 
HETATM   26  C   UNL     1      10.845  16.077  25.020  1.00  0.00     0.050 A 
HETATM   27  C   UNL     1      10.578  14.757  24.656  1.00  0.00     0.016 A 
HETATM   28  C   UNL     1      11.624  13.843  24.529  1.00  0.00     0.003 A 
HETATM   29  C   UNL     1      12.937  14.250  24.766  1.00  0.00     0.029 A 
BRANCH  26  30
HETATM   30  C   UNL     1       9.726  17.054  25.156  1.00  0.00     0.417 C 
HETATM   31  F   UNL     1       8.488  16.480  25.102  1.00  0.00    -0.166 F 
HETATM   32  F   UNL     1       9.745  17.747  26.333  1.00  0.00    -0.166 F 
HETATM   33  F   UNL     1       9.733  18.002  24.173  1.00  0.00    -0.166 F 
ENDBRANCH  26  30
ENDBRANCH  22  24
ENDBRANCH   5  22
TORSDOF 7
ENDMDL
