MODEL 1
REMARK VINA RESULT:      -7.6      0.000      0.000
REMARK  7 active torsions:
REMARK  status: ('A' for Active; 'I' for Inactive)
REMARK       I    between atoms: N_5  and  C_13 
REMARK    1  A    between atoms: N_5  and  C_14 
REMARK    2  A    between atoms: N_6  and  C_17 
REMARK    3  A    between atoms: N_6  and  C_20 
REMARK    4  A    between atoms: N_7  and  C_21 
REMARK    5  A    between atoms: N_7  and  C_23 
REMARK    6  A    between atoms: C_10  and  C_13 
REMARK    7  A    between atoms: C_24  and  C_29 
ROOT
HETATM    1  N   UNL     1      11.261  -0.210  36.876  1.00  0.00    -0.224 NA
HETATM    2  N   UNL     1      11.975   1.747  38.088  1.00  0.00    -0.224 NA
HETATM    3  C   UNL     1      12.535  -0.653  36.916  1.00  0.00     0.133 A 
HETATM    4  C   UNL     1      13.569   0.037  37.516  1.00  0.00     0.100 A 
HETATM    5  C   UNL     1      13.232   1.248  38.094  1.00  0.00     0.133 A 
HETATM    6  C   UNL     1      11.055   0.981  37.472  1.00  0.00     0.237 A 
ENDROOT
BRANCH   3   7
HETATM    7  N   UNL     1      12.844  -1.897  36.313  1.00  0.00    -0.341 N 
HETATM    8  H   UNL     1      12.024  -2.413  36.006  1.00  0.00     0.167 HD
BRANCH   7   9
HETATM    9  C   UNL     1      14.061  -2.548  36.053  1.00  0.00     0.035 A 
HETATM   10  C   UNL     1      14.816  -2.206  34.928  1.00  0.00     0.059 A 
HETATM   11  C   UNL     1      16.025  -2.852  34.672  1.00  0.00     0.036 A 
HETATM   12  C   UNL     1      16.484  -3.843  35.540  1.00  0.00     0.029 A 
HETATM   13  C   UNL     1      15.734  -4.188  36.664  1.00  0.00     0.004 A 
HETATM   14  C   UNL     1      14.524  -3.542  36.920  1.00  0.00     0.029 A 
BRANCH  11  15
HETATM   15  N   UNL     1      16.776  -2.507  33.548  1.00  0.00    -0.327 N 
HETATM   16  C   UNL     1      18.119  -2.125  33.493  1.00  0.00     0.226 C 
HETATM   17  O   UNL     1      18.907  -2.017  34.424  1.00  0.00    -0.273 OA
HETATM   18  H   UNL     1      16.272  -2.535  32.664  1.00  0.00     0.169 HD
BRANCH  16  19
HETATM   19  C   UNL     1      18.606  -1.823  32.110  1.00  0.00     0.078 A 
HETATM   20  C   UNL     1      18.058  -0.628  31.414  1.00  0.00     0.015 A 
HETATM   21  C   UNL     1      17.662  -2.007  30.975  1.00  0.00     0.015 A 
ENDBRANCH  16  19
ENDBRANCH  11  15
ENDBRANCH   7   9
ENDBRANCH   3   7
BRANCH   5  22
HETATM   22  N   UNL     1      14.259   1.984  38.717  1.00  0.00    -0.341 N 
HETATM   23  H   UNL     1      14.197   1.966  39.733  1.00  0.00     0.167 HD
BRANCH  22  24
HETATM   24  C   UNL     1      15.141   2.979  38.247  1.00  0.00     0.034 A 
HETATM   25  C   UNL     1      14.638   4.187  37.765  1.00  0.00     0.045 A 
HETATM   26  C   UNL     1      15.510   5.171  37.302  1.00  0.00     0.050 A 
HETATM   27  C   UNL     1      16.887   4.947  37.320  1.00  0.00     0.016 A 
HETATM   28  C   UNL     1      17.391   3.739  37.801  1.00  0.00     0.003 A 
HETATM   29  C   UNL     1      16.517   2.754  38.265  1.00  0.00     0.029 A 
BRANCH  26  30
HETATM   30  C   UNL     1      14.973   6.464  36.787  1.00  0.00     0.417 C 
HETATM   31  F   UNL     1      15.905   7.459  36.724  1.00  0.00    -0.166 F 
HETATM   32  F   UNL     1      14.459   6.377  35.525  1.00  0.00    -0.166 F 
HETATM   33  F   UNL     1      13.962   6.958  37.561  1.00  0.00    -0.166 F 
ENDBRANCH  26  30
ENDBRANCH  22  24
ENDBRANCH   5  22
TORSDOF 7
ENDMDL
MODEL 2
REMARK VINA RESULT:      -7.5      4.239      8.315
REMARK  7 active torsions:
REMARK  status: ('A' for Active; 'I' for Inactive)
REMARK       I    between atoms: N_5  and  C_13 
REMARK    1  A    between atoms: N_5  and  C_14 
REMARK    2  A    between atoms: N_6  and  C_17 
REMARK    3  A    between atoms: N_6  and  C_20 
REMARK    4  A    between atoms: N_7  and  C_21 
REMARK    5  A    between atoms: N_7  and  C_23 
REMARK    6  A    between atoms: C_10  and  C_13 
REMARK    7  A    between atoms: C_24  and  C_29 
ROOT
HETATM    1  N   UNL     1      20.348   0.317  38.764  1.00  0.00    -0.224 NA
HETATM    2  N   UNL     1      20.831  -1.498  37.254  1.00  0.00    -0.224 NA
HETATM    3  C   UNL     1      19.039   0.157  38.479  1.00  0.00     0.133 A 
HETATM    4  C   UNL     1      18.556  -0.796  37.604  1.00  0.00     0.100 A 
HETATM    5  C   UNL     1      19.505  -1.608  37.010  1.00  0.00     0.133 A 
HETATM    6  C   UNL     1      21.177  -0.531  38.125  1.00  0.00     0.237 A 
ENDROOT
BRANCH   3   7
HETATM    7  N   UNL     1      18.095   1.007  39.105  1.00  0.00    -0.341 N 
HETATM    8  H   UNL     1      18.205   1.060  40.114  1.00  0.00     0.167 HD
BRANCH   7   9
HETATM    9  C   UNL     1      17.045   1.791  38.600  1.00  0.00     0.035 A 
HETATM   10  C   UNL     1      15.730   1.320  38.644  1.00  0.00     0.059 A 
HETATM   11  C   UNL     1      14.688   2.100  38.144  1.00  0.00     0.036 A 
HETATM   12  C   UNL     1      14.956   3.356  37.599  1.00  0.00     0.029 A 
HETATM   13  C   UNL     1      16.267   3.831  37.553  1.00  0.00     0.004 A 
HETATM   14  C   UNL     1      17.309   3.050  38.052  1.00  0.00     0.029 A 
BRANCH  11  15
HETATM   15  N   UNL     1      13.376   1.626  38.191  1.00  0.00    -0.327 N 
HETATM   16  C   UNL     1      12.804   0.601  37.435  1.00  0.00     0.226 C 
HETATM   17  O   UNL     1      13.341  -0.090  36.579  1.00  0.00    -0.273 OA
HETATM   18  H   UNL     1      12.768   2.097  38.858  1.00  0.00     0.169 HD
BRANCH  16  19
HETATM   19  C   UNL     1      11.361   0.352  37.746  1.00  0.00     0.078 A 
HETATM   20  C   UNL     1      10.525   1.503  38.184  1.00  0.00     0.015 A 
HETATM   21  C   UNL     1      10.921   0.439  39.165  1.00  0.00     0.015 A 
ENDBRANCH  16  19
ENDBRANCH  11  15
ENDBRANCH   7   9
ENDBRANCH   3   7
BRANCH   5  22
HETATM   22  N   UNL     1      19.053  -2.593  36.111  1.00  0.00    -0.341 N 
HETATM   23  H   UNL     1      19.695  -3.378  36.029  1.00  0.00     0.167 HD
BRANCH  22  24
HETATM   24  C   UNL     1      18.086  -2.577  35.084  1.00  0.00     0.034 A 
HETATM   25  C   UNL     1      18.450  -2.210  33.788  1.00  0.00     0.045 A 
HETATM   26  C   UNL     1      17.494  -2.196  32.773  1.00  0.00     0.050 A 
HETATM   27  C   UNL     1      16.174  -2.550  33.053  1.00  0.00     0.016 A 
HETATM   28  C   UNL     1      15.810  -2.917  34.348  1.00  0.00     0.003 A 
HETATM   29  C   UNL     1      16.766  -2.931  35.364  1.00  0.00     0.029 A 
BRANCH  26  30
HETATM   30  C   UNL     1      17.882  -1.803  31.387  1.00  0.00     0.417 C 
HETATM   31  F   UNL     1      16.895  -2.002  30.465  1.00  0.00    -0.166 F 
HETATM   32  F   UNL     1      18.221  -0.486  31.268  1.00  0.00    -0.166 F 
HETATM   33  F   UNL     1      18.961  -2.502  30.926  1.00  0.00    -0.166 F 
ENDBRANCH  26  30
ENDBRANCH  22  24
ENDBRANCH   5  22
TORSDOF 7
ENDMDL
MODEL 3
REMARK VINA RESULT:      -7.4      4.037      8.174
REMARK  7 active torsions:
REMARK  status: ('A' for Active; 'I' for Inactive)
REMARK       I    between atoms: N_5  and  C_13 
REMARK    1  A    between atoms: N_5  and  C_14 
REMARK    2  A    between atoms: N_6  and  C_17 
REMARK    3  A    between atoms: N_6  and  C_20 
REMARK    4  A    between atoms: N_7  and  C_21 
REMARK    5  A    between atoms: N_7  and  C_23 
REMARK    6  A    between atoms: C_10  and  C_13 
REMARK    7  A    between atoms: C_24  and  C_29 
ROOT
HETATM    1  N   UNL     1      12.229   1.767  37.958  1.00  0.00    -0.224 NA
HETATM    2  N   UNL     1      11.570  -0.083  36.562  1.00  0.00    -0.224 NA
HETATM    3  C   UNL     1      13.510   1.363  37.825  1.00  0.00     0.133 A 
HETATM    4  C   UNL     1      13.894   0.262  37.086  1.00  0.00     0.100 A 
HETATM    5  C   UNL     1      12.873  -0.436  36.467  1.00  0.00     0.133 A 
HETATM    6  C   UNL     1      11.324   1.009  37.311  1.00  0.00     0.237 A 
ENDROOT
BRANCH   3   7
HETATM    7  N   UNL     1      14.530   2.102  38.474  1.00  0.00    -0.341 N 
HETATM    8  H   UNL     1      14.693   1.809  39.433  1.00  0.00     0.167 HD
BRANCH   7   9
HETATM    9  C   UNL     1      15.359   3.151  38.045  1.00  0.00     0.035 A 
HETATM   10  C   UNL     1      14.801   4.331  37.545  1.00  0.00     0.059 A 
HETATM   11  C   UNL     1      15.625   5.372  37.121  1.00  0.00     0.036 A 
HETATM   12  C   UNL     1      17.012   5.240  37.196  1.00  0.00     0.029 A 
HETATM   13  C   UNL     1      17.574   4.065  37.694  1.00  0.00     0.004 A 
HETATM   14  C   UNL     1      16.749   3.022  38.117  1.00  0.00     0.029 A 
BRANCH  11  15
HETATM   15  N   UNL     1      15.063   6.549  36.623  1.00  0.00    -0.327 N 
HETATM   16  C   UNL     1      14.677   7.687  37.334  1.00  0.00     0.226 C 
HETATM   17  O   UNL     1      14.756   7.881  38.540  1.00  0.00    -0.273 OA
HETATM   18  H   UNL     1      14.915   6.566  35.616  1.00  0.00     0.169 HD
BRANCH  16  19
HETATM   19  C   UNL     1      14.106   8.773  36.476  1.00  0.00     0.078 A 
HETATM   20  C   UNL     1      13.965   8.518  35.017  1.00  0.00     0.015 A 
HETATM   21  C   UNL     1      15.013   9.466  35.521  1.00  0.00     0.015 A 
ENDBRANCH  16  19
ENDBRANCH  11  15
ENDBRANCH   7   9
ENDBRANCH   3   7
BRANCH   5  22
HETATM   22  N   UNL     1      13.222  -1.567  35.703  1.00  0.00    -0.341 N 
HETATM   23  H   UNL     1      12.424  -2.158  35.485  1.00  0.00     0.167 HD
BRANCH  22  24
HETATM   24  C   UNL     1      14.454  -2.209  35.458  1.00  0.00     0.034 A 
HETATM   25  C   UNL     1      15.091  -2.052  34.227  1.00  0.00     0.045 A 
HETATM   26  C   UNL     1      16.308  -2.687  33.986  1.00  0.00     0.050 A 
HETATM   27  C   UNL     1      16.890  -3.479  34.975  1.00  0.00     0.016 A 
HETATM   28  C   UNL     1      16.253  -3.638  36.206  1.00  0.00     0.003 A 
HETATM   29  C   UNL     1      15.035  -3.002  36.447  1.00  0.00     0.029 A 
BRANCH  26  30
HETATM   30  C   UNL     1      16.990  -2.519  32.669  1.00  0.00     0.417 C 
HETATM   31  F   UNL     1      16.218  -2.880  31.603  1.00  0.00    -0.166 F 
HETATM   32  F   UNL     1      17.373  -1.233  32.412  1.00  0.00    -0.166 F 
HETATM   33  F   UNL     1      18.128  -3.267  32.568  1.00  0.00    -0.166 F 
ENDBRANCH  26  30
ENDBRANCH  22  24
ENDBRANCH   5  22
TORSDOF 7
ENDMDL
MODEL 4
REMARK VINA RESULT:      -7.0     15.927     18.132
REMARK  7 active torsions:
REMARK  status: ('A' for Active; 'I' for Inactive)
REMARK       I    between atoms: N_5  and  C_13 
REMARK    1  A    between atoms: N_5  and  C_14 
REMARK    2  A    between atoms: N_6  and  C_17 
REMARK    3  A    between atoms: N_6  and  C_20 
REMARK    4  A    between atoms: N_7  and  C_21 
REMARK    5  A    between atoms: N_7  and  C_23 
REMARK    6  A    between atoms: C_10  and  C_13 
REMARK    7  A    between atoms: C_24  and  C_29 
ROOT
HETATM    1  N   UNL     1      16.072  16.127  29.509  1.00  0.00    -0.224 NA
HETATM    2  N   UNL     1      14.018  16.534  28.316  1.00  0.00    -0.224 NA
HETATM    3  C   UNL     1      16.686  15.962  28.319  1.00  0.00     0.133 A 
HETATM    4  C   UNL     1      16.043  16.066  27.103  1.00  0.00     0.100 A 
HETATM    5  C   UNL     1      14.691  16.357  27.156  1.00  0.00     0.133 A 
HETATM    6  C   UNL     1      14.757  16.406  29.435  1.00  0.00     0.237 A 
ENDROOT
BRANCH   3   7
HETATM    7  N   UNL     1      18.071  15.665  28.301  1.00  0.00    -0.341 N 
HETATM    8  H   UNL     1      18.660  16.468  28.502  1.00  0.00     0.167 HD
BRANCH   7   9
HETATM    9  C   UNL     1      18.782  14.476  28.068  1.00  0.00     0.035 A 
HETATM   10  C   UNL     1      19.427  14.269  26.845  1.00  0.00     0.059 A 
HETATM   11  C   UNL     1      20.134  13.090  26.615  1.00  0.00     0.036 A 
HETATM   12  C   UNL     1      20.200  12.111  27.607  1.00  0.00     0.029 A 
HETATM   13  C   UNL     1      19.559  12.312  28.829  1.00  0.00     0.004 A 
HETATM   14  C   UNL     1      18.850  13.492  29.059  1.00  0.00     0.029 A 
BRANCH  11  15
HETATM   15  N   UNL     1      20.777  12.888  25.393  1.00  0.00    -0.327 N 
HETATM   16  C   UNL     1      22.016  13.382  24.980  1.00  0.00     0.226 C 
HETATM   17  O   UNL     1      22.789  14.092  25.610  1.00  0.00    -0.273 OA
HETATM   18  H   UNL     1      20.268  12.313  24.725  1.00  0.00     0.169 HD
BRANCH  16  19
HETATM   19  C   UNL     1      22.403  12.965  23.595  1.00  0.00     0.078 A 
HETATM   20  C   UNL     1      21.519  13.362  22.466  1.00  0.00     0.015 A 
HETATM   21  C   UNL     1      21.577  11.931  22.914  1.00  0.00     0.015 A 
ENDBRANCH  16  19
ENDBRANCH  11  15
ENDBRANCH   7   9
ENDBRANCH   3   7
BRANCH   5  22
HETATM   22  N   UNL     1      13.997  16.472  25.936  1.00  0.00    -0.341 N 
HETATM   23  H   UNL     1      14.323  17.252  25.369  1.00  0.00     0.167 HD
BRANCH  22  24
HETATM   24  C   UNL     1      12.766  15.954  25.486  1.00  0.00     0.034 A 
HETATM   25  C   UNL     1      11.614  16.739  25.543  1.00  0.00     0.045 A 
HETATM   26  C   UNL     1      10.397  16.226  25.096  1.00  0.00     0.050 A 
HETATM   27  C   UNL     1      10.331  14.927  24.592  1.00  0.00     0.016 A 
HETATM   28  C   UNL     1      11.481  14.141  24.534  1.00  0.00     0.003 A 
HETATM   29  C   UNL     1      12.699  14.655  24.981  1.00  0.00     0.029 A 
BRANCH  26  30
HETATM   30  C   UNL     1       9.165  17.066  25.158  1.00  0.00     0.417 C 
HETATM   31  F   UNL     1       8.018  16.375  24.894  1.00  0.00    -0.166 F 
HETATM   32  F   UNL     1       8.960  17.646  26.377  1.00  0.00    -0.166 F 
HETATM   33  F   UNL     1       9.187  18.096  24.261  1.00  0.00    -0.166 F 
ENDBRANCH  26  30
ENDBRANCH  22  24
ENDBRANCH   5  22
TORSDOF 7
ENDMDL
MODEL 5
REMARK VINA RESULT:      -7.0      4.260      7.985
REMARK  7 active torsions:
REMARK  status: ('A' for Active; 'I' for Inactive)
REMARK       I    between atoms: N_5  and  C_13 
REMARK    1  A    between atoms: N_5  and  C_14 
REMARK    2  A    between atoms: N_6  and  C_17 
REMARK    3  A    between atoms: N_6  and  C_20 
REMARK    4  A    between atoms: N_7  and  C_21 
REMARK    5  A    between atoms: N_7  and  C_23 
REMARK    6  A    between atoms: C_10  and  C_13 
REMARK    7  A    between atoms: C_24  and  C_29 
ROOT
HETATM    1  N   UNL     1      19.448  -0.440  39.496  1.00  0.00    -0.224 NA
HETATM    2  N   UNL     1      19.917  -2.339  38.089  1.00  0.00    -0.224 NA
HETATM    3  C   UNL     1      18.287  -0.279  38.828  1.00  0.00     0.133 A 
HETATM    4  C   UNL     1      17.877  -1.096  37.794  1.00  0.00     0.100 A 
HETATM    5  C   UNL     1      18.739  -2.125  37.458  1.00  0.00     0.133 A 
HETATM    6  C   UNL     1      20.204  -1.474  39.080  1.00  0.00     0.237 A 
ENDROOT
BRANCH   3   7
HETATM    7  N   UNL     1      17.429   0.785  39.198  1.00  0.00    -0.341 N 
HETATM    8  H   UNL     1      17.783   1.341  39.971  1.00  0.00     0.167 HD
BRANCH   7   9
HETATM    9  C   UNL     1      16.190   1.222  38.699  1.00  0.00     0.035 A 
HETATM   10  C   UNL     1      15.052   0.425  38.846  1.00  0.00     0.059 A 
HETATM   11  C   UNL     1      13.823   0.860  38.351  1.00  0.00     0.036 A 
HETATM   12  C   UNL     1      13.726   2.094  37.708  1.00  0.00     0.029 A 
HETATM   13  C   UNL     1      14.859   2.893  37.559  1.00  0.00     0.004 A 
HETATM   14  C   UNL     1      16.089   2.457  38.053  1.00  0.00     0.029 A 
BRANCH  11  15
HETATM   15  N   UNL     1      12.688   0.061  38.501  1.00  0.00    -0.327 N 
HETATM   16  C   UNL     1      12.207  -0.923  37.634  1.00  0.00     0.226 C 
HETATM   17  O   UNL     1      12.687  -1.284  36.568  1.00  0.00    -0.273 OA
HETATM   18  H   UNL     1      12.148   0.229  39.347  1.00  0.00     0.169 HD
BRANCH  16  19
HETATM   19  C   UNL     1      10.954  -1.590  38.110  1.00  0.00     0.078 A 
HETATM   20  C   UNL     1      11.070  -2.913  38.780  1.00  0.00     0.015 A 
HETATM   21  C   UNL     1      10.493  -2.813  37.399  1.00  0.00     0.015 A 
ENDBRANCH  16  19
ENDBRANCH  11  15
ENDBRANCH   7   9
ENDBRANCH   3   7
BRANCH   5  22
HETATM   22  N   UNL     1      18.358  -2.982  36.408  1.00  0.00    -0.341 N 
HETATM   23  H   UNL     1      18.971  -3.788  36.314  1.00  0.00     0.167 HD
BRANCH  22  24
HETATM   24  C   UNL     1      17.524  -2.803  35.284  1.00  0.00     0.034 A 
HETATM   25  C   UNL     1      18.076  -2.432  34.058  1.00  0.00     0.045 A 
HETATM   26  C   UNL     1      17.251  -2.257  32.947  1.00  0.00     0.050 A 
HETATM   27  C   UNL     1      15.875  -2.454  33.062  1.00  0.00     0.016 A 
HETATM   28  C   UNL     1      15.323  -2.825  34.288  1.00  0.00     0.003 A 
HETATM   29  C   UNL     1      16.148  -3.000  35.399  1.00  0.00     0.029 A 
BRANCH  26  30
HETATM   30  C   UNL     1      17.841  -1.859  31.635  1.00  0.00     0.417 C 
HETATM   31  F   UNL     1      18.965  -2.559  31.305  1.00  0.00    -0.166 F 
HETATM   32  F   UNL     1      16.991  -2.031  30.580  1.00  0.00    -0.166 F 
HETATM   33  F   UNL     1      18.205  -0.543  31.601  1.00  0.00    -0.166 F 
ENDBRANCH  26  30
ENDBRANCH  22  24
ENDBRANCH   5  22
TORSDOF 7
ENDMDL
MODEL 6
REMARK VINA RESULT:      -6.9      4.055      8.218
REMARK  7 active torsions:
REMARK  status: ('A' for Active; 'I' for Inactive)
REMARK       I    between atoms: N_5  and  C_13 
REMARK    1  A    between atoms: N_5  and  C_14 
REMARK    2  A    between atoms: N_6  and  C_17 
REMARK    3  A    between atoms: N_6  and  C_20 
REMARK    4  A    between atoms: N_7  and  C_21 
REMARK    5  A    between atoms: N_7  and  C_23 
REMARK    6  A    between atoms: C_10  and  C_13 
REMARK    7  A    between atoms: C_24  and  C_29 
ROOT
HETATM    1  N   UNL     1      21.038   0.491  38.208  1.00  0.00    -0.224 NA
HETATM    2  N   UNL     1      21.475  -1.274  36.628  1.00  0.00    -0.224 NA
HETATM    3  C   UNL     1      19.719   0.257  38.048  1.00  0.00     0.133 A 
HETATM    4  C   UNL     1      19.208  -0.712  37.207  1.00  0.00     0.100 A 
HETATM    5  C   UNL     1      20.140  -1.460  36.510  1.00  0.00     0.133 A 
HETATM    6  C   UNL     1      21.848  -0.299  37.478  1.00  0.00     0.237 A 
ENDROOT
BRANCH   3   7
HETATM    7  N   UNL     1      18.792   1.043  38.776  1.00  0.00    -0.341 N 
HETATM    8  H   UNL     1      18.906   0.972  39.784  1.00  0.00     0.167 HD
BRANCH   7   9
HETATM    9  C   UNL     1      17.756   1.902  38.375  1.00  0.00     0.035 A 
HETATM   10  C   UNL     1      16.443   1.431  38.293  1.00  0.00     0.059 A 
HETATM   11  C   UNL     1      15.415   2.286  37.896  1.00  0.00     0.036 A 
HETATM   12  C   UNL     1      15.695   3.615  37.580  1.00  0.00     0.029 A 
HETATM   13  C   UNL     1      17.004   4.090  37.661  1.00  0.00     0.004 A 
HETATM   14  C   UNL     1      18.033   3.235  38.057  1.00  0.00     0.029 A 
BRANCH  11  15
HETATM   15  N   UNL     1      14.105   1.811  37.815  1.00  0.00    -0.327 N 
HETATM   16  C   UNL     1      13.668   0.558  37.380  1.00  0.00     0.226 C 
HETATM   17  O   UNL     1      14.349  -0.378  36.983  1.00  0.00    -0.273 OA
HETATM   18  H   UNL     1      13.386   2.470  38.107  1.00  0.00     0.169 HD
BRANCH  16  19
HETATM   19  C   UNL     1      12.181   0.386  37.426  1.00  0.00     0.078 A 
HETATM   20  C   UNL     1      11.368   1.445  38.082  1.00  0.00     0.015 A 
HETATM   21  C   UNL     1      11.544   0.110  38.743  1.00  0.00     0.015 A 
ENDBRANCH  16  19
ENDBRANCH  11  15
ENDBRANCH   7   9
ENDBRANCH   3   7
BRANCH   5  22
HETATM   22  N   UNL     1      19.660  -2.459  35.642  1.00  0.00    -0.341 N 
HETATM   23  H   UNL     1      20.238  -3.297  35.646  1.00  0.00     0.167 HD
BRANCH  22  24
HETATM   24  C   UNL     1      18.760  -2.430  34.557  1.00  0.00     0.034 A 
HETATM   25  C   UNL     1      17.385  -2.446  34.789  1.00  0.00     0.045 A 
HETATM   26  C   UNL     1      16.496  -2.415  33.716  1.00  0.00     0.050 A 
HETATM   27  C   UNL     1      16.981  -2.368  32.409  1.00  0.00     0.016 A 
HETATM   28  C   UNL     1      18.356  -2.352  32.176  1.00  0.00     0.003 A 
HETATM   29  C   UNL     1      19.246  -2.383  33.250  1.00  0.00     0.029 A 
BRANCH  26  30
HETATM   30  C   UNL     1      15.024  -2.433  33.964  1.00  0.00     0.417 C 
HETATM   31  F   UNL     1      14.300  -2.945  32.926  1.00  0.00    -0.166 F 
HETATM   32  F   UNL     1      14.663  -3.175  35.051  1.00  0.00    -0.166 F 
HETATM   33  F   UNL     1      14.514  -1.185  34.185  1.00  0.00    -0.166 F 
ENDBRANCH  26  30
ENDBRANCH  22  24
ENDBRANCH   5  22
TORSDOF 7
ENDMDL
MODEL 7
REMARK VINA RESULT:      -6.9      5.967      9.695
REMARK  7 active torsions:
REMARK  status: ('A' for Active; 'I' for Inactive)
REMARK       I    between atoms: N_5  and  C_13 
REMARK    1  A    between atoms: N_5  and  C_14 
REMARK    2  A    between atoms: N_6  and  C_17 
REMARK    3  A    between atoms: N_6  and  C_20 
REMARK    4  A    between atoms: N_7  and  C_21 
REMARK    5  A    between atoms: N_7  and  C_23 
REMARK    6  A    between atoms: C_10  and  C_13 
REMARK    7  A    between atoms: C_24  and  C_29 
ROOT
HETATM    1  N   UNL     1      21.664   1.461  37.080  1.00  0.00    -0.224 NA
HETATM    2  N   UNL     1      20.104  -0.360  37.323  1.00  0.00    -0.224 NA
HETATM    3  C   UNL     1      22.009   0.955  35.878  1.00  0.00     0.133 A 
HETATM    4  C   UNL     1      21.454  -0.188  35.338  1.00  0.00     0.100 A 
HETATM    5  C   UNL     1      20.494  -0.817  36.111  1.00  0.00     0.133 A 
HETATM    6  C   UNL     1      20.720   0.763  37.740  1.00  0.00     0.237 A 
ENDROOT
BRANCH   3   7
HETATM    7  N   UNL     1      22.996   1.624  35.114  1.00  0.00    -0.341 N 
HETATM    8  H   UNL     1      23.757   1.019  34.816  1.00  0.00     0.167 HD
BRANCH   7   9
HETATM    9  C   UNL     1      23.121   2.956  34.685  1.00  0.00     0.035 A 
HETATM   10  C   UNL     1      21.987   3.759  34.543  1.00  0.00     0.059 A 
HETATM   11  C   UNL     1      22.112   5.081  34.118  1.00  0.00     0.036 A 
HETATM   12  C   UNL     1      23.373   5.607  33.834  1.00  0.00     0.029 A 
HETATM   13  C   UNL     1      24.509   4.809  33.974  1.00  0.00     0.004 A 
HETATM   14  C   UNL     1      24.383   3.486  34.398  1.00  0.00     0.029 A 
BRANCH  11  15
HETATM   15  N   UNL     1      20.977   5.881  33.978  1.00  0.00    -0.327 N 
HETATM   16  C   UNL     1      20.100   6.313  34.976  1.00  0.00     0.226 C 
HETATM   17  O   UNL     1      20.153   6.077  36.175  1.00  0.00    -0.273 OA
HETATM   18  H   UNL     1      20.768   6.175  33.026  1.00  0.00     0.169 HD
BRANCH  16  19
HETATM   19  C   UNL     1      18.978   7.165  34.468  1.00  0.00     0.078 A 
HETATM   20  C   UNL     1      18.684   8.439  35.176  1.00  0.00     0.015 A 
HETATM   21  C   UNL     1      17.746   7.274  35.297  1.00  0.00     0.015 A 
ENDBRANCH  16  19
ENDBRANCH  11  15
ENDBRANCH   7   9
ENDBRANCH   3   7
BRANCH   5  22
HETATM   22  N   UNL     1      19.903  -1.987  35.596  1.00  0.00    -0.341 N 
HETATM   23  H   UNL     1      20.524  -2.792  35.631  1.00  0.00     0.167 HD
BRANCH  22  24
HETATM   24  C   UNL     1      18.782  -2.205  34.769  1.00  0.00     0.034 A 
HETATM   25  C   UNL     1      18.855  -1.923  33.405  1.00  0.00     0.045 A 
HETATM   26  C   UNL     1      17.747  -2.141  32.587  1.00  0.00     0.050 A 
HETATM   27  C   UNL     1      16.565  -2.641  33.133  1.00  0.00     0.016 A 
HETATM   28  C   UNL     1      16.491  -2.923  34.497  1.00  0.00     0.003 A 
HETATM   29  C   UNL     1      17.600  -2.705  35.315  1.00  0.00     0.029 A 
BRANCH  26  30
HETATM   30  C   UNL     1      17.824  -1.839  31.128  1.00  0.00     0.417 C 
HETATM   31  F   UNL     1      16.701  -2.189  30.436  1.00  0.00    -0.166 F 
HETATM   32  F   UNL     1      18.014  -0.515  30.854  1.00  0.00    -0.166 F 
HETATM   33  F   UNL     1      18.853  -2.492  30.511  1.00  0.00    -0.166 F 
ENDBRANCH  26  30
ENDBRANCH  22  24
ENDBRANCH   5  22
TORSDOF 7
ENDMDL
MODEL 8
REMARK VINA RESULT:      -6.9     17.691     19.823
REMARK  7 active torsions:
REMARK  status: ('A' for Active; 'I' for Inactive)
REMARK       I    between atoms: N_5  and  C_13 
REMARK    1  A    between atoms: N_5  and  C_14 
REMARK    2  A    between atoms: N_6  and  C_17 
REMARK    3  A    between atoms: N_6  and  C_20 
REMARK    4  A    between atoms: N_7  and  C_21 
REMARK    5  A    between atoms: N_7  and  C_23 
REMARK    6  A    between atoms: C_10  and  C_13 
REMARK    7  A    between atoms: C_24  and  C_29 
ROOT
HETATM    1  N   UNL     1      19.857  14.953  28.585  1.00  0.00    -0.224 NA
HETATM    2  N   UNL     1      21.528  13.577  27.526  1.00  0.00    -0.224 NA
HETATM    3  C   UNL     1      19.114  14.848  27.464  1.00  0.00     0.133 A 
HETATM    4  C   UNL     1      19.504  14.135  26.349  1.00  0.00     0.100 A 
HETATM    5  C   UNL     1      20.736  13.510  26.431  1.00  0.00     0.133 A 
HETATM    6  C   UNL     1      21.036  14.303  28.548  1.00  0.00     0.237 A 
ENDROOT
BRANCH   3   7
HETATM    7  N   UNL     1      17.858  15.501  27.414  1.00  0.00    -0.341 N 
HETATM    8  H   UNL     1      17.463  15.690  28.331  1.00  0.00     0.167 HD
BRANCH   7   9
HETATM    9  C   UNL     1      17.060  15.942  26.345  1.00  0.00     0.035 A 
HETATM   10  C   UNL     1      15.864  15.287  26.043  1.00  0.00     0.059 A 
HETATM   11  C   UNL     1      15.072  15.726  24.982  1.00  0.00     0.036 A 
HETATM   12  C   UNL     1      15.473  16.823  24.219  1.00  0.00     0.029 A 
HETATM   13  C   UNL     1      16.667  17.480  24.517  1.00  0.00     0.004 A 
HETATM   14  C   UNL     1      17.459  17.040  25.578  1.00  0.00     0.029 A 
BRANCH  11  15
HETATM   15  N   UNL     1      13.877  15.069  24.684  1.00  0.00    -0.327 N 
HETATM   16  C   UNL     1      12.572  15.517  24.898  1.00  0.00     0.226 C 
HETATM   17  O   UNL     1      12.214  16.579  25.391  1.00  0.00    -0.273 OA
HETATM   18  H   UNL     1      13.982  14.148  24.264  1.00  0.00     0.169 HD
BRANCH  16  19
HETATM   19  C   UNL     1      11.519  14.549  24.455  1.00  0.00     0.078 A 
HETATM   20  C   UNL     1      10.649  14.929  23.309  1.00  0.00     0.015 A 
HETATM   21  C   UNL     1      10.093  14.897  24.702  1.00  0.00     0.015 A 
ENDBRANCH  16  19
ENDBRANCH  11  15
ENDBRANCH   7   9
ENDBRANCH   3   7
BRANCH   5  22
HETATM   22  N   UNL     1      21.171  12.772  25.314  1.00  0.00    -0.341 N 
HETATM   23  H   UNL     1      21.623  11.897  25.571  1.00  0.00     0.167 HD
BRANCH  22  24
HETATM   24  C   UNL     1      21.401  13.123  23.968  1.00  0.00     0.034 A 
HETATM   25  C   UNL     1      21.544  12.128  23.001  1.00  0.00     0.045 A 
HETATM   26  C   UNL     1      21.769  12.476  21.669  1.00  0.00     0.050 A 
HETATM   27  C   UNL     1      21.852  13.820  21.305  1.00  0.00     0.016 A 
HETATM   28  C   UNL     1      21.709  14.815  22.271  1.00  0.00     0.003 A 
HETATM   29  C   UNL     1      21.484  14.467  23.603  1.00  0.00     0.029 A 
BRANCH  26  30
HETATM   30  C   UNL     1      21.921  11.412  20.635  1.00  0.00     0.417 C 
HETATM   31  F   UNL     1      23.208  10.983  20.476  1.00  0.00    -0.166 F 
HETATM   32  F   UNL     1      21.200  10.284  20.901  1.00  0.00    -0.166 F 
HETATM   33  F   UNL     1      21.517  11.822  19.396  1.00  0.00    -0.166 F 
ENDBRANCH  26  30
ENDBRANCH  22  24
ENDBRANCH   5  22
TORSDOF 7
ENDMDL
MODEL 9
REMARK VINA RESULT:      -6.9      4.111      8.070
REMARK  7 active torsions:
REMARK  status: ('A' for Active; 'I' for Inactive)
REMARK       I    between atoms: N_5  and  C_13 
REMARK    1  A    between atoms: N_5  and  C_14 
REMARK    2  A    between atoms: N_6  and  C_17 
REMARK    3  A    between atoms: N_6  and  C_20 
REMARK    4  A    between atoms: N_7  and  C_21 
REMARK    5  A    between atoms: N_7  and  C_23 
REMARK    6  A    between atoms: C_10  and  C_13 
REMARK    7  A    between atoms: C_24  and  C_29 
ROOT
HETATM    1  N   UNL     1      12.662   1.479  37.757  1.00  0.00    -0.224 NA
HETATM    2  N   UNL     1      12.621  -0.685  36.698  1.00  0.00    -0.224 NA
HETATM    3  C   UNL     1      13.987   1.315  37.956  1.00  0.00     0.133 A 
HETATM    4  C   UNL     1      14.689   0.195  37.559  1.00  0.00     0.100 A 
HETATM    5  C   UNL     1      13.950  -0.789  36.927  1.00  0.00     0.133 A 
HETATM    6  C   UNL     1      12.050   0.454  37.133  1.00  0.00     0.237 A 
ENDROOT
BRANCH   3   7
HETATM    7  N   UNL     1      14.711   2.343  38.607  1.00  0.00    -0.341 N 
HETATM    8  H   UNL     1      14.600   2.339  39.617  1.00  0.00     0.167 HD
BRANCH   7   9
HETATM    9  C   UNL     1      15.556   3.357  38.127  1.00  0.00     0.035 A 
HETATM   10  C   UNL     1      15.016   4.513  37.557  1.00  0.00     0.059 A 
HETATM   11  C   UNL     1      15.856   5.520  37.083  1.00  0.00     0.036 A 
HETATM   12  C   UNL     1      17.240   5.376  37.176  1.00  0.00     0.029 A 
HETATM   13  C   UNL     1      17.785   4.224  37.744  1.00  0.00     0.004 A 
HETATM   14  C   UNL     1      16.944   3.216  38.218  1.00  0.00     0.029 A 
BRANCH  11  15
HETATM   15  N   UNL     1      15.312   6.673  36.515  1.00  0.00    -0.327 N 
HETATM   16  C   UNL     1      15.657   7.284  35.308  1.00  0.00     0.226 C 
HETATM   17  O   UNL     1      16.508   6.928  34.503  1.00  0.00    -0.273 OA
HETATM   18  H   UNL     1      14.577   7.119  37.060  1.00  0.00     0.169 HD
BRANCH  16  19
HETATM   19  C   UNL     1      14.863   8.516  35.004  1.00  0.00     0.078 A 
HETATM   20  C   UNL     1      15.170   9.263  33.754  1.00  0.00     0.015 A 
HETATM   21  C   UNL     1      15.549   9.834  35.088  1.00  0.00     0.015 A 
ENDBRANCH  16  19
ENDBRANCH  11  15
ENDBRANCH   7   9
ENDBRANCH   3   7
BRANCH   5  22
HETATM   22  N   UNL     1      14.630  -1.949  36.505  1.00  0.00    -0.341 N 
HETATM   23  H   UNL     1      14.719  -2.644  37.243  1.00  0.00     0.167 HD
BRANCH  22  24
HETATM   24  C   UNL     1      15.474  -2.215  35.407  1.00  0.00     0.034 A 
HETATM   25  C   UNL     1      16.858  -2.238  35.579  1.00  0.00     0.045 A 
HETATM   26  C   UNL     1      17.691  -2.503  34.493  1.00  0.00     0.050 A 
HETATM   27  C   UNL     1      17.141  -2.744  33.234  1.00  0.00     0.016 A 
HETATM   28  C   UNL     1      15.757  -2.721  33.061  1.00  0.00     0.003 A 
HETATM   29  C   UNL     1      14.924  -2.456  34.148  1.00  0.00     0.029 A 
BRANCH  26  30
HETATM   30  C   UNL     1      19.172  -2.527  34.677  1.00  0.00     0.417 C 
HETATM   31  F   UNL     1      19.629  -3.660  35.287  1.00  0.00    -0.166 F 
HETATM   32  F   UNL     1      19.869  -2.448  33.505  1.00  0.00    -0.166 F 
HETATM   33  F   UNL     1      19.623  -1.490  35.442  1.00  0.00    -0.166 F 
ENDBRANCH  26  30
ENDBRANCH  22  24
ENDBRANCH   5  22
TORSDOF 7
ENDMDL
