MODEL 1
REMARK VINA RESULT:      -7.9      0.000      0.000
REMARK  7 active torsions:
REMARK  status: ('A' for Active; 'I' for Inactive)
REMARK       I    between atoms: N_5  and  C_13 
REMARK    1  A    between atoms: N_5  and  C_14 
REMARK    2  A    between atoms: N_6  and  C_17 
REMARK    3  A    between atoms: N_6  and  C_20 
REMARK    4  A    between atoms: N_7  and  C_21 
REMARK    5  A    between atoms: N_7  and  C_23 
REMARK    6  A    between atoms: C_10  and  C_13 
REMARK    7  A    between atoms: C_24  and  C_29 
ROOT
HETATM    1  N   UNL     1      21.599  12.629  26.726  1.00  0.00    -0.224 NA
HETATM    2  N   UNL     1      21.324  10.744  25.249  1.00  0.00    -0.224 NA
HETATM    3  C   UNL     1      20.325  12.981  26.452  1.00  0.00     0.133 A 
HETATM    4  C   UNL     1      19.500  12.275  25.601  1.00  0.00     0.100 A 
HETATM    5  C   UNL     1      20.054  11.150  25.016  1.00  0.00     0.133 A 
HETATM    6  C   UNL     1      22.028  11.517  26.098  1.00  0.00     0.237 A 
ENDROOT
BRANCH   3   7
HETATM    7  N   UNL     1      19.791  14.139  27.068  1.00  0.00    -0.341 N 
HETATM    8  H   UNL     1      19.197  14.688  26.451  1.00  0.00     0.167 HD
BRANCH   7   9
HETATM    9  C   UNL     1      19.918  14.669  28.362  1.00  0.00     0.035 A 
HETATM   10  C   UNL     1      20.481  15.934  28.553  1.00  0.00     0.059 A 
HETATM   11  C   UNL     1      20.605  16.460  29.839  1.00  0.00     0.036 A 
HETATM   12  C   UNL     1      20.166  15.723  30.940  1.00  0.00     0.029 A 
HETATM   13  C   UNL     1      19.603  14.461  30.754  1.00  0.00     0.004 A 
HETATM   14  C   UNL     1      19.480  13.935  29.468  1.00  0.00     0.029 A 
BRANCH  11  15
HETATM   15  N   UNL     1      21.167  17.724  30.025  1.00  0.00    -0.327 N 
HETATM   16  C   UNL     1      20.518  18.913  30.365  1.00  0.00     0.226 C 
HETATM   17  O   UNL     1      19.324  19.085  30.569  1.00  0.00    -0.273 OA
HETATM   18  H   UNL     1      22.174  17.775  29.888  1.00  0.00     0.169 HD
BRANCH  16  19
HETATM   19  C   UNL     1      21.436  20.090  30.483  1.00  0.00     0.078 A 
HETATM   20  C   UNL     1      21.544  20.770  31.802  1.00  0.00     0.015 A 
HETATM   21  C   UNL     1      20.832  21.439  30.664  1.00  0.00     0.015 A 
ENDBRANCH  16  19
ENDBRANCH  11  15
ENDBRANCH   7   9
ENDBRANCH   3   7
BRANCH   5  22
HETATM   22  N   UNL     1      19.245  10.401  24.141  1.00  0.00    -0.341 N 
HETATM   23  H   UNL     1      19.007  10.908  23.292  1.00  0.00     0.167 HD
BRANCH  22  24
HETATM   24  C   UNL     1      18.448   9.252  24.325  1.00  0.00     0.034 A 
HETATM   25  C   UNL     1      17.327   9.305  25.154  1.00  0.00     0.045 A 
HETATM   26  C   UNL     1      16.538   8.170  25.334  1.00  0.00     0.050 A 
HETATM   27  C   UNL     1      16.870   6.980  24.686  1.00  0.00     0.016 A 
HETATM   28  C   UNL     1      17.990   6.926  23.857  1.00  0.00     0.003 A 
HETATM   29  C   UNL     1      18.779   8.063  23.676  1.00  0.00     0.029 A 
BRANCH  26  30
HETATM   30  C   UNL     1      15.340   8.226  26.221  1.00  0.00     0.417 C 
HETATM   31  F   UNL     1      14.311   7.433  25.802  1.00  0.00    -0.166 F 
HETATM   32  F   UNL     1      15.592   7.835  27.505  1.00  0.00    -0.166 F 
HETATM   33  F   UNL     1      14.816   9.484  26.317  1.00  0.00    -0.166 F 
ENDBRANCH  26  30
ENDBRANCH  22  24
ENDBRANCH   5  22
TORSDOF 7
ENDMDL
MODEL 2
REMARK VINA RESULT:      -7.6      1.584      2.167
REMARK  7 active torsions:
REMARK  status: ('A' for Active; 'I' for Inactive)
REMARK       I    between atoms: N_5  and  C_13 
REMARK    1  A    between atoms: N_5  and  C_14 
REMARK    2  A    between atoms: N_6  and  C_17 
REMARK    3  A    between atoms: N_6  and  C_20 
REMARK    4  A    between atoms: N_7  and  C_21 
REMARK    5  A    between atoms: N_7  and  C_23 
REMARK    6  A    between atoms: C_10  and  C_13 
REMARK    7  A    between atoms: C_24  and  C_29 
ROOT
HETATM    1  N   UNL     1      21.851  12.925  26.657  1.00  0.00    -0.224 NA
HETATM    2  N   UNL     1      20.732  11.131  25.502  1.00  0.00    -0.224 NA
HETATM    3  C   UNL     1      20.666  13.567  26.730  1.00  0.00     0.133 A 
HETATM    4  C   UNL     1      19.487  13.061  26.220  1.00  0.00     0.100 A 
HETATM    5  C   UNL     1      19.575  11.824  25.608  1.00  0.00     0.133 A 
HETATM    6  C   UNL     1      21.812  11.730  26.038  1.00  0.00     0.237 A 
ENDROOT
BRANCH   3   7
HETATM    7  N   UNL     1      20.613  14.832  27.364  1.00  0.00    -0.341 N 
HETATM    8  H   UNL     1      20.734  15.611  26.723  1.00  0.00     0.167 HD
BRANCH   7   9
HETATM    9  C   UNL     1      20.420  15.215  28.702  1.00  0.00     0.035 A 
HETATM   10  C   UNL     1      20.587  16.549  29.083  1.00  0.00     0.059 A 
HETATM   11  C   UNL     1      20.394  16.929  30.411  1.00  0.00     0.036 A 
HETATM   12  C   UNL     1      20.032  15.976  31.364  1.00  0.00     0.029 A 
HETATM   13  C   UNL     1      19.863  14.643  30.988  1.00  0.00     0.004 A 
HETATM   14  C   UNL     1      20.058  14.264  29.659  1.00  0.00     0.029 A 
BRANCH  11  15
HETATM   15  N   UNL     1      20.561  18.262  30.788  1.00  0.00    -0.327 N 
HETATM   16  C   UNL     1      19.575  19.232  30.982  1.00  0.00     0.226 C 
HETATM   17  O   UNL     1      18.364  19.106  30.861  1.00  0.00    -0.273 OA
HETATM   18  H   UNL     1      21.525  18.555  30.931  1.00  0.00     0.169 HD
BRANCH  16  19
HETATM   19  C   UNL     1      20.113  20.569  31.387  1.00  0.00     0.078 A 
HETATM   20  C   UNL     1      20.925  21.331  30.400  1.00  0.00     0.015 A 
HETATM   21  C   UNL     1      21.581  20.704  31.595  1.00  0.00     0.015 A 
ENDBRANCH  16  19
ENDBRANCH  11  15
ENDBRANCH   7   9
ENDBRANCH   3   7
BRANCH   5  22
HETATM   22  N   UNL     1      18.394  11.273  25.074  1.00  0.00    -0.341 N 
HETATM   23  H   UNL     1      17.835  11.953  24.565  1.00  0.00     0.167 HD
BRANCH  22  24
HETATM   24  C   UNL     1      17.678  10.092  25.360  1.00  0.00     0.034 A 
HETATM   25  C   UNL     1      18.044   8.889  24.756  1.00  0.00     0.045 A 
HETATM   26  C   UNL     1      17.337   7.722  25.040  1.00  0.00     0.050 A 
HETATM   27  C   UNL     1      16.262   7.756  25.929  1.00  0.00     0.016 A 
HETATM   28  C   UNL     1      15.895   8.959  26.533  1.00  0.00     0.003 A 
HETATM   29  C   UNL     1      16.603  10.126  26.249  1.00  0.00     0.029 A 
BRANCH  26  30
HETATM   30  C   UNL     1      17.728   6.435  24.394  1.00  0.00     0.417 C 
HETATM   31  F   UNL     1      16.756   5.477  24.448  1.00  0.00    -0.166 F 
HETATM   32  F   UNL     1      18.033   6.560  23.069  1.00  0.00    -0.166 F 
HETATM   33  F   UNL     1      18.830   5.871  24.972  1.00  0.00    -0.166 F 
ENDBRANCH  26  30
ENDBRANCH  22  24
ENDBRANCH   5  22
TORSDOF 7
ENDMDL
MODEL 3
REMARK VINA RESULT:      -7.5      4.977     10.203
REMARK  7 active torsions:
REMARK  status: ('A' for Active; 'I' for Inactive)
REMARK       I    between atoms: N_5  and  C_13 
REMARK    1  A    between atoms: N_5  and  C_14 
REMARK    2  A    between atoms: N_6  and  C_17 
REMARK    3  A    between atoms: N_6  and  C_20 
REMARK    4  A    between atoms: N_7  and  C_21 
REMARK    5  A    between atoms: N_7  and  C_23 
REMARK    6  A    between atoms: C_10  and  C_13 
REMARK    7  A    between atoms: C_24  and  C_29 
ROOT
HETATM    1  N   UNL     1      20.850  11.814  25.745  1.00  0.00    -0.224 NA
HETATM    2  N   UNL     1      20.990  14.162  26.268  1.00  0.00    -0.224 NA
HETATM    3  C   UNL     1      19.804  11.726  26.593  1.00  0.00     0.133 A 
HETATM    4  C   UNL     1      19.300  12.796  27.304  1.00  0.00     0.100 A 
HETATM    5  C   UNL     1      19.937  14.008  27.104  1.00  0.00     0.133 A 
HETATM    6  C   UNL     1      21.388  13.044  25.633  1.00  0.00     0.237 A 
ENDROOT
BRANCH   3   7
HETATM    7  N   UNL     1      19.177  10.469  26.774  1.00  0.00    -0.341 N 
HETATM    8  H   UNL     1      19.378  10.042  27.674  1.00  0.00     0.167 HD
BRANCH   7   9
HETATM    9  C   UNL     1      18.328   9.706  25.954  1.00  0.00     0.035 A 
HETATM   10  C   UNL     1      16.941   9.833  26.065  1.00  0.00     0.059 A 
HETATM   11  C   UNL     1      16.100   9.077  25.250  1.00  0.00     0.036 A 
HETATM   12  C   UNL     1      16.642   8.189  24.320  1.00  0.00     0.029 A 
HETATM   13  C   UNL     1      18.026   8.059  24.205  1.00  0.00     0.004 A 
HETATM   14  C   UNL     1      18.867   8.815  25.022  1.00  0.00     0.029 A 
BRANCH  11  15
HETATM   15  N   UNL     1      14.715   9.208  25.363  1.00  0.00    -0.327 N 
HETATM   16  C   UNL     1      13.883   8.720  26.374  1.00  0.00     0.226 C 
HETATM   17  O   UNL     1      14.205   8.079  27.366  1.00  0.00    -0.273 OA
HETATM   18  H   UNL     1      14.264   9.719  24.607  1.00  0.00     0.169 HD
BRANCH  16  19
HETATM   19  C   UNL     1      12.436   9.047  26.178  1.00  0.00     0.078 A 
HETATM   20  C   UNL     1      11.475   8.667  27.248  1.00  0.00     0.015 A 
HETATM   21  C   UNL     1      11.486   7.925  25.945  1.00  0.00     0.015 A 
ENDBRANCH  16  19
ENDBRANCH  11  15
ENDBRANCH   7   9
ENDBRANCH   3   7
BRANCH   5  22
HETATM   22  N   UNL     1      19.453  15.126  27.811  1.00  0.00    -0.341 N 
HETATM   23  H   UNL     1      18.971  15.793  27.212  1.00  0.00     0.167 HD
BRANCH  22  24
HETATM   24  C   UNL     1      19.764  15.663  29.077  1.00  0.00     0.034 A 
HETATM   25  C   UNL     1      20.066  17.019  29.206  1.00  0.00     0.045 A 
HETATM   26  C   UNL     1      20.372  17.549  30.459  1.00  0.00     0.050 A 
HETATM   27  C   UNL     1      20.377  16.723  31.583  1.00  0.00     0.016 A 
HETATM   28  C   UNL     1      20.075  15.368  31.455  1.00  0.00     0.003 A 
HETATM   29  C   UNL     1      19.769  14.838  30.202  1.00  0.00     0.029 A 
BRANCH  26  30
HETATM   30  C   UNL     1      20.696  18.999  30.597  1.00  0.00     0.417 C 
HETATM   31  F   UNL     1      21.491  19.283  31.670  1.00  0.00    -0.166 F 
HETATM   32  F   UNL     1      21.354  19.516  29.519  1.00  0.00    -0.166 F 
HETATM   33  F   UNL     1      19.581  19.773  30.752  1.00  0.00    -0.166 F 
ENDBRANCH  26  30
ENDBRANCH  22  24
ENDBRANCH   5  22
TORSDOF 7
ENDMDL
MODEL 4
REMARK VINA RESULT:      -7.5     13.634     18.005
REMARK  7 active torsions:
REMARK  status: ('A' for Active; 'I' for Inactive)
REMARK       I    between atoms: N_5  and  C_13 
REMARK    1  A    between atoms: N_5  and  C_14 
REMARK    2  A    between atoms: N_6  and  C_17 
REMARK    3  A    between atoms: N_6  and  C_20 
REMARK    4  A    between atoms: N_7  and  C_21 
REMARK    5  A    between atoms: N_7  and  C_23 
REMARK    6  A    between atoms: C_10  and  C_13 
REMARK    7  A    between atoms: C_24  and  C_29 
ROOT
HETATM    1  N   UNL     1      30.856  20.305  27.839  1.00  0.00    -0.224 NA
HETATM    2  N   UNL     1      32.044  21.897  26.476  1.00  0.00    -0.224 NA
HETATM    3  C   UNL     1      31.874  20.358  28.723  1.00  0.00     0.133 A 
HETATM    4  C   UNL     1      32.994  21.145  28.555  1.00  0.00     0.100 A 
HETATM    5  C   UNL     1      33.032  21.906  27.401  1.00  0.00     0.133 A 
HETATM    6  C   UNL     1      31.005  21.088  26.753  1.00  0.00     0.237 A 
ENDROOT
BRANCH   3   7
HETATM    7  N   UNL     1      31.802  19.565  29.894  1.00  0.00    -0.341 N 
HETATM    8  H   UNL     1      32.702  19.426  30.344  1.00  0.00     0.167 HD
BRANCH   7   9
HETATM    9  C   UNL     1      30.729  18.943  30.554  1.00  0.00     0.035 A 
HETATM   10  C   UNL     1      30.621  17.549  30.564  1.00  0.00     0.059 A 
HETATM   11  C   UNL     1      29.556  16.933  31.220  1.00  0.00     0.036 A 
HETATM   12  C   UNL     1      28.594  17.707  31.869  1.00  0.00     0.029 A 
HETATM   13  C   UNL     1      28.698  19.098  31.863  1.00  0.00     0.004 A 
HETATM   14  C   UNL     1      29.763  19.714  31.205  1.00  0.00     0.029 A 
BRANCH  11  15
HETATM   15  N   UNL     1      29.453  15.541  31.228  1.00  0.00    -0.327 N 
HETATM   16  C   UNL     1      29.316  14.681  30.136  1.00  0.00     0.226 C 
HETATM   17  O   UNL     1      29.260  14.978  28.949  1.00  0.00    -0.273 OA
HETATM   18  H   UNL     1      29.475  15.110  32.149  1.00  0.00     0.169 HD
BRANCH  16  19
HETATM   19  C   UNL     1      29.233  13.234  30.511  1.00  0.00     0.078 A 
HETATM   20  C   UNL     1      28.906  12.889  31.920  1.00  0.00     0.015 A 
HETATM   21  C   UNL     1      30.293  12.674  31.392  1.00  0.00     0.015 A 
ENDBRANCH  16  19
ENDBRANCH  11  15
ENDBRANCH   7   9
ENDBRANCH   3   7
BRANCH   5  22
HETATM   22  N   UNL     1      34.159  22.724  27.192  1.00  0.00    -0.341 N 
HETATM   23  H   UNL     1      35.017  22.191  27.069  1.00  0.00     0.167 HD
BRANCH  22  24
HETATM   24  C   UNL     1      34.403  24.092  27.433  1.00  0.00     0.034 A 
HETATM   25  C   UNL     1      34.165  24.633  28.697  1.00  0.00     0.045 A 
HETATM   26  C   UNL     1      34.408  25.985  28.934  1.00  0.00     0.050 A 
HETATM   27  C   UNL     1      34.890  26.798  27.908  1.00  0.00     0.016 A 
HETATM   28  C   UNL     1      35.129  26.258  26.644  1.00  0.00     0.003 A 
HETATM   29  C   UNL     1      34.886  24.905  26.407  1.00  0.00     0.029 A 
BRANCH  26  30
HETATM   30  C   UNL     1      34.153  26.563  30.286  1.00  0.00     0.417 C 
HETATM   31  F   UNL     1      32.921  27.139  30.411  1.00  0.00    -0.166 F 
HETATM   32  F   UNL     1      34.221  25.646  31.294  1.00  0.00    -0.166 F 
HETATM   33  F   UNL     1      35.048  27.540  30.617  1.00  0.00    -0.166 F 
ENDBRANCH  26  30
ENDBRANCH  22  24
ENDBRANCH   5  22
TORSDOF 7
ENDMDL
MODEL 5
REMARK VINA RESULT:      -7.4      2.855      4.565
REMARK  7 active torsions:
REMARK  status: ('A' for Active; 'I' for Inactive)
REMARK       I    between atoms: N_5  and  C_13 
REMARK    1  A    between atoms: N_5  and  C_14 
REMARK    2  A    between atoms: N_6  and  C_17 
REMARK    3  A    between atoms: N_6  and  C_20 
REMARK    4  A    between atoms: N_7  and  C_21 
REMARK    5  A    between atoms: N_7  and  C_23 
REMARK    6  A    between atoms: C_10  and  C_13 
REMARK    7  A    between atoms: C_24  and  C_29 
ROOT
HETATM    1  N   UNL     1      18.693   9.727  25.172  1.00  0.00    -0.224 NA
HETATM    2  N   UNL     1      17.004   8.052  25.560  1.00  0.00    -0.224 NA
HETATM    3  C   UNL     1      18.067  10.513  26.072  1.00  0.00     0.133 A 
HETATM    4  C   UNL     1      16.922  10.143  26.748  1.00  0.00     0.100 A 
HETATM    5  C   UNL     1      16.423   8.887  26.452  1.00  0.00     0.133 A 
HETATM    6  C   UNL     1      18.115   8.527  24.966  1.00  0.00     0.237 A 
ENDROOT
BRANCH   3   7
HETATM    7  N   UNL     1      18.605  11.793  26.350  1.00  0.00    -0.341 N 
HETATM    8  H   UNL     1      18.078  12.554  25.930  1.00  0.00     0.167 HD
BRANCH   7   9
HETATM    9  C   UNL     1      19.718  12.212  27.098  1.00  0.00     0.035 A 
HETATM   10  C   UNL     1      19.550  13.061  28.195  1.00  0.00     0.059 A 
HETATM   11  C   UNL     1      20.655  13.475  28.938  1.00  0.00     0.036 A 
HETATM   12  C   UNL     1      21.934  13.042  28.586  1.00  0.00     0.029 A 
HETATM   13  C   UNL     1      22.107  12.195  27.492  1.00  0.00     0.004 A 
HETATM   14  C   UNL     1      21.001  11.781  26.749  1.00  0.00     0.029 A 
BRANCH  11  15
HETATM   15  N   UNL     1      20.483  14.322  30.034  1.00  0.00    -0.327 N 
HETATM   16  C   UNL     1      20.101  15.666  30.032  1.00  0.00     0.226 C 
HETATM   17  O   UNL     1      19.841  16.370  29.066  1.00  0.00    -0.273 OA
HETATM   18  H   UNL     1      20.665  13.899  30.941  1.00  0.00     0.169 HD
BRANCH  16  19
HETATM   19  C   UNL     1      20.014  16.272  31.398  1.00  0.00     0.078 A 
HETATM   20  C   UNL     1      19.037  17.371  31.620  1.00  0.00     0.015 A 
HETATM   21  C   UNL     1      20.508  17.663  31.584  1.00  0.00     0.015 A 
ENDBRANCH  16  19
ENDBRANCH  11  15
ENDBRANCH   7   9
ENDBRANCH   3   7
BRANCH   5  22
HETATM   22  N   UNL     1      15.256   8.472  27.121  1.00  0.00    -0.341 N 
HETATM   23  H   UNL     1      15.427   7.718  27.782  1.00  0.00     0.167 HD
BRANCH  22  24
HETATM   24  C   UNL     1      13.884   8.648  26.845  1.00  0.00     0.034 A 
HETATM   25  C   UNL     1      13.483   9.294  25.676  1.00  0.00     0.045 A 
HETATM   26  C   UNL     1      12.127   9.466  25.404  1.00  0.00     0.050 A 
HETATM   27  C   UNL     1      11.170   8.993  26.301  1.00  0.00     0.016 A 
HETATM   28  C   UNL     1      11.569   8.347  27.471  1.00  0.00     0.003 A 
HETATM   29  C   UNL     1      12.927   8.174  27.743  1.00  0.00     0.029 A 
BRANCH  26  30
HETATM   30  C   UNL     1      11.698  10.158  24.153  1.00  0.00     0.417 C 
HETATM   31  F   UNL     1      12.699  10.301  23.236  1.00  0.00    -0.166 F 
HETATM   32  F   UNL     1      10.695   9.512  23.488  1.00  0.00    -0.166 F 
HETATM   33  F   UNL     1      11.230  11.420  24.385  1.00  0.00    -0.166 F 
ENDBRANCH  26  30
ENDBRANCH  22  24
ENDBRANCH   5  22
TORSDOF 7
ENDMDL
MODEL 6
REMARK VINA RESULT:      -7.4      2.447      3.047
REMARK  7 active torsions:
REMARK  status: ('A' for Active; 'I' for Inactive)
REMARK       I    between atoms: N_5  and  C_13 
REMARK    1  A    between atoms: N_5  and  C_14 
REMARK    2  A    between atoms: N_6  and  C_17 
REMARK    3  A    between atoms: N_6  and  C_20 
REMARK    4  A    between atoms: N_7  and  C_21 
REMARK    5  A    between atoms: N_7  and  C_23 
REMARK    6  A    between atoms: C_10  and  C_13 
REMARK    7  A    between atoms: C_24  and  C_29 
ROOT
HETATM    1  N   UNL     1      17.905  14.692  25.655  1.00  0.00    -0.224 NA
HETATM    2  N   UNL     1      16.346  12.876  25.381  1.00  0.00    -0.224 NA
HETATM    3  C   UNL     1      18.479  13.999  26.660  1.00  0.00     0.133 A 
HETATM    4  C   UNL     1      18.050  12.755  27.076  1.00  0.00     0.100 A 
HETATM    5  C   UNL     1      16.965  12.230  26.397  1.00  0.00     0.133 A 
HETATM    6  C   UNL     1      16.858  14.081  25.069  1.00  0.00     0.237 A 
ENDROOT
BRANCH   3   7
HETATM    7  N   UNL     1      19.588  14.566  27.335  1.00  0.00    -0.341 N 
HETATM    8  H   UNL     1      20.402  14.692  26.741  1.00  0.00     0.167 HD
BRANCH   7   9
HETATM    9  C   UNL     1      19.773  14.993  28.660  1.00  0.00     0.035 A 
HETATM   10  C   UNL     1      20.041  16.336  28.937  1.00  0.00     0.059 A 
HETATM   11  C   UNL     1      20.223  16.759  30.253  1.00  0.00     0.036 A 
HETATM   12  C   UNL     1      20.139  15.840  31.299  1.00  0.00     0.029 A 
HETATM   13  C   UNL     1      19.872  14.498  31.029  1.00  0.00     0.004 A 
HETATM   14  C   UNL     1      19.690  14.075  29.712  1.00  0.00     0.029 A 
BRANCH  11  15
HETATM   15  N   UNL     1      20.490  18.102  30.525  1.00  0.00    -0.327 N 
HETATM   16  C   UNL     1      19.583  19.107  30.870  1.00  0.00     0.226 C 
HETATM   17  O   UNL     1      18.371  19.009  31.005  1.00  0.00    -0.273 OA
HETATM   18  H   UNL     1      21.468  18.373  30.454  1.00  0.00     0.169 HD
BRANCH  16  19
HETATM   19  C   UNL     1      20.218  20.444  31.093  1.00  0.00     0.078 A 
HETATM   20  C   UNL     1      20.781  21.162  29.919  1.00  0.00     0.015 A 
HETATM   21  C   UNL     1      21.695  20.557  30.943  1.00  0.00     0.015 A 
ENDBRANCH  16  19
ENDBRANCH  11  15
ENDBRANCH   7   9
ENDBRANCH   3   7
BRANCH   5  22
HETATM   22  N   UNL     1      16.496  10.963  26.791  1.00  0.00    -0.341 N 
HETATM   23  H   UNL     1      16.318  10.901  27.791  1.00  0.00     0.167 HD
BRANCH  22  24
HETATM   24  C   UNL     1      16.526   9.697  26.169  1.00  0.00     0.034 A 
HETATM   25  C   UNL     1      17.720   9.209  25.637  1.00  0.00     0.045 A 
HETATM   26  C   UNL     1      17.749   7.957  25.024  1.00  0.00     0.050 A 
HETATM   27  C   UNL     1      16.584   7.193  24.941  1.00  0.00     0.016 A 
HETATM   28  C   UNL     1      15.391   7.681  25.472  1.00  0.00     0.003 A 
HETATM   29  C   UNL     1      15.362   8.934  26.086  1.00  0.00     0.029 A 
BRANCH  26  30
HETATM   30  C   UNL     1      19.025   7.434  24.455  1.00  0.00     0.417 C 
HETATM   31  F   UNL     1      20.119   8.182  24.785  1.00  0.00    -0.166 F 
HETATM   32  F   UNL     1      19.325   6.165  24.861  1.00  0.00    -0.166 F 
HETATM   33  F   UNL     1      19.012   7.388  23.090  1.00  0.00    -0.166 F 
ENDBRANCH  26  30
ENDBRANCH  22  24
ENDBRANCH   5  22
TORSDOF 7
ENDMDL
MODEL 7
REMARK VINA RESULT:      -7.4     12.992     15.334
REMARK  7 active torsions:
REMARK  status: ('A' for Active; 'I' for Inactive)
REMARK       I    between atoms: N_5  and  C_13 
REMARK    1  A    between atoms: N_5  and  C_14 
REMARK    2  A    between atoms: N_6  and  C_17 
REMARK    3  A    between atoms: N_6  and  C_20 
REMARK    4  A    between atoms: N_7  and  C_21 
REMARK    5  A    between atoms: N_7  and  C_23 
REMARK    6  A    between atoms: C_10  and  C_13 
REMARK    7  A    between atoms: C_24  and  C_29 
ROOT
HETATM    1  N   UNL     1      28.645  22.583  27.641  1.00  0.00    -0.224 NA
HETATM    2  N   UNL     1      27.119  24.261  26.826  1.00  0.00    -0.224 NA
HETATM    3  C   UNL     1      28.648  22.040  26.406  1.00  0.00     0.133 A 
HETATM    4  C   UNL     1      27.924  22.544  25.344  1.00  0.00     0.100 A 
HETATM    5  C   UNL     1      27.165  23.670  25.610  1.00  0.00     0.133 A 
HETATM    6  C   UNL     1      27.869  23.675  27.779  1.00  0.00     0.237 A 
ENDROOT
BRANCH   3   7
HETATM    7  N   UNL     1      29.436  20.887  26.169  1.00  0.00    -0.341 N 
HETATM    8  H   UNL     1      28.919  20.125  25.739  1.00  0.00     0.167 HD
BRANCH   7   9
HETATM    9  C   UNL     1      30.790  20.599  26.408  1.00  0.00     0.035 A 
HETATM   10  C   UNL     1      31.717  21.635  26.545  1.00  0.00     0.059 A 
HETATM   11  C   UNL     1      33.060  21.348  26.784  1.00  0.00     0.036 A 
HETATM   12  C   UNL     1      33.483  20.022  26.885  1.00  0.00     0.029 A 
HETATM   13  C   UNL     1      32.562  18.984  26.749  1.00  0.00     0.004 A 
HETATM   14  C   UNL     1      31.218  19.272  26.510  1.00  0.00     0.029 A 
BRANCH  11  15
HETATM   15  N   UNL     1      33.983  22.386  26.921  1.00  0.00    -0.327 N 
HETATM   16  C   UNL     1      34.150  23.252  28.005  1.00  0.00     0.226 C 
HETATM   17  O   UNL     1      33.519  23.272  29.053  1.00  0.00    -0.273 OA
HETATM   18  H   UNL     1      34.602  22.525  26.125  1.00  0.00     0.169 HD
BRANCH  16  19
HETATM   19  C   UNL     1      35.243  24.256  27.814  1.00  0.00     0.078 A 
HETATM   20  C   UNL     1      34.883  25.700  27.809  1.00  0.00     0.015 A 
HETATM   21  C   UNL     1      35.286  25.017  26.536  1.00  0.00     0.015 A 
ENDBRANCH  16  19
ENDBRANCH  11  15
ENDBRANCH   7   9
ENDBRANCH   3   7
BRANCH   5  22
HETATM   22  N   UNL     1      26.411  24.216  24.554  1.00  0.00    -0.341 N 
HETATM   23  H   UNL     1      26.726  25.144  24.282  1.00  0.00     0.167 HD
BRANCH  22  24
HETATM   24  C   UNL     1      25.144  23.898  24.022  1.00  0.00     0.034 A 
HETATM   25  C   UNL     1      24.215  24.910  23.778  1.00  0.00     0.045 A 
HETATM   26  C   UNL     1      22.963  24.596  23.251  1.00  0.00     0.050 A 
HETATM   27  C   UNL     1      22.639  23.269  22.966  1.00  0.00     0.016 A 
HETATM   28  C   UNL     1      23.567  22.257  23.210  1.00  0.00     0.003 A 
HETATM   29  C   UNL     1      24.820  22.572  23.737  1.00  0.00     0.029 A 
BRANCH  26  30
HETATM   30  C   UNL     1      21.969  25.678  22.991  1.00  0.00     0.417 C 
HETATM   31  F   UNL     1      22.098  26.752  23.824  1.00  0.00    -0.166 F 
HETATM   32  F   UNL     1      22.043  26.195  21.729  1.00  0.00    -0.166 F 
HETATM   33  F   UNL     1      20.680  25.253  23.137  1.00  0.00    -0.166 F 
ENDBRANCH  26  30
ENDBRANCH  22  24
ENDBRANCH   5  22
TORSDOF 7
ENDMDL
MODEL 8
REMARK VINA RESULT:      -7.2      4.771      9.318
REMARK  7 active torsions:
REMARK  status: ('A' for Active; 'I' for Inactive)
REMARK       I    between atoms: N_5  and  C_13 
REMARK    1  A    between atoms: N_5  and  C_14 
REMARK    2  A    between atoms: N_6  and  C_17 
REMARK    3  A    between atoms: N_6  and  C_20 
REMARK    4  A    between atoms: N_7  and  C_21 
REMARK    5  A    between atoms: N_7  and  C_23 
REMARK    6  A    between atoms: C_10  and  C_13 
REMARK    7  A    between atoms: C_24  and  C_29 
ROOT
HETATM    1  N   UNL     1      15.389  10.829  24.564  1.00  0.00    -0.224 NA
HETATM    2  N   UNL     1      15.979  13.002  25.423  1.00  0.00    -0.224 NA
HETATM    3  C   UNL     1      16.103  10.280  25.568  1.00  0.00     0.133 A 
HETATM    4  C   UNL     1      16.773  11.015  26.524  1.00  0.00     0.100 A 
HETATM    5  C   UNL     1      16.679  12.390  26.406  1.00  0.00     0.133 A 
HETATM    6  C   UNL     1      15.370  12.176  24.551  1.00  0.00     0.237 A 
ENDROOT
BRANCH   3   7
HETATM    7  N   UNL     1      16.179   8.868  25.658  1.00  0.00    -0.341 N 
HETATM    8  H   UNL     1      15.505   8.467  26.304  1.00  0.00     0.167 HD
BRANCH   7   9
HETATM    9  C   UNL     1      16.999   7.920  25.024  1.00  0.00     0.035 A 
HETATM   10  C   UNL     1      18.380   8.123  24.947  1.00  0.00     0.059 A 
HETATM   11  C   UNL     1      19.193   7.181  24.319  1.00  0.00     0.036 A 
HETATM   12  C   UNL     1      18.630   6.031  23.764  1.00  0.00     0.029 A 
HETATM   13  C   UNL     1      17.253   5.824  23.839  1.00  0.00     0.004 A 
HETATM   14  C   UNL     1      16.439   6.768  24.466  1.00  0.00     0.029 A 
BRANCH  11  15
HETATM   15  N   UNL     1      20.572   7.386  24.245  1.00  0.00    -0.327 N 
HETATM   16  C   UNL     1      21.587   6.645  24.854  1.00  0.00     0.226 C 
HETATM   17  O   UNL     1      21.470   5.662  25.574  1.00  0.00    -0.273 OA
HETATM   18  H   UNL     1      20.862   8.182  23.680  1.00  0.00     0.169 HD
BRANCH  16  19
HETATM   19  C   UNL     1      22.965   7.149  24.558  1.00  0.00     0.078 A 
HETATM   20  C   UNL     1      23.562   8.153  25.480  1.00  0.00     0.015 A 
HETATM   21  C   UNL     1      23.118   8.558  24.105  1.00  0.00     0.015 A 
ENDBRANCH  16  19
ENDBRANCH  11  15
ENDBRANCH   7   9
ENDBRANCH   3   7
BRANCH   5  22
HETATM   22  N   UNL     1      17.348  13.178  27.362  1.00  0.00    -0.341 N 
HETATM   23  H   UNL     1      16.849  14.035  27.587  1.00  0.00     0.167 HD
BRANCH  22  24
HETATM   24  C   UNL     1      18.681  13.192  27.824  1.00  0.00     0.034 A 
HETATM   25  C   UNL     1      19.673  12.516  27.113  1.00  0.00     0.045 A 
HETATM   26  C   UNL     1      20.991  12.533  27.569  1.00  0.00     0.050 A 
HETATM   27  C   UNL     1      21.317  13.224  28.736  1.00  0.00     0.016 A 
HETATM   28  C   UNL     1      20.325  13.899  29.447  1.00  0.00     0.003 A 
HETATM   29  C   UNL     1      19.007  13.883  28.990  1.00  0.00     0.029 A 
BRANCH  26  30
HETATM   30  C   UNL     1      22.053  11.810  26.809  1.00  0.00     0.417 C 
HETATM   31  F   UNL     1      22.793  12.621  25.998  1.00  0.00    -0.166 F 
HETATM   32  F   UNL     1      22.963  11.180  27.609  1.00  0.00    -0.166 F 
HETATM   33  F   UNL     1      21.546  10.839  25.994  1.00  0.00    -0.166 F 
ENDBRANCH  26  30
ENDBRANCH  22  24
ENDBRANCH   5  22
TORSDOF 7
ENDMDL
MODEL 9
REMARK VINA RESULT:      -7.1      1.921      2.335
REMARK  7 active torsions:
REMARK  status: ('A' for Active; 'I' for Inactive)
REMARK       I    between atoms: N_5  and  C_13 
REMARK    1  A    between atoms: N_5  and  C_14 
REMARK    2  A    between atoms: N_6  and  C_17 
REMARK    3  A    between atoms: N_6  and  C_20 
REMARK    4  A    between atoms: N_7  and  C_21 
REMARK    5  A    between atoms: N_7  and  C_23 
REMARK    6  A    between atoms: C_10  and  C_13 
REMARK    7  A    between atoms: C_24  and  C_29 
ROOT
HETATM    1  N   UNL     1      22.131  12.381  26.668  1.00  0.00    -0.224 NA
HETATM    2  N   UNL     1      21.204  11.449  24.649  1.00  0.00    -0.224 NA
HETATM    3  C   UNL     1      20.917  12.250  27.242  1.00  0.00     0.133 A 
HETATM    4  C   UNL     1      19.814  11.734  26.593  1.00  0.00     0.100 A 
HETATM    5  C   UNL     1      20.012  11.343  25.281  1.00  0.00     0.133 A 
HETATM    6  C   UNL     1      22.202  11.968  25.388  1.00  0.00     0.237 A 
ENDROOT
BRANCH   3   7
HETATM    7  N   UNL     1      20.749  12.661  28.587  1.00  0.00    -0.341 N 
HETATM    8  H   UNL     1      20.888  11.912  29.259  1.00  0.00     0.167 HD
BRANCH   7   9
HETATM    9  C   UNL     1      20.437  13.902  29.167  1.00  0.00     0.035 A 
HETATM   10  C   UNL     1      20.370  15.052  28.376  1.00  0.00     0.059 A 
HETATM   11  C   UNL     1      20.059  16.283  28.953  1.00  0.00     0.036 A 
HETATM   12  C   UNL     1      19.812  16.369  30.324  1.00  0.00     0.029 A 
HETATM   13  C   UNL     1      19.876  15.224  31.117  1.00  0.00     0.004 A 
HETATM   14  C   UNL     1      20.189  13.993  30.540  1.00  0.00     0.029 A 
BRANCH  11  15
HETATM   15  N   UNL     1      19.992  17.429  28.159  1.00  0.00    -0.327 N 
HETATM   16  C   UNL     1      18.962  17.826  27.304  1.00  0.00     0.226 C 
HETATM   17  O   UNL     1      17.908  17.246  27.080  1.00  0.00    -0.273 OA
HETATM   18  H   UNL     1      20.803  18.042  28.214  1.00  0.00     0.169 HD
BRANCH  16  19
HETATM   19  C   UNL     1      19.224  19.122  26.602  1.00  0.00     0.078 A 
HETATM   20  C   UNL     1      18.204  19.622  25.641  1.00  0.00     0.015 A 
HETATM   21  C   UNL     1      19.513  19.086  25.142  1.00  0.00     0.015 A 
ENDBRANCH  16  19
ENDBRANCH  11  15
ENDBRANCH   7   9
ENDBRANCH   3   7
BRANCH   5  22
HETATM   22  N   UNL     1      18.911  10.810  24.583  1.00  0.00    -0.341 N 
HETATM   23  H   UNL     1      18.370  11.522  24.096  1.00  0.00     0.167 HD
BRANCH  22  24
HETATM   24  C   UNL     1      18.227   9.581  24.674  1.00  0.00     0.034 A 
HETATM   25  C   UNL     1      17.044   9.492  25.408  1.00  0.00     0.045 A 
HETATM   26  C   UNL     1      16.367   8.276  25.497  1.00  0.00     0.050 A 
HETATM   27  C   UNL     1      16.873   7.148  24.851  1.00  0.00     0.016 A 
HETATM   28  C   UNL     1      18.056   7.235  24.117  1.00  0.00     0.003 A 
HETATM   29  C   UNL     1      18.733   8.452  24.029  1.00  0.00     0.029 A 
BRANCH  26  30
HETATM   30  C   UNL     1      15.102   8.181  26.282  1.00  0.00     0.417 C 
HETATM   31  F   UNL     1      14.183   7.330  25.739  1.00  0.00    -0.166 F 
HETATM   32  F   UNL     1      15.286   7.738  27.561  1.00  0.00    -0.166 F 
HETATM   33  F   UNL     1      14.465   9.383  26.398  1.00  0.00    -0.166 F 
ENDBRANCH  26  30
ENDBRANCH  22  24
ENDBRANCH   5  22
TORSDOF 7
ENDMDL
