MODEL 1
REMARK VINA RESULT:      -7.4      0.000      0.000
REMARK  7 active torsions:
REMARK  status: ('A' for Active; 'I' for Inactive)
REMARK       I    between atoms: N_5  and  C_13 
REMARK    1  A    between atoms: N_5  and  C_14 
REMARK    2  A    between atoms: N_6  and  C_17 
REMARK    3  A    between atoms: N_6  and  C_20 
REMARK    4  A    between atoms: N_7  and  C_21 
REMARK    5  A    between atoms: N_7  and  C_23 
REMARK    6  A    between atoms: C_10  and  C_13 
REMARK    7  A    between atoms: C_24  and  C_29 
ROOT
HETATM    1  N   UNL     1      58.134  89.760  41.018  1.00  0.00    -0.224 NA
HETATM    2  N   UNL     1      58.446  89.739  43.408  1.00  0.00    -0.224 NA
HETATM    3  C   UNL     1      56.996  89.057  41.198  1.00  0.00     0.133 A 
HETATM    4  C   UNL     1      56.524  88.665  42.435  1.00  0.00     0.100 A 
HETATM    5  C   UNL     1      57.296  89.035  43.522  1.00  0.00     0.133 A 
HETATM    6  C   UNL     1      58.800  90.062  42.149  1.00  0.00     0.237 A 
ENDROOT
BRANCH   3   7
HETATM    7  N   UNL     1      56.231  88.695  40.063  1.00  0.00    -0.341 N 
HETATM    8  H   UNL     1      55.269  89.020  40.102  1.00  0.00     0.167 HD
BRANCH   7   9
HETATM    9  C   UNL     1      56.547  87.981  38.895  1.00  0.00     0.035 A 
HETATM   10  C   UNL     1      57.024  88.652  37.766  1.00  0.00     0.059 A 
HETATM   11  C   UNL     1      57.339  87.942  36.608  1.00  0.00     0.036 A 
HETATM   12  C   UNL     1      57.180  86.557  36.574  1.00  0.00     0.029 A 
HETATM   13  C   UNL     1      56.704  85.882  37.698  1.00  0.00     0.004 A 
HETATM   14  C   UNL     1      56.388  86.593  38.856  1.00  0.00     0.029 A 
BRANCH  11  15
HETATM   15  N   UNL     1      57.816  88.617  35.483  1.00  0.00    -0.327 N 
HETATM   16  C   UNL     1      59.124  89.027  35.215  1.00  0.00     0.226 C 
HETATM   17  O   UNL     1      60.117  88.874  35.914  1.00  0.00    -0.273 OA
HETATM   18  H   UNL     1      57.114  88.839  34.781  1.00  0.00     0.169 HD
BRANCH  16  19
HETATM   19  C   UNL     1      59.281  89.730  33.903  1.00  0.00     0.078 A 
HETATM   20  C   UNL     1      60.250  89.179  32.918  1.00  0.00     0.015 A 
HETATM   21  C   UNL     1      60.553  90.458  33.641  1.00  0.00     0.015 A 
ENDBRANCH  16  19
ENDBRANCH  11  15
ENDBRANCH   7   9
ENDBRANCH   3   7
BRANCH   5  22
HETATM   22  N   UNL     1      56.849  88.654  44.801  1.00  0.00    -0.341 N 
HETATM   23  H   UNL     1      56.277  89.367  45.249  1.00  0.00     0.167 HD
BRANCH  22  24
HETATM   24  C   UNL     1      57.277  87.660  45.706  1.00  0.00     0.034 A 
HETATM   25  C   UNL     1      57.287  87.920  47.076  1.00  0.00     0.045 A 
HETATM   26  C   UNL     1      57.709  86.937  47.970  1.00  0.00     0.050 A 
HETATM   27  C   UNL     1      58.122  85.692  47.493  1.00  0.00     0.016 A 
HETATM   28  C   UNL     1      58.112  85.432  46.123  1.00  0.00     0.003 A 
HETATM   29  C   UNL     1      57.690  86.416  45.229  1.00  0.00     0.029 A 
BRANCH  26  30
HETATM   30  C   UNL     1      57.720  87.215  49.436  1.00  0.00     0.417 C 
HETATM   31  F   UNL     1      57.025  88.336  49.786  1.00  0.00    -0.166 F 
HETATM   32  F   UNL     1      57.178  86.211  50.186  1.00  0.00    -0.166 F 
HETATM   33  F   UNL     1      58.982  87.398  49.926  1.00  0.00    -0.166 F 
ENDBRANCH  26  30
ENDBRANCH  22  24
ENDBRANCH   5  22
TORSDOF 7
ENDMDL
MODEL 2
REMARK VINA RESULT:      -7.3      1.496      1.997
REMARK  7 active torsions:
REMARK  status: ('A' for Active; 'I' for Inactive)
REMARK       I    between atoms: N_5  and  C_13 
REMARK    1  A    between atoms: N_5  and  C_14 
REMARK    2  A    between atoms: N_6  and  C_17 
REMARK    3  A    between atoms: N_6  and  C_20 
REMARK    4  A    between atoms: N_7  and  C_21 
REMARK    5  A    between atoms: N_7  and  C_23 
REMARK    6  A    between atoms: C_10  and  C_13 
REMARK    7  A    between atoms: C_24  and  C_29 
ROOT
HETATM    1  N   UNL     1      55.420  87.755  41.506  1.00  0.00    -0.224 NA
HETATM    2  N   UNL     1      55.986  86.791  43.640  1.00  0.00    -0.224 NA
HETATM    3  C   UNL     1      56.739  87.924  41.274  1.00  0.00     0.133 A 
HETATM    4  C   UNL     1      57.727  87.556  42.165  1.00  0.00     0.100 A 
HETATM    5  C   UNL     1      57.293  86.987  43.349  1.00  0.00     0.133 A 
HETATM    6  C   UNL     1      55.119  87.192  42.691  1.00  0.00     0.237 A 
ENDROOT
BRANCH   3   7
HETATM    7  N   UNL     1      57.147  88.510  40.052  1.00  0.00    -0.341 N 
HETATM    8  H   UNL     1      57.808  89.273  40.169  1.00  0.00     0.167 HD
BRANCH   7   9
HETATM    9  C   UNL     1      56.821  88.236  38.713  1.00  0.00     0.035 A 
HETATM   10  C   UNL     1      57.493  88.889  37.676  1.00  0.00     0.059 A 
HETATM   11  C   UNL     1      57.169  88.615  36.348  1.00  0.00     0.036 A 
HETATM   12  C   UNL     1      56.171  87.687  36.050  1.00  0.00     0.029 A 
HETATM   13  C   UNL     1      55.497  87.033  37.081  1.00  0.00     0.004 A 
HETATM   14  C   UNL     1      55.821  87.308  38.410  1.00  0.00     0.029 A 
BRANCH  11  15
HETATM   15  N   UNL     1      57.844  89.269  35.316  1.00  0.00    -0.327 N 
HETATM   16  C   UNL     1      58.902  88.789  34.539  1.00  0.00     0.226 C 
HETATM   17  O   UNL     1      59.448  87.696  34.609  1.00  0.00    -0.273 OA
HETATM   18  H   UNL     1      57.522  90.213  35.117  1.00  0.00     0.169 HD
BRANCH  16  19
HETATM   19  C   UNL     1      59.389  89.764  33.512  1.00  0.00     0.078 A 
HETATM   20  C   UNL     1      60.489  89.341  32.605  1.00  0.00     0.015 A 
HETATM   21  C   UNL     1      60.746  90.349  33.685  1.00  0.00     0.015 A 
ENDBRANCH  16  19
ENDBRANCH  11  15
ENDBRANCH   7   9
ENDBRANCH   3   7
BRANCH   5  22
HETATM   22  N   UNL     1      58.270  86.598  44.285  1.00  0.00    -0.341 N 
HETATM   23  H   UNL     1      58.735  85.729  44.032  1.00  0.00     0.167 HD
BRANCH  22  24
HETATM   24  C   UNL     1      58.511  86.969  45.624  1.00  0.00     0.034 A 
HETATM   25  C   UNL     1      57.877  86.288  46.663  1.00  0.00     0.045 A 
HETATM   26  C   UNL     1      58.118  86.654  47.987  1.00  0.00     0.050 A 
HETATM   27  C   UNL     1      58.992  87.703  48.272  1.00  0.00     0.016 A 
HETATM   28  C   UNL     1      59.626  88.385  47.234  1.00  0.00     0.003 A 
HETATM   29  C   UNL     1      59.386  88.018  45.909  1.00  0.00     0.029 A 
BRANCH  26  30
HETATM   30  C   UNL     1      57.440  85.926  49.098  1.00  0.00     0.417 C 
HETATM   31  F   UNL     1      56.192  86.400  49.383  1.00  0.00    -0.166 F 
HETATM   32  F   UNL     1      57.268  84.594  48.853  1.00  0.00    -0.166 F 
HETATM   33  F   UNL     1      58.134  85.995  50.272  1.00  0.00    -0.166 F 
ENDBRANCH  26  30
ENDBRANCH  22  24
ENDBRANCH   5  22
TORSDOF 7
ENDMDL
MODEL 3
REMARK VINA RESULT:      -7.2      5.859     10.968
REMARK  7 active torsions:
REMARK  status: ('A' for Active; 'I' for Inactive)
REMARK       I    between atoms: N_5  and  C_13 
REMARK    1  A    between atoms: N_5  and  C_14 
REMARK    2  A    between atoms: N_6  and  C_17 
REMARK    3  A    between atoms: N_6  and  C_20 
REMARK    4  A    between atoms: N_7  and  C_21 
REMARK    5  A    between atoms: N_7  and  C_23 
REMARK    6  A    between atoms: C_10  and  C_13 
REMARK    7  A    between atoms: C_24  and  C_29 
ROOT
HETATM    1  N   UNL     1      55.965  87.719  41.586  1.00  0.00    -0.224 NA
HETATM    2  N   UNL     1      56.094  87.939  39.190  1.00  0.00    -0.224 NA
HETATM    3  C   UNL     1      56.680  86.579  41.483  1.00  0.00     0.133 A 
HETATM    4  C   UNL     1      57.132  86.064  40.286  1.00  0.00     0.100 A 
HETATM    5  C   UNL     1      56.808  86.790  39.154  1.00  0.00     0.133 A 
HETATM    6  C   UNL     1      55.711  88.338  40.418  1.00  0.00     0.237 A 
ENDROOT
BRANCH   3   7
HETATM    7  N   UNL     1      56.993  85.861  42.663  1.00  0.00    -0.341 N 
HETATM    8  H   UNL     1      56.490  84.982  42.747  1.00  0.00     0.167 HD
BRANCH   7   9
HETATM    9  C   UNL     1      57.866  86.126  43.731  1.00  0.00     0.035 A 
HETATM   10  C   UNL     1      57.426  85.989  45.051  1.00  0.00     0.059 A 
HETATM   11  C   UNL     1      58.294  86.251  46.110  1.00  0.00     0.036 A 
HETATM   12  C   UNL     1      59.607  86.651  45.855  1.00  0.00     0.029 A 
HETATM   13  C   UNL     1      60.050  86.789  44.540  1.00  0.00     0.004 A 
HETATM   14  C   UNL     1      59.181  86.528  43.480  1.00  0.00     0.029 A 
BRANCH  11  15
HETATM   15  N   UNL     1      57.851  86.112  47.426  1.00  0.00    -0.327 N 
HETATM   16  C   UNL     1      57.489  87.119  48.324  1.00  0.00     0.226 C 
HETATM   17  O   UNL     1      57.487  88.328  48.134  1.00  0.00    -0.273 OA
HETATM   18  H   UNL     1      57.794  85.154  47.766  1.00  0.00     0.169 HD
BRANCH  16  19
HETATM   19  C   UNL     1      57.058  86.609  49.664  1.00  0.00     0.078 A 
HETATM   20  C   UNL     1      57.418  85.215  50.037  1.00  0.00     0.015 A 
HETATM   21  C   UNL     1      55.997  85.567  49.712  1.00  0.00     0.015 A 
ENDBRANCH  16  19
ENDBRANCH  11  15
ENDBRANCH   7   9
ENDBRANCH   3   7
BRANCH   5  22
HETATM   22  N   UNL     1      57.251  86.298  37.911  1.00  0.00    -0.341 N 
HETATM   23  H   UNL     1      56.917  85.356  37.717  1.00  0.00     0.167 HD
BRANCH  22  24
HETATM   24  C   UNL     1      58.294  86.689  37.045  1.00  0.00     0.034 A 
HETATM   25  C   UNL     1      58.107  87.755  36.164  1.00  0.00     0.045 A 
HETATM   26  C   UNL     1      59.139  88.142  35.310  1.00  0.00     0.050 A 
HETATM   27  C   UNL     1      60.358  87.465  35.336  1.00  0.00     0.016 A 
HETATM   28  C   UNL     1      60.545  86.399  36.217  1.00  0.00     0.003 A 
HETATM   29  C   UNL     1      59.513  86.012  37.072  1.00  0.00     0.029 A 
BRANCH  26  30
HETATM   30  C   UNL     1      58.939  89.282  34.368  1.00  0.00     0.417 C 
HETATM   31  F   UNL     1      57.854  90.054  34.665  1.00  0.00    -0.166 F 
HETATM   32  F   UNL     1      59.994  90.149  34.329  1.00  0.00    -0.166 F 
HETATM   33  F   UNL     1      58.755  88.871  33.079  1.00  0.00    -0.166 F 
ENDBRANCH  26  30
ENDBRANCH  22  24
ENDBRANCH   5  22
TORSDOF 7
ENDMDL
MODEL 4
REMARK VINA RESULT:      -7.1      6.123     11.144
REMARK  7 active torsions:
REMARK  status: ('A' for Active; 'I' for Inactive)
REMARK       I    between atoms: N_5  and  C_13 
REMARK    1  A    between atoms: N_5  and  C_14 
REMARK    2  A    between atoms: N_6  and  C_17 
REMARK    3  A    between atoms: N_6  and  C_20 
REMARK    4  A    between atoms: N_7  and  C_21 
REMARK    5  A    between atoms: N_7  and  C_23 
REMARK    6  A    between atoms: C_10  and  C_13 
REMARK    7  A    between atoms: C_24  and  C_29 
ROOT
HETATM    1  N   UNL     1      59.498  86.270  41.632  1.00  0.00    -0.224 NA
HETATM    2  N   UNL     1      59.898  86.234  39.256  1.00  0.00    -0.224 NA
HETATM    3  C   UNL     1      58.186  86.448  41.371  1.00  0.00     0.133 A 
HETATM    4  C   UNL     1      57.662  86.527  40.097  1.00  0.00     0.100 A 
HETATM    5  C   UNL     1      58.571  86.413  39.060  1.00  0.00     0.133 A 
HETATM    6  C   UNL     1      60.286  86.173  40.544  1.00  0.00     0.237 A 
ENDROOT
BRANCH   3   7
HETATM    7  N   UNL     1      57.284  86.562  42.457  1.00  0.00    -0.341 N 
HETATM    8  H   UNL     1      56.540  85.870  42.439  1.00  0.00     0.167 HD
BRANCH   7   9
HETATM    9  C   UNL     1      57.225  87.439  43.552  1.00  0.00     0.035 A 
HETATM   10  C   UNL     1      57.224  86.938  44.857  1.00  0.00     0.059 A 
HETATM   11  C   UNL     1      57.167  87.810  45.943  1.00  0.00     0.036 A 
HETATM   12  C   UNL     1      57.109  89.188  45.730  1.00  0.00     0.029 A 
HETATM   13  C   UNL     1      57.109  89.693  44.430  1.00  0.00     0.004 A 
HETATM   14  C   UNL     1      57.166  88.820  43.343  1.00  0.00     0.029 A 
BRANCH  11  15
HETATM   15  N   UNL     1      57.168  87.306  47.244  1.00  0.00    -0.327 N 
HETATM   16  C   UNL     1      58.236  87.237  48.141  1.00  0.00     0.226 C 
HETATM   17  O   UNL     1      59.389  87.609  47.964  1.00  0.00    -0.273 OA
HETATM   18  H   UNL     1      56.275  86.939  47.568  1.00  0.00     0.169 HD
BRANCH  16  19
HETATM   19  C   UNL     1      57.880  86.632  49.463  1.00  0.00     0.078 A 
HETATM   20  C   UNL     1      57.199  85.309  49.472  1.00  0.00     0.015 A 
HETATM   21  C   UNL     1      56.442  86.552  49.836  1.00  0.00     0.015 A 
ENDBRANCH  16  19
ENDBRANCH  11  15
ENDBRANCH   7   9
ENDBRANCH   3   7
BRANCH   5  22
HETATM   22  N   UNL     1      58.075  86.488  37.744  1.00  0.00    -0.341 N 
HETATM   23  H   UNL     1      57.917  85.573  37.329  1.00  0.00     0.167 HD
BRANCH  22  24
HETATM   24  C   UNL     1      58.058  87.525  36.788  1.00  0.00     0.034 A 
HETATM   25  C   UNL     1      58.904  87.468  35.680  1.00  0.00     0.045 A 
HETATM   26  C   UNL     1      58.884  88.492  34.735  1.00  0.00     0.050 A 
HETATM   27  C   UNL     1      58.020  89.575  34.897  1.00  0.00     0.016 A 
HETATM   28  C   UNL     1      57.175  89.633  36.005  1.00  0.00     0.003 A 
HETATM   29  C   UNL     1      57.194  88.608  36.951  1.00  0.00     0.029 A 
BRANCH  26  30
HETATM   30  C   UNL     1      59.789  88.431  33.550  1.00  0.00     0.417 C 
HETATM   31  F   UNL     1      61.114  88.394  33.874  1.00  0.00    -0.166 F 
HETATM   32  F   UNL     1      59.583  87.335  32.762  1.00  0.00    -0.166 F 
HETATM   33  F   UNL     1      59.644  89.509  32.723  1.00  0.00    -0.166 F 
ENDBRANCH  26  30
ENDBRANCH  22  24
ENDBRANCH   5  22
TORSDOF 7
ENDMDL
MODEL 5
REMARK VINA RESULT:      -7.1      7.648     11.003
REMARK  7 active torsions:
REMARK  status: ('A' for Active; 'I' for Inactive)
REMARK       I    between atoms: N_5  and  C_13 
REMARK    1  A    between atoms: N_5  and  C_14 
REMARK    2  A    between atoms: N_6  and  C_17 
REMARK    3  A    between atoms: N_6  and  C_20 
REMARK    4  A    between atoms: N_7  and  C_21 
REMARK    5  A    between atoms: N_7  and  C_23 
REMARK    6  A    between atoms: C_10  and  C_13 
REMARK    7  A    between atoms: C_24  and  C_29 
ROOT
HETATM    1  N   UNL     1      61.033  83.501  32.572  1.00  0.00    -0.224 NA
HETATM    2  N   UNL     1      60.030  85.604  33.187  1.00  0.00    -0.224 NA
HETATM    3  C   UNL     1      61.410  83.347  33.858  1.00  0.00     0.133 A 
HETATM    4  C   UNL     1      61.137  84.265  34.853  1.00  0.00     0.100 A 
HETATM    5  C   UNL     1      60.436  85.391  34.461  1.00  0.00     0.133 A 
HETATM    6  C   UNL     1      60.358  84.636  32.310  1.00  0.00     0.237 A 
ENDROOT
BRANCH   3   7
HETATM    7  N   UNL     1      62.127  82.182  34.225  1.00  0.00    -0.341 N 
HETATM    8  H   UNL     1      63.112  82.218  33.977  1.00  0.00     0.167 HD
BRANCH   7   9
HETATM    9  C   UNL     1      61.741  80.994  34.867  1.00  0.00     0.035 A 
HETATM   10  C   UNL     1      61.057  80.001  34.160  1.00  0.00     0.059 A 
HETATM   11  C   UNL     1      60.675  78.822  34.799  1.00  0.00     0.036 A 
HETATM   12  C   UNL     1      60.976  78.629  36.147  1.00  0.00     0.029 A 
HETATM   13  C   UNL     1      61.659  79.616  36.857  1.00  0.00     0.004 A 
HETATM   14  C   UNL     1      62.040  80.797  36.218  1.00  0.00     0.029 A 
BRANCH  11  15
HETATM   15  N   UNL     1      59.992  77.833  34.089  1.00  0.00    -0.327 N 
HETATM   16  C   UNL     1      58.617  77.723  33.872  1.00  0.00     0.226 C 
HETATM   17  O   UNL     1      57.733  78.474  34.261  1.00  0.00    -0.273 OA
HETATM   18  H   UNL     1      60.579  77.104  33.688  1.00  0.00     0.169 HD
BRANCH  16  19
HETATM   19  C   UNL     1      58.227  76.528  33.059  1.00  0.00     0.078 A 
HETATM   20  C   UNL     1      59.287  75.816  32.296  1.00  0.00     0.015 A 
HETATM   21  C   UNL     1      58.263  76.642  31.575  1.00  0.00     0.015 A 
ENDBRANCH  16  19
ENDBRANCH  11  15
ENDBRANCH   7   9
ENDBRANCH   3   7
BRANCH   5  22
HETATM   22  N   UNL     1      60.137  86.352  35.445  1.00  0.00    -0.341 N 
HETATM   23  H   UNL     1      60.757  86.299  36.250  1.00  0.00     0.167 HD
BRANCH  22  24
HETATM   24  C   UNL     1      58.993  87.138  35.696  1.00  0.00     0.034 A 
HETATM   25  C   UNL     1      58.013  86.683  36.579  1.00  0.00     0.045 A 
HETATM   26  C   UNL     1      56.883  87.462  36.827  1.00  0.00     0.050 A 
HETATM   27  C   UNL     1      56.733  88.695  36.194  1.00  0.00     0.016 A 
HETATM   28  C   UNL     1      57.712  89.150  35.311  1.00  0.00     0.003 A 
HETATM   29  C   UNL     1      58.843  88.371  35.063  1.00  0.00     0.029 A 
BRANCH  26  30
HETATM   30  C   UNL     1      55.835  86.976  37.771  1.00  0.00     0.417 C 
HETATM   31  F   UNL     1      55.664  87.779  38.862  1.00  0.00    -0.166 F 
HETATM   32  F   UNL     1      54.596  86.875  37.205  1.00  0.00    -0.166 F 
HETATM   33  F   UNL     1      56.112  85.735  38.270  1.00  0.00    -0.166 F 
ENDBRANCH  26  30
ENDBRANCH  22  24
ENDBRANCH   5  22
TORSDOF 7
ENDMDL
MODEL 6
REMARK VINA RESULT:      -6.9      5.616     10.705
REMARK  7 active torsions:
REMARK  status: ('A' for Active; 'I' for Inactive)
REMARK       I    between atoms: N_5  and  C_13 
REMARK    1  A    between atoms: N_5  and  C_14 
REMARK    2  A    between atoms: N_6  and  C_17 
REMARK    3  A    between atoms: N_6  and  C_20 
REMARK    4  A    between atoms: N_7  and  C_21 
REMARK    5  A    between atoms: N_7  and  C_23 
REMARK    6  A    between atoms: C_10  and  C_13 
REMARK    7  A    between atoms: C_24  and  C_29 
ROOT
HETATM    1  N   UNL     1      59.542  85.973  45.063  1.00  0.00    -0.224 NA
HETATM    2  N   UNL     1      59.103  86.901  42.883  1.00  0.00    -0.224 NA
HETATM    3  C   UNL     1      58.211  85.836  45.232  1.00  0.00     0.133 A 
HETATM    4  C   UNL     1      57.276  86.203  44.286  1.00  0.00     0.100 A 
HETATM    5  C   UNL     1      57.780  86.738  43.113  1.00  0.00     0.133 A 
HETATM    6  C   UNL     1      59.913  86.505  43.883  1.00  0.00     0.237 A 
ENDROOT
BRANCH   3   7
HETATM    7  N   UNL     1      57.730  85.286  46.445  1.00  0.00    -0.341 N 
HETATM    8  H   UNL     1      57.452  84.312  46.366  1.00  0.00     0.167 HD
BRANCH   7   9
HETATM    9  C   UNL     1      57.571  85.824  47.733  1.00  0.00     0.035 A 
HETATM   10  C   UNL     1      57.740  87.195  47.949  1.00  0.00     0.059 A 
HETATM   11  C   UNL     1      57.580  87.728  49.228  1.00  0.00     0.036 A 
HETATM   12  C   UNL     1      57.250  86.894  50.296  1.00  0.00     0.029 A 
HETATM   13  C   UNL     1      57.080  85.526  50.085  1.00  0.00     0.004 A 
HETATM   14  C   UNL     1      57.241  84.992  48.806  1.00  0.00     0.029 A 
BRANCH  11  15
HETATM   15  N   UNL     1      57.749  89.097  49.439  1.00  0.00    -0.327 N 
HETATM   16  C   UNL     1      56.799  90.026  49.873  1.00  0.00     0.226 C 
HETATM   17  O   UNL     1      55.626  89.822  50.156  1.00  0.00    -0.273 OA
HETATM   18  H   UNL     1      58.682  89.454  49.244  1.00  0.00     0.169 HD
BRANCH  16  19
HETATM   19  C   UNL     1      57.328  91.421  49.991  1.00  0.00     0.078 A 
HETATM   20  C   UNL     1      57.829  92.093  48.762  1.00  0.00     0.015 A 
HETATM   21  C   UNL     1      58.790  91.638  49.821  1.00  0.00     0.015 A 
ENDBRANCH  16  19
ENDBRANCH  11  15
ENDBRANCH   7   9
ENDBRANCH   3   7
BRANCH   5  22
HETATM   22  N   UNL     1      56.858  87.125  42.121  1.00  0.00    -0.341 N 
HETATM   23  H   UNL     1      55.938  86.713  42.255  1.00  0.00     0.167 HD
BRANCH  22  24
HETATM   24  C   UNL     1      57.017  87.687  40.837  1.00  0.00     0.034 A 
HETATM   25  C   UNL     1      56.307  87.168  39.755  1.00  0.00     0.045 A 
HETATM   26  C   UNL     1      56.463  87.725  38.486  1.00  0.00     0.050 A 
HETATM   27  C   UNL     1      57.331  88.801  38.299  1.00  0.00     0.016 A 
HETATM   28  C   UNL     1      58.042  89.320  39.381  1.00  0.00     0.003 A 
HETATM   29  C   UNL     1      57.885  88.763  40.650  1.00  0.00     0.029 A 
BRANCH  26  30
HETATM   30  C   UNL     1      55.703  87.171  37.328  1.00  0.00     0.417 C 
HETATM   31  F   UNL     1      54.402  86.877  37.618  1.00  0.00    -0.166 F 
HETATM   32  F   UNL     1      55.648  88.015  36.257  1.00  0.00    -0.166 F 
HETATM   33  F   UNL     1      56.244  86.010  36.853  1.00  0.00    -0.166 F 
ENDBRANCH  26  30
ENDBRANCH  22  24
ENDBRANCH   5  22
TORSDOF 7
ENDMDL
MODEL 7
REMARK VINA RESULT:      -6.8      6.746      9.669
REMARK  7 active torsions:
REMARK  status: ('A' for Active; 'I' for Inactive)
REMARK       I    between atoms: N_5  and  C_13 
REMARK    1  A    between atoms: N_5  and  C_14 
REMARK    2  A    between atoms: N_6  and  C_17 
REMARK    3  A    between atoms: N_6  and  C_20 
REMARK    4  A    between atoms: N_7  and  C_21 
REMARK    5  A    between atoms: N_7  and  C_23 
REMARK    6  A    between atoms: C_10  and  C_13 
REMARK    7  A    between atoms: C_24  and  C_29 
ROOT
HETATM    1  N   UNL     1      60.479  85.337  32.708  1.00  0.00    -0.224 NA
HETATM    2  N   UNL     1      60.520  87.227  34.202  1.00  0.00    -0.224 NA
HETATM    3  C   UNL     1      59.967  84.599  33.715  1.00  0.00     0.133 A 
HETATM    4  C   UNL     1      59.706  85.098  34.975  1.00  0.00     0.100 A 
HETATM    5  C   UNL     1      60.005  86.435  35.171  1.00  0.00     0.133 A 
HETATM    6  C   UNL     1      60.729  86.624  33.017  1.00  0.00     0.237 A 
ENDROOT
BRANCH   3   7
HETATM    7  N   UNL     1      59.674  83.234  33.480  1.00  0.00    -0.341 N 
HETATM    8  H   UNL     1      58.915  83.090  32.820  1.00  0.00     0.167 HD
BRANCH   7   9
HETATM    9  C   UNL     1      60.233  82.045  33.978  1.00  0.00     0.035 A 
HETATM   10  C   UNL     1      59.725  80.806  33.579  1.00  0.00     0.059 A 
HETATM   11  C   UNL     1      60.282  79.627  34.072  1.00  0.00     0.036 A 
HETATM   12  C   UNL     1      61.351  79.681  34.967  1.00  0.00     0.029 A 
HETATM   13  C   UNL     1      61.862  80.915  35.368  1.00  0.00     0.004 A 
HETATM   14  C   UNL     1      61.304  82.095  34.875  1.00  0.00     0.029 A 
BRANCH  11  15
HETATM   15  N   UNL     1      59.771  78.392  33.671  1.00  0.00    -0.327 N 
HETATM   16  C   UNL     1      58.468  77.910  33.816  1.00  0.00     0.226 C 
HETATM   17  O   UNL     1      57.510  78.478  34.326  1.00  0.00    -0.273 OA
HETATM   18  H   UNL     1      60.441  77.771  33.223  1.00  0.00     0.169 HD
BRANCH  16  19
HETATM   19  C   UNL     1      58.267  76.533  33.266  1.00  0.00     0.078 A 
HETATM   20  C   UNL     1      59.439  75.829  32.681  1.00  0.00     0.015 A 
HETATM   21  C   UNL     1      58.346  76.344  31.792  1.00  0.00     0.015 A 
ENDBRANCH  16  19
ENDBRANCH  11  15
ENDBRANCH   7   9
ENDBRANCH   3   7
BRANCH   5  22
HETATM   22  N   UNL     1      59.753  86.983  36.443  1.00  0.00    -0.341 N 
HETATM   23  H   UNL     1      60.600  87.293  36.914  1.00  0.00     0.167 HD
BRANCH  22  24
HETATM   24  C   UNL     1      58.649  86.901  37.317  1.00  0.00     0.034 A 
HETATM   25  C   UNL     1      58.834  86.501  38.640  1.00  0.00     0.045 A 
HETATM   26  C   UNL     1      57.742  86.422  39.504  1.00  0.00     0.050 A 
HETATM   27  C   UNL     1      56.465  86.742  39.044  1.00  0.00     0.016 A 
HETATM   28  C   UNL     1      56.279  87.142  37.721  1.00  0.00     0.003 A 
HETATM   29  C   UNL     1      57.372  87.221  36.857  1.00  0.00     0.029 A 
BRANCH  26  30
HETATM   30  C   UNL     1      57.939  85.994  40.920  1.00  0.00     0.417 C 
HETATM   31  F   UNL     1      59.223  85.628  41.207  1.00  0.00    -0.166 F 
HETATM   32  F   UNL     1      57.632  86.963  41.831  1.00  0.00    -0.166 F 
HETATM   33  F   UNL     1      57.168  84.918  41.255  1.00  0.00    -0.166 F 
ENDBRANCH  26  30
ENDBRANCH  22  24
ENDBRANCH   5  22
TORSDOF 7
ENDMDL
MODEL 8
REMARK VINA RESULT:      -6.8      5.731      9.954
REMARK  7 active torsions:
REMARK  status: ('A' for Active; 'I' for Inactive)
REMARK       I    between atoms: N_5  and  C_13 
REMARK    1  A    between atoms: N_5  and  C_14 
REMARK    2  A    between atoms: N_6  and  C_17 
REMARK    3  A    between atoms: N_6  and  C_20 
REMARK    4  A    between atoms: N_7  and  C_21 
REMARK    5  A    between atoms: N_7  and  C_23 
REMARK    6  A    between atoms: C_10  and  C_13 
REMARK    7  A    between atoms: C_24  and  C_29 
ROOT
HETATM    1  N   UNL     1      56.714  85.889  43.531  1.00  0.00    -0.224 NA
HETATM    2  N   UNL     1      56.862  86.202  41.147  1.00  0.00    -0.224 NA
HETATM    3  C   UNL     1      56.546  87.222  43.658  1.00  0.00     0.133 A 
HETATM    4  C   UNL     1      56.525  88.097  42.591  1.00  0.00     0.100 A 
HETATM    5  C   UNL     1      56.690  87.530  41.340  1.00  0.00     0.133 A 
HETATM    6  C   UNL     1      56.864  85.453  42.266  1.00  0.00     0.237 A 
ENDROOT
BRANCH   3   7
HETATM    7  N   UNL     1      56.382  87.768  44.954  1.00  0.00    -0.341 N 
HETATM    8  H   UNL     1      55.642  87.323  45.490  1.00  0.00     0.167 HD
BRANCH   7   9
HETATM    9  C   UNL     1      57.046  88.799  45.640  1.00  0.00     0.035 A 
HETATM   10  C   UNL     1      56.710  90.134  45.401  1.00  0.00     0.059 A 
HETATM   11  C   UNL     1      57.369  91.156  46.083  1.00  0.00     0.036 A 
HETATM   12  C   UNL     1      58.367  90.848  47.008  1.00  0.00     0.029 A 
HETATM   13  C   UNL     1      58.706  89.517  47.250  1.00  0.00     0.004 A 
HETATM   14  C   UNL     1      58.047  88.494  46.566  1.00  0.00     0.029 A 
BRANCH  11  15
HETATM   15  N   UNL     1      57.029  92.489  45.843  1.00  0.00    -0.327 N 
HETATM   16  C   UNL     1      57.702  93.418  45.047  1.00  0.00     0.226 C 
HETATM   17  O   UNL     1      58.726  93.249  44.398  1.00  0.00    -0.273 OA
HETATM   18  H   UNL     1      56.189  92.814  46.315  1.00  0.00     0.169 HD
BRANCH  16  19
HETATM   19  C   UNL     1      57.054  94.767  45.012  1.00  0.00     0.078 A 
HETATM   20  C   UNL     1      56.916  95.516  46.290  1.00  0.00     0.015 A 
HETATM   21  C   UNL     1      55.708  94.918  45.631  1.00  0.00     0.015 A 
ENDBRANCH  16  19
ENDBRANCH  11  15
ENDBRANCH   7   9
ENDBRANCH   3   7
BRANCH   5  22
HETATM   22  N   UNL     1      56.674  88.389  40.225  1.00  0.00    -0.341 N 
HETATM   23  H   UNL     1      56.562  89.367  40.481  1.00  0.00     0.167 HD
BRANCH  22  24
HETATM   24  C   UNL     1      56.461  88.163  38.849  1.00  0.00     0.034 A 
HETATM   25  C   UNL     1      57.328  88.718  37.907  1.00  0.00     0.045 A 
HETATM   26  C   UNL     1      57.117  88.493  36.548  1.00  0.00     0.050 A 
HETATM   27  C   UNL     1      56.039  87.714  36.128  1.00  0.00     0.016 A 
HETATM   28  C   UNL     1      55.171  87.159  37.069  1.00  0.00     0.003 A 
HETATM   29  C   UNL     1      55.383  87.384  38.430  1.00  0.00     0.029 A 
BRANCH  26  30
HETATM   30  C   UNL     1      58.045  89.086  35.540  1.00  0.00     0.417 C 
HETATM   31  F   UNL     1      58.391  88.223  34.540  1.00  0.00    -0.166 F 
HETATM   32  F   UNL     1      57.533  90.181  34.905  1.00  0.00    -0.166 F 
HETATM   33  F   UNL     1      59.224  89.499  36.091  1.00  0.00    -0.166 F 
ENDBRANCH  26  30
ENDBRANCH  22  24
ENDBRANCH   5  22
TORSDOF 7
ENDMDL
MODEL 9
REMARK VINA RESULT:      -6.8      2.325      3.483
REMARK  7 active torsions:
REMARK  status: ('A' for Active; 'I' for Inactive)
REMARK       I    between atoms: N_5  and  C_13 
REMARK    1  A    between atoms: N_5  and  C_14 
REMARK    2  A    between atoms: N_6  and  C_17 
REMARK    3  A    between atoms: N_6  and  C_20 
REMARK    4  A    between atoms: N_7  and  C_21 
REMARK    5  A    between atoms: N_7  and  C_23 
REMARK    6  A    between atoms: C_10  and  C_13 
REMARK    7  A    between atoms: C_24  and  C_29 
ROOT
HETATM    1  N   UNL     1      59.280  90.325  43.596  1.00  0.00    -0.224 NA
HETATM    2  N   UNL     1      59.849  90.637  45.917  1.00  0.00    -0.224 NA
HETATM    3  C   UNL     1      58.114  89.773  43.995  1.00  0.00     0.133 A 
HETATM    4  C   UNL     1      57.750  89.622  45.317  1.00  0.00     0.100 A 
HETATM    5  C   UNL     1      58.664  90.075  46.252  1.00  0.00     0.133 A 
HETATM    6  C   UNL     1      60.088  90.728  44.595  1.00  0.00     0.237 A 
ENDROOT
BRANCH   3   7
HETATM    7  N   UNL     1      57.202  89.319  43.011  1.00  0.00    -0.341 N 
HETATM    8  H   UNL     1      56.326  89.834  43.003  1.00  0.00     0.167 HD
BRANCH   7   9
HETATM    9  C   UNL     1      57.279  88.303  42.044  1.00  0.00     0.035 A 
HETATM   10  C   UNL     1      57.267  88.623  40.683  1.00  0.00     0.059 A 
HETATM   11  C   UNL     1      57.345  87.614  39.724  1.00  0.00     0.036 A 
HETATM   12  C   UNL     1      57.436  86.280  40.121  1.00  0.00     0.029 A 
HETATM   13  C   UNL     1      57.449  85.955  41.477  1.00  0.00     0.004 A 
HETATM   14  C   UNL     1      57.370  86.965  42.437  1.00  0.00     0.029 A 
BRANCH  11  15
HETATM   15  N   UNL     1      57.332  87.939  38.367  1.00  0.00    -0.327 N 
HETATM   16  C   UNL     1      56.292  87.770  37.450  1.00  0.00     0.226 C 
HETATM   17  O   UNL     1      55.180  87.302  37.656  1.00  0.00    -0.273 OA
HETATM   18  H   UNL     1      58.196  88.343  38.010  1.00  0.00     0.169 HD
BRANCH  16  19
HETATM   19  C   UNL     1      56.625  88.231  36.065  1.00  0.00     0.078 A 
HETATM   20  C   UNL     1      58.049  88.511  35.738  1.00  0.00     0.015 A 
HETATM   21  C   UNL     1      57.070  89.639  35.880  1.00  0.00     0.015 A 
ENDBRANCH  16  19
ENDBRANCH  11  15
ENDBRANCH   7   9
ENDBRANCH   3   7
BRANCH   5  22
HETATM   22  N   UNL     1      58.330  89.940  47.613  1.00  0.00    -0.341 N 
HETATM   23  H   UNL     1      58.097  90.827  48.053  1.00  0.00     0.167 HD
BRANCH  22  24
HETATM   24  C   UNL     1      58.557  88.914  48.554  1.00  0.00     0.034 A 
HETATM   25  C   UNL     1      57.768  87.764  48.537  1.00  0.00     0.045 A 
HETATM   26  C   UNL     1      57.994  86.750  49.467  1.00  0.00     0.050 A 
HETATM   27  C   UNL     1      59.009  86.886  50.415  1.00  0.00     0.016 A 
HETATM   28  C   UNL     1      59.797  88.036  50.433  1.00  0.00     0.003 A 
HETATM   29  C   UNL     1      59.571  89.050  49.502  1.00  0.00     0.029 A 
BRANCH  26  30
HETATM   30  C   UNL     1      57.151  85.519  49.450  1.00  0.00     0.417 C 
HETATM   31  F   UNL     1      57.248  84.805  48.290  1.00  0.00    -0.166 F 
HETATM   32  F   UNL     1      57.459  84.632  50.441  1.00  0.00    -0.166 F 
HETATM   33  F   UNL     1      55.821  85.791  49.602  1.00  0.00    -0.166 F 
ENDBRANCH  26  30
ENDBRANCH  22  24
ENDBRANCH   5  22
TORSDOF 7
ENDMDL
