MODEL 1
REMARK VINA RESULT:      -7.9      0.000      0.000
REMARK  7 active torsions:
REMARK  status: ('A' for Active; 'I' for Inactive)
REMARK       I    between atoms: N_5  and  C_13 
REMARK    1  A    between atoms: N_5  and  C_14 
REMARK    2  A    between atoms: N_6  and  C_17 
REMARK    3  A    between atoms: N_6  and  C_20 
REMARK    4  A    between atoms: N_7  and  C_21 
REMARK    5  A    between atoms: N_7  and  C_23 
REMARK    6  A    between atoms: C_10  and  C_13 
REMARK    7  A    between atoms: C_24  and  C_29 
ROOT
HETATM    1  N   UNL     1      25.150  12.022  27.280  1.00  0.00    -0.224 NA
HETATM    2  N   UNL     1      23.155  10.866  27.981  1.00  0.00    -0.224 NA
HETATM    3  C   UNL     1      25.867  11.168  28.040  1.00  0.00     0.133 A 
HETATM    4  C   UNL     1      25.307  10.152  28.787  1.00  0.00     0.100 A 
HETATM    5  C   UNL     1      23.930  10.041  28.723  1.00  0.00     0.133 A 
HETATM    6  C   UNL     1      23.819  11.818  27.297  1.00  0.00     0.237 A 
ENDROOT
BRANCH   3   7
HETATM    7  N   UNL     1      27.275  11.311  28.082  1.00  0.00    -0.341 N 
HETATM    8  H   UNL     1      27.596  11.948  28.806  1.00  0.00     0.167 HD
BRANCH   7   9
HETATM    9  C   UNL     1      28.309  10.738  27.324  1.00  0.00     0.035 A 
HETATM   10  C   UNL     1      28.398   9.349  27.190  1.00  0.00     0.059 A 
HETATM   11  C   UNL     1      29.424   8.781  26.436  1.00  0.00     0.036 A 
HETATM   12  C   UNL     1      30.367   9.599  25.812  1.00  0.00     0.029 A 
HETATM   13  C   UNL     1      30.282  10.985  25.942  1.00  0.00     0.004 A 
HETATM   14  C   UNL     1      29.256  11.553  26.698  1.00  0.00     0.029 A 
BRANCH  11  15
HETATM   15  N   UNL     1      29.508   7.394  26.304  1.00  0.00    -0.327 N 
HETATM   16  C   UNL     1      29.227   6.618  25.178  1.00  0.00     0.226 C 
HETATM   17  O   UNL     1      28.850   7.000  24.078  1.00  0.00    -0.273 OA
HETATM   18  H   UNL     1      29.808   6.897  27.140  1.00  0.00     0.169 HD
BRANCH  16  19
HETATM   19  C   UNL     1      29.426   5.149  25.390  1.00  0.00     0.078 A 
HETATM   20  C   UNL     1      29.649   4.661  26.778  1.00  0.00     0.015 A 
HETATM   21  C   UNL     1      30.779   4.673  25.791  1.00  0.00     0.015 A 
ENDBRANCH  16  19
ENDBRANCH  11  15
ENDBRANCH   7   9
ENDBRANCH   3   7
BRANCH   5  22
HETATM   22  N   UNL     1      23.320   9.016  29.471  1.00  0.00    -0.341 N 
HETATM   23  H   UNL     1      22.680   8.450  28.917  1.00  0.00     0.167 HD
BRANCH  22  24
HETATM   24  C   UNL     1      23.160   8.811  30.857  1.00  0.00     0.034 A 
HETATM   25  C   UNL     1      24.174   8.199  31.594  1.00  0.00     0.045 A 
HETATM   26  C   UNL     1      24.016   7.998  32.965  1.00  0.00     0.050 A 
HETATM   27  C   UNL     1      22.843   8.410  33.599  1.00  0.00     0.016 A 
HETATM   28  C   UNL     1      21.829   9.022  32.863  1.00  0.00     0.003 A 
HETATM   29  C   UNL     1      21.988   9.223  31.492  1.00  0.00     0.029 A 
BRANCH  26  30
HETATM   30  C   UNL     1      25.100   7.343  33.753  1.00  0.00     0.417 C 
HETATM   31  F   UNL     1      24.798   7.190  35.076  1.00  0.00    -0.166 F 
HETATM   32  F   UNL     1      25.415   6.090  33.312  1.00  0.00    -0.166 F 
HETATM   33  F   UNL     1      26.270   8.047  33.723  1.00  0.00    -0.166 F 
ENDBRANCH  26  30
ENDBRANCH  22  24
ENDBRANCH   5  22
TORSDOF 7
ENDMDL
MODEL 2
REMARK VINA RESULT:      -7.6      3.443      8.055
REMARK  7 active torsions:
REMARK  status: ('A' for Active; 'I' for Inactive)
REMARK       I    between atoms: N_5  and  C_13 
REMARK    1  A    between atoms: N_5  and  C_14 
REMARK    2  A    between atoms: N_6  and  C_17 
REMARK    3  A    between atoms: N_6  and  C_20 
REMARK    4  A    between atoms: N_7  and  C_21 
REMARK    5  A    between atoms: N_7  and  C_23 
REMARK    6  A    between atoms: C_10  and  C_13 
REMARK    7  A    between atoms: C_24  and  C_29 
ROOT
HETATM    1  N   UNL     1      27.992  12.305  27.996  1.00  0.00    -0.224 NA
HETATM    2  N   UNL     1      29.910  10.910  27.576  1.00  0.00    -0.224 NA
HETATM    3  C   UNL     1      27.487  11.905  26.811  1.00  0.00     0.133 A 
HETATM    4  C   UNL     1      28.126  11.022  25.964  1.00  0.00     0.100 A 
HETATM    5  C   UNL     1      29.351  10.547  26.398  1.00  0.00     0.133 A 
HETATM    6  C   UNL     1      29.190  11.777  28.312  1.00  0.00     0.237 A 
ENDROOT
BRANCH   3   7
HETATM    7  N   UNL     1      26.231  12.412  26.397  1.00  0.00    -0.341 N 
HETATM    8  H   UNL     1      26.299  13.264  25.847  1.00  0.00     0.167 HD
BRANCH   7   9
HETATM    9  C   UNL     1      24.915  11.962  26.596  1.00  0.00     0.035 A 
HETATM   10  C   UNL     1      24.563  11.320  27.786  1.00  0.00     0.059 A 
HETATM   11  C   UNL     1      23.257  10.875  27.983  1.00  0.00     0.036 A 
HETATM   12  C   UNL     1      22.296  11.070  26.991  1.00  0.00     0.029 A 
HETATM   13  C   UNL     1      22.642  11.711  25.802  1.00  0.00     0.004 A 
HETATM   14  C   UNL     1      23.950  12.155  25.605  1.00  0.00     0.029 A 
BRANCH  11  15
HETATM   15  N   UNL     1      22.909  10.234  29.174  1.00  0.00    -0.327 N 
HETATM   16  C   UNL     1      23.560   9.169  29.800  1.00  0.00     0.226 C 
HETATM   17  O   UNL     1      24.569   8.583  29.429  1.00  0.00    -0.273 OA
HETATM   18  H   UNL     1      22.073  10.592  29.631  1.00  0.00     0.169 HD
BRANCH  16  19
HETATM   19  C   UNL     1      22.910   8.727  31.074  1.00  0.00     0.078 A 
HETATM   20  C   UNL     1      23.780   8.427  32.243  1.00  0.00     0.015 A 
HETATM   21  C   UNL     1      23.093   7.315  31.506  1.00  0.00     0.015 A 
ENDBRANCH  16  19
ENDBRANCH  11  15
ENDBRANCH   7   9
ENDBRANCH   3   7
BRANCH   5  22
HETATM   22  N   UNL     1      30.036   9.643  25.564  1.00  0.00    -0.341 N 
HETATM   23  H   UNL     1      29.747   9.708  24.590  1.00  0.00     0.167 HD
BRANCH  22  24
HETATM   24  C   UNL     1      30.781   8.476  25.829  1.00  0.00     0.034 A 
HETATM   25  C   UNL     1      30.155   7.229  25.816  1.00  0.00     0.045 A 
HETATM   26  C   UNL     1      30.893   6.075  26.077  1.00  0.00     0.050 A 
HETATM   27  C   UNL     1      32.258   6.167  26.351  1.00  0.00     0.016 A 
HETATM   28  C   UNL     1      32.884   7.413  26.365  1.00  0.00     0.003 A 
HETATM   29  C   UNL     1      32.146   8.568  26.103  1.00  0.00     0.029 A 
BRANCH  26  30
HETATM   30  C   UNL     1      30.224   4.742  26.063  1.00  0.00     0.417 C 
HETATM   31  F   UNL     1      29.636   4.412  27.251  1.00  0.00    -0.166 F 
HETATM   32  F   UNL     1      29.230   4.640  25.133  1.00  0.00    -0.166 F 
HETATM   33  F   UNL     1      31.090   3.723  25.788  1.00  0.00    -0.166 F 
ENDBRANCH  26  30
ENDBRANCH  22  24
ENDBRANCH   5  22
TORSDOF 7
ENDMDL
MODEL 3
REMARK VINA RESULT:      -7.5      3.423      4.405
REMARK  7 active torsions:
REMARK  status: ('A' for Active; 'I' for Inactive)
REMARK       I    between atoms: N_5  and  C_13 
REMARK    1  A    between atoms: N_5  and  C_14 
REMARK    2  A    between atoms: N_6  and  C_17 
REMARK    3  A    between atoms: N_6  and  C_20 
REMARK    4  A    between atoms: N_7  and  C_21 
REMARK    5  A    between atoms: N_7  and  C_23 
REMARK    6  A    between atoms: C_10  and  C_13 
REMARK    7  A    between atoms: C_24  and  C_29 
ROOT
HETATM    1  N   UNL     1      26.060  10.319  28.880  1.00  0.00    -0.224 NA
HETATM    2  N   UNL     1      23.658  10.361  28.694  1.00  0.00    -0.224 NA
HETATM    3  C   UNL     1      26.114  11.275  27.929  1.00  0.00     0.133 A 
HETATM    4  C   UNL     1      24.998  11.817  27.323  1.00  0.00     0.100 A 
HETATM    5  C   UNL     1      23.779  11.319  27.745  1.00  0.00     0.133 A 
HETATM    6  C   UNL     1      24.819   9.914  29.208  1.00  0.00     0.237 A 
ENDROOT
BRANCH   3   7
HETATM    7  N   UNL     1      27.380  11.761  27.520  1.00  0.00    -0.341 N 
HETATM    8  H   UNL     1      27.417  12.773  27.435  1.00  0.00     0.167 HD
BRANCH   7   9
HETATM    9  C   UNL     1      28.590  11.116  27.216  1.00  0.00     0.035 A 
HETATM   10  C   UNL     1      28.602   9.754  26.902  1.00  0.00     0.059 A 
HETATM   11  C   UNL     1      29.804   9.115  26.599  1.00  0.00     0.036 A 
HETATM   12  C   UNL     1      30.999   9.834  26.610  1.00  0.00     0.029 A 
HETATM   13  C   UNL     1      30.992  11.194  26.922  1.00  0.00     0.004 A 
HETATM   14  C   UNL     1      29.790  11.833  27.226  1.00  0.00     0.029 A 
BRANCH  11  15
HETATM   15  N   UNL     1      29.811   7.755  26.285  1.00  0.00    -0.327 N 
HETATM   16  C   UNL     1      30.161   7.153  25.074  1.00  0.00     0.226 C 
HETATM   17  O   UNL     1      30.532   7.700  24.044  1.00  0.00    -0.273 OA
HETATM   18  H   UNL     1      29.519   7.135  27.037  1.00  0.00     0.169 HD
BRANCH  16  19
HETATM   19  C   UNL     1      30.054   5.660  25.088  1.00  0.00     0.078 A 
HETATM   20  C   UNL     1      29.071   5.031  26.011  1.00  0.00     0.015 A 
HETATM   21  C   UNL     1      30.542   4.929  26.289  1.00  0.00     0.015 A 
ENDBRANCH  16  19
ENDBRANCH  11  15
ENDBRANCH   7   9
ENDBRANCH   3   7
BRANCH   5  22
HETATM   22  N   UNL     1      22.615  11.846  27.151  1.00  0.00    -0.341 N 
HETATM   23  H   UNL     1      22.809  12.628  26.530  1.00  0.00     0.167 HD
BRANCH  22  24
HETATM   24  C   UNL     1      21.246  11.737  27.472  1.00  0.00     0.034 A 
HETATM   25  C   UNL     1      20.840  11.723  28.807  1.00  0.00     0.045 A 
HETATM   26  C   UNL     1      19.487  11.617  29.123  1.00  0.00     0.050 A 
HETATM   27  C   UNL     1      18.538  11.524  28.105  1.00  0.00     0.016 A 
HETATM   28  C   UNL     1      18.943  11.537  26.770  1.00  0.00     0.003 A 
HETATM   29  C   UNL     1      20.298  11.644  26.454  1.00  0.00     0.029 A 
BRANCH  26  30
HETATM   30  C   UNL     1      19.052  11.602  30.550  1.00  0.00     0.417 C 
HETATM   31  F   UNL     1      17.762  12.010  30.734  1.00  0.00    -0.166 F 
HETATM   32  F   UNL     1      19.121  10.367  31.129  1.00  0.00    -0.166 F 
HETATM   33  F   UNL     1      19.811  12.419  31.339  1.00  0.00    -0.166 F 
ENDBRANCH  26  30
ENDBRANCH  22  24
ENDBRANCH   5  22
TORSDOF 7
ENDMDL
MODEL 4
REMARK VINA RESULT:      -7.3      4.703      8.471
REMARK  7 active torsions:
REMARK  status: ('A' for Active; 'I' for Inactive)
REMARK       I    between atoms: N_5  and  C_13 
REMARK    1  A    between atoms: N_5  and  C_14 
REMARK    2  A    between atoms: N_6  and  C_17 
REMARK    3  A    between atoms: N_6  and  C_20 
REMARK    4  A    between atoms: N_7  and  C_21 
REMARK    5  A    between atoms: N_7  and  C_23 
REMARK    6  A    between atoms: C_10  and  C_13 
REMARK    7  A    between atoms: C_24  and  C_29 
ROOT
HETATM    1  N   UNL     1      31.022  11.837  27.797  1.00  0.00    -0.224 NA
HETATM    2  N   UNL     1      31.818   9.664  27.127  1.00  0.00    -0.224 NA
HETATM    3  C   UNL     1      30.075  11.744  26.840  1.00  0.00     0.133 A 
HETATM    4  C   UNL     1      29.939  10.658  25.999  1.00  0.00     0.100 A 
HETATM    5  C   UNL     1      30.847   9.631  26.185  1.00  0.00     0.133 A 
HETATM    6  C   UNL     1      31.848  10.777  27.884  1.00  0.00     0.237 A 
ENDROOT
BRANCH   3   7
HETATM    7  N   UNL     1      29.163  12.815  26.677  1.00  0.00    -0.341 N 
HETATM    8  H   UNL     1      29.354  13.389  25.861  1.00  0.00     0.167 HD
BRANCH   7   9
HETATM    9  C   UNL     1      28.044  13.229  27.419  1.00  0.00     0.035 A 
HETATM   10  C   UNL     1      26.809  12.599  27.242  1.00  0.00     0.059 A 
HETATM   11  C   UNL     1      25.700  13.010  27.981  1.00  0.00     0.036 A 
HETATM   12  C   UNL     1      25.821  14.052  28.901  1.00  0.00     0.029 A 
HETATM   13  C   UNL     1      27.051  14.683  29.081  1.00  0.00     0.004 A 
HETATM   14  C   UNL     1      28.161  14.273  28.341  1.00  0.00     0.029 A 
BRANCH  11  15
HETATM   15  N   UNL     1      24.469  12.378  27.802  1.00  0.00    -0.327 N 
HETATM   16  C   UNL     1      24.090  11.098  28.212  1.00  0.00     0.226 C 
HETATM   17  O   UNL     1      24.764  10.272  28.815  1.00  0.00    -0.273 OA
HETATM   18  H   UNL     1      23.769  12.924  27.304  1.00  0.00     0.169 HD
BRANCH  16  19
HETATM   19  C   UNL     1      22.682  10.738  27.852  1.00  0.00     0.078 A 
HETATM   20  C   UNL     1      22.098  11.327  26.617  1.00  0.00     0.015 A 
HETATM   21  C   UNL     1      21.635  11.790  27.967  1.00  0.00     0.015 A 
ENDBRANCH  16  19
ENDBRANCH  11  15
ENDBRANCH   7   9
ENDBRANCH   3   7
BRANCH   5  22
HETATM   22  N   UNL     1      30.741   8.504  25.348  1.00  0.00    -0.341 N 
HETATM   23  H   UNL     1      30.545   8.748  24.380  1.00  0.00     0.167 HD
BRANCH  22  24
HETATM   24  C   UNL     1      30.532   7.134  25.612  1.00  0.00     0.034 A 
HETATM   25  C   UNL     1      31.619   6.263  25.686  1.00  0.00     0.045 A 
HETATM   26  C   UNL     1      31.412   4.910  25.949  1.00  0.00     0.050 A 
HETATM   27  C   UNL     1      30.118   4.426  26.138  1.00  0.00     0.016 A 
HETATM   28  C   UNL     1      29.030   5.296  26.064  1.00  0.00     0.003 A 
HETATM   29  C   UNL     1      29.238   6.651  25.801  1.00  0.00     0.029 A 
BRANCH  26  30
HETATM   30  C   UNL     1      32.575   3.978  26.027  1.00  0.00     0.417 C 
HETATM   31  F   UNL     1      33.109   3.665  24.811  1.00  0.00    -0.166 F 
HETATM   32  F   UNL     1      33.618   4.468  26.759  1.00  0.00    -0.166 F 
HETATM   33  F   UNL     1      32.252   2.783  26.604  1.00  0.00    -0.166 F 
ENDBRANCH  26  30
ENDBRANCH  22  24
ENDBRANCH   5  22
TORSDOF 7
ENDMDL
MODEL 5
REMARK VINA RESULT:      -7.3      2.265      2.700
REMARK  7 active torsions:
REMARK  status: ('A' for Active; 'I' for Inactive)
REMARK       I    between atoms: N_5  and  C_13 
REMARK    1  A    between atoms: N_5  and  C_14 
REMARK    2  A    between atoms: N_6  and  C_17 
REMARK    3  A    between atoms: N_6  and  C_20 
REMARK    4  A    between atoms: N_7  and  C_21 
REMARK    5  A    between atoms: N_7  and  C_23 
REMARK    6  A    between atoms: C_10  and  C_13 
REMARK    7  A    between atoms: C_24  and  C_29 
ROOT
HETATM    1  N   UNL     1      25.607  12.031  27.072  1.00  0.00    -0.224 NA
HETATM    2  N   UNL     1      23.930  10.688  28.163  1.00  0.00    -0.224 NA
HETATM    3  C   UNL     1      26.550  11.301  27.704  1.00  0.00     0.133 A 
HETATM    4  C   UNL     1      26.264  10.263  28.567  1.00  0.00     0.100 A 
HETATM    5  C   UNL     1      24.922   9.993  28.766  1.00  0.00     0.133 A 
HETATM    6  C   UNL     1      24.337  11.677  27.344  1.00  0.00     0.237 A 
ENDROOT
BRANCH   3   7
HETATM    7  N   UNL     1      27.914  11.606  27.478  1.00  0.00    -0.341 N 
HETATM    8  H   UNL     1      28.188  12.520  27.827  1.00  0.00     0.167 HD
BRANCH   7   9
HETATM    9  C   UNL     1      28.958  10.888  26.871  1.00  0.00     0.035 A 
HETATM   10  C   UNL     1      28.905   9.493  26.802  1.00  0.00     0.059 A 
HETATM   11  C   UNL     1      29.941   8.781  26.199  1.00  0.00     0.036 A 
HETATM   12  C   UNL     1      31.035   9.460  25.662  1.00  0.00     0.029 A 
HETATM   13  C   UNL     1      31.092  10.852  25.728  1.00  0.00     0.004 A 
HETATM   14  C   UNL     1      30.056  11.564  26.333  1.00  0.00     0.029 A 
BRANCH  11  15
HETATM   15  N   UNL     1      29.884   7.388  26.131  1.00  0.00    -0.327 N 
HETATM   16  C   UNL     1      29.411   6.595  25.083  1.00  0.00     0.226 C 
HETATM   17  O   UNL     1      28.951   6.966  24.011  1.00  0.00    -0.273 OA
HETATM   18  H   UNL     1      30.227   6.899  26.955  1.00  0.00     0.169 HD
BRANCH  16  19
HETATM   19  C   UNL     1      29.498   5.125  25.349  1.00  0.00     0.078 A 
HETATM   20  C   UNL     1      29.666   4.671  26.755  1.00  0.00     0.015 A 
HETATM   21  C   UNL     1      30.806   4.564  25.786  1.00  0.00     0.015 A 
ENDBRANCH  16  19
ENDBRANCH  11  15
ENDBRANCH   7   9
ENDBRANCH   3   7
BRANCH   5  22
HETATM   22  N   UNL     1      24.589   8.940  29.639  1.00  0.00    -0.341 N 
HETATM   23  H   UNL     1      24.809   8.023  29.256  1.00  0.00     0.167 HD
BRANCH  22  24
HETATM   24  C   UNL     1      23.742   8.865  30.765  1.00  0.00     0.034 A 
HETATM   25  C   UNL     1      22.512   9.524  30.759  1.00  0.00     0.045 A 
HETATM   26  C   UNL     1      21.675   9.448  31.871  1.00  0.00     0.050 A 
HETATM   27  C   UNL     1      22.067   8.712  32.990  1.00  0.00     0.016 A 
HETATM   28  C   UNL     1      23.296   8.054  32.997  1.00  0.00     0.003 A 
HETATM   29  C   UNL     1      24.133   8.130  31.884  1.00  0.00     0.029 A 
BRANCH  26  30
HETATM   30  C   UNL     1      20.360  10.153  31.865  1.00  0.00     0.417 C 
HETATM   31  F   UNL     1      19.316   9.361  31.482  1.00  0.00    -0.166 F 
HETATM   32  F   UNL     1      20.001  10.649  33.086  1.00  0.00    -0.166 F 
HETATM   33  F   UNL     1      20.341  11.221  31.015  1.00  0.00    -0.166 F 
ENDBRANCH  26  30
ENDBRANCH  22  24
ENDBRANCH   5  22
TORSDOF 7
ENDMDL
MODEL 6
REMARK VINA RESULT:      -7.1      4.299      5.433
REMARK  7 active torsions:
REMARK  status: ('A' for Active; 'I' for Inactive)
REMARK       I    between atoms: N_5  and  C_13 
REMARK    1  A    between atoms: N_5  and  C_14 
REMARK    2  A    between atoms: N_6  and  C_17 
REMARK    3  A    between atoms: N_6  and  C_20 
REMARK    4  A    between atoms: N_7  and  C_21 
REMARK    5  A    between atoms: N_7  and  C_23 
REMARK    6  A    between atoms: C_10  and  C_13 
REMARK    7  A    between atoms: C_24  and  C_29 
ROOT
HETATM    1  N   UNL     1      29.171  12.371  29.134  1.00  0.00    -0.224 NA
HETATM    2  N   UNL     1      26.827  12.929  29.084  1.00  0.00    -0.224 NA
HETATM    3  C   UNL     1      28.844  11.121  28.745  1.00  0.00     0.133 A 
HETATM    4  C   UNL     1      27.549  10.706  28.509  1.00  0.00     0.100 A 
HETATM    5  C   UNL     1      26.564  11.659  28.695  1.00  0.00     0.133 A 
HETATM    6  C   UNL     1      28.129  13.211  29.282  1.00  0.00     0.237 A 
ENDROOT
BRANCH   3   7
HETATM    7  N   UNL     1      29.877  10.170  28.565  1.00  0.00    -0.341 N 
HETATM    8  H   UNL     1      30.213   9.767  29.436  1.00  0.00     0.167 HD
BRANCH   7   9
HETATM    9  C   UNL     1      30.520   9.673  27.419  1.00  0.00     0.035 A 
HETATM   10  C   UNL     1      30.950   8.345  27.372  1.00  0.00     0.059 A 
HETATM   11  C   UNL     1      31.586   7.853  26.233  1.00  0.00     0.036 A 
HETATM   12  C   UNL     1      31.795   8.687  25.135  1.00  0.00     0.029 A 
HETATM   13  C   UNL     1      31.366  10.014  25.176  1.00  0.00     0.004 A 
HETATM   14  C   UNL     1      30.731  10.506  26.316  1.00  0.00     0.029 A 
BRANCH  11  15
HETATM   15  N   UNL     1      32.014   6.525  26.191  1.00  0.00    -0.327 N 
HETATM   16  C   UNL     1      31.242   5.377  26.002  1.00  0.00     0.226 C 
HETATM   17  O   UNL     1      30.032   5.306  25.833  1.00  0.00    -0.273 OA
HETATM   18  H   UNL     1      33.014   6.387  26.322  1.00  0.00     0.169 HD
BRANCH  16  19
HETATM   19  C   UNL     1      32.034   4.106  26.012  1.00  0.00     0.078 A 
HETATM   20  C   UNL     1      33.413   4.139  26.569  1.00  0.00     0.015 A 
HETATM   21  C   UNL     1      33.198   3.994  25.091  1.00  0.00     0.015 A 
ENDBRANCH  16  19
ENDBRANCH  11  15
ENDBRANCH   7   9
ENDBRANCH   3   7
BRANCH   5  22
HETATM   22  N   UNL     1      25.229  11.275  28.465  1.00  0.00    -0.341 N 
HETATM   23  H   UNL     1      24.928  10.511  29.065  1.00  0.00     0.167 HD
BRANCH  22  24
HETATM   24  C   UNL     1      24.345  11.497  27.389  1.00  0.00     0.034 A 
HETATM   25  C   UNL     1      22.969  11.365  27.577  1.00  0.00     0.045 A 
HETATM   26  C   UNL     1      22.095  11.585  26.513  1.00  0.00     0.050 A 
HETATM   27  C   UNL     1      22.596  11.938  25.260  1.00  0.00     0.016 A 
HETATM   28  C   UNL     1      23.972  12.070  25.071  1.00  0.00     0.003 A 
HETATM   29  C   UNL     1      24.846  11.849  26.136  1.00  0.00     0.029 A 
BRANCH  26  30
HETATM   30  C   UNL     1      20.623  11.444  26.714  1.00  0.00     0.417 C 
HETATM   31  F   UNL     1      19.887  12.385  26.053  1.00  0.00    -0.166 F 
HETATM   32  F   UNL     1      20.127  10.244  26.293  1.00  0.00    -0.166 F 
HETATM   33  F   UNL     1      20.260  11.550  28.026  1.00  0.00    -0.166 F 
ENDBRANCH  26  30
ENDBRANCH  22  24
ENDBRANCH   5  22
TORSDOF 7
ENDMDL
MODEL 7
REMARK VINA RESULT:      -7.0      4.370      8.206
REMARK  7 active torsions:
REMARK  status: ('A' for Active; 'I' for Inactive)
REMARK       I    between atoms: N_5  and  C_13 
REMARK    1  A    between atoms: N_5  and  C_14 
REMARK    2  A    between atoms: N_6  and  C_17 
REMARK    3  A    between atoms: N_6  and  C_20 
REMARK    4  A    between atoms: N_7  and  C_21 
REMARK    5  A    between atoms: N_7  and  C_23 
REMARK    6  A    between atoms: C_10  and  C_13 
REMARK    7  A    between atoms: C_24  and  C_29 
ROOT
HETATM    1  N   UNL     1      29.319  11.434  30.569  1.00  0.00    -0.224 NA
HETATM    2  N   UNL     1      31.105   9.847  30.255  1.00  0.00    -0.224 NA
HETATM    3  C   UNL     1      29.145  11.447  29.231  1.00  0.00     0.133 A 
HETATM    4  C   UNL     1      29.901  10.698  28.352  1.00  0.00     0.100 A 
HETATM    5  C   UNL     1      30.881   9.905  28.921  1.00  0.00     0.133 A 
HETATM    6  C   UNL     1      30.303  10.625  31.006  1.00  0.00     0.237 A 
ENDROOT
BRANCH   3   7
HETATM    7  N   UNL     1      28.133  12.272  28.682  1.00  0.00    -0.341 N 
HETATM    8  H   UNL     1      28.004  13.144  29.187  1.00  0.00     0.167 HD
BRANCH   7   9
HETATM    9  C   UNL     1      27.282  12.118  27.576  1.00  0.00     0.035 A 
HETATM   10  C   UNL     1      25.895  12.172  27.741  1.00  0.00     0.059 A 
HETATM   11  C   UNL     1      25.051  12.021  26.641  1.00  0.00     0.036 A 
HETATM   12  C   UNL     1      25.590  11.816  25.370  1.00  0.00     0.029 A 
HETATM   13  C   UNL     1      26.973  11.762  25.200  1.00  0.00     0.004 A 
HETATM   14  C   UNL     1      27.817  11.912  26.301  1.00  0.00     0.029 A 
BRANCH  11  15
HETATM   15  N   UNL     1      23.667  12.076  26.811  1.00  0.00    -0.327 N 
HETATM   16  C   UNL     1      22.868  11.283  27.638  1.00  0.00     0.226 C 
HETATM   17  O   UNL     1      23.225  10.379  28.382  1.00  0.00    -0.273 OA
HETATM   18  H   UNL     1      23.189  12.781  26.253  1.00  0.00     0.169 HD
BRANCH  16  19
HETATM   19  C   UNL     1      21.410  11.617  27.573  1.00  0.00     0.078 A 
HETATM   20  C   UNL     1      20.557  10.865  26.614  1.00  0.00     0.015 A 
HETATM   21  C   UNL     1      20.899  12.303  26.355  1.00  0.00     0.015 A 
ENDBRANCH  16  19
ENDBRANCH  11  15
ENDBRANCH   7   9
ENDBRANCH   3   7
BRANCH   5  22
HETATM   22  N   UNL     1      31.675   9.124  28.059  1.00  0.00    -0.341 N 
HETATM   23  H   UNL     1      32.669   9.320  28.151  1.00  0.00     0.167 HD
BRANCH  22  24
HETATM   24  C   UNL     1      31.376   8.383  26.897  1.00  0.00     0.034 A 
HETATM   25  C   UNL     1      30.863   7.090  27.006  1.00  0.00     0.045 A 
HETATM   26  C   UNL     1      30.567   6.358  25.856  1.00  0.00     0.050 A 
HETATM   27  C   UNL     1      30.784   6.919  24.597  1.00  0.00     0.016 A 
HETATM   28  C   UNL     1      31.298   8.211  24.488  1.00  0.00     0.003 A 
HETATM   29  C   UNL     1      31.594   8.943  25.638  1.00  0.00     0.029 A 
BRANCH  26  30
HETATM   30  C   UNL     1      30.017   4.976  25.972  1.00  0.00     0.417 C 
HETATM   31  F   UNL     1      29.532   4.682  27.214  1.00  0.00    -0.166 F 
HETATM   32  F   UNL     1      28.983   4.726  25.117  1.00  0.00    -0.166 F 
HETATM   33  F   UNL     1      30.952   4.016  25.707  1.00  0.00    -0.166 F 
ENDBRANCH  26  30
ENDBRANCH  22  24
ENDBRANCH   5  22
TORSDOF 7
ENDMDL
MODEL 8
REMARK VINA RESULT:      -7.0     20.487     22.569
REMARK  7 active torsions:
REMARK  status: ('A' for Active; 'I' for Inactive)
REMARK       I    between atoms: N_5  and  C_13 
REMARK    1  A    between atoms: N_5  and  C_14 
REMARK    2  A    between atoms: N_6  and  C_17 
REMARK    3  A    between atoms: N_6  and  C_20 
REMARK    4  A    between atoms: N_7  and  C_21 
REMARK    5  A    between atoms: N_7  and  C_23 
REMARK    6  A    between atoms: C_10  and  C_13 
REMARK    7  A    between atoms: C_24  and  C_29 
ROOT
HETATM    1  N   UNL     1      13.954  -5.734  40.902  1.00  0.00    -0.224 NA
HETATM    2  N   UNL     1      15.651  -7.143  39.932  1.00  0.00    -0.224 NA
HETATM    3  C   UNL     1      14.937  -5.004  41.470  1.00  0.00     0.133 A 
HETATM    4  C   UNL     1      16.281  -5.278  41.317  1.00  0.00     0.100 A 
HETATM    5  C   UNL     1      16.590  -6.373  40.529  1.00  0.00     0.133 A 
HETATM    6  C   UNL     1      14.376  -6.774  40.158  1.00  0.00     0.237 A 
ENDROOT
BRANCH   3   7
HETATM    7  N   UNL     1      14.585  -3.891  42.272  1.00  0.00    -0.341 N 
HETATM    8  H   UNL     1      14.101  -3.160  41.758  1.00  0.00     0.167 HD
BRANCH   7   9
HETATM    9  C   UNL     1      14.770  -3.609  43.635  1.00  0.00     0.035 A 
HETATM   10  C   UNL     1      16.028  -3.767  44.223  1.00  0.00     0.059 A 
HETATM   11  C   UNL     1      16.210  -3.484  45.576  1.00  0.00     0.036 A 
HETATM   12  C   UNL     1      15.135  -3.042  46.348  1.00  0.00     0.029 A 
HETATM   13  C   UNL     1      13.878  -2.883  45.766  1.00  0.00     0.004 A 
HETATM   14  C   UNL     1      13.695  -3.166  44.412  1.00  0.00     0.029 A 
BRANCH  11  15
HETATM   15  N   UNL     1      17.468  -3.643  46.159  1.00  0.00    -0.327 N 
HETATM   16  C   UNL     1      18.703  -3.204  45.676  1.00  0.00     0.226 C 
HETATM   17  O   UNL     1      18.928  -2.589  44.642  1.00  0.00    -0.273 OA
HETATM   18  H   UNL     1      17.476  -4.148  47.043  1.00  0.00     0.169 HD
BRANCH  16  19
HETATM   19  C   UNL     1      19.858  -3.548  46.564  1.00  0.00     0.078 A 
HETATM   20  C   UNL     1      21.218  -3.106  46.155  1.00  0.00     0.015 A 
HETATM   21  C   UNL     1      20.841  -4.556  46.082  1.00  0.00     0.015 A 
ENDBRANCH  16  19
ENDBRANCH  11  15
ENDBRANCH   7   9
ENDBRANCH   3   7
BRANCH   5  22
HETATM   22  N   UNL     1      17.951  -6.686  40.348  1.00  0.00    -0.341 N 
HETATM   23  H   UNL     1      18.144  -7.094  39.436  1.00  0.00     0.167 HD
BRANCH  22  24
HETATM   24  C   UNL     1      19.021  -6.852  41.251  1.00  0.00     0.034 A 
HETATM   25  C   UNL     1      19.945  -5.824  41.436  1.00  0.00     0.045 A 
HETATM   26  C   UNL     1      21.002  -5.989  42.331  1.00  0.00     0.050 A 
HETATM   27  C   UNL     1      21.135  -7.183  43.041  1.00  0.00     0.016 A 
HETATM   28  C   UNL     1      20.211  -8.211  42.856  1.00  0.00     0.003 A 
HETATM   29  C   UNL     1      19.154  -8.046  41.961  1.00  0.00     0.029 A 
BRANCH  26  30
HETATM   30  C   UNL     1      21.991  -4.890  42.529  1.00  0.00     0.417 C 
HETATM   31  F   UNL     1      22.931  -5.164  43.480  1.00  0.00    -0.166 F 
HETATM   32  F   UNL     1      22.701  -4.585  41.403  1.00  0.00    -0.166 F 
HETATM   33  F   UNL     1      21.405  -3.720  42.920  1.00  0.00    -0.166 F 
ENDBRANCH  26  30
ENDBRANCH  22  24
ENDBRANCH   5  22
TORSDOF 7
ENDMDL
MODEL 9
REMARK VINA RESULT:      -6.9      1.975      2.624
REMARK  7 active torsions:
REMARK  status: ('A' for Active; 'I' for Inactive)
REMARK       I    between atoms: N_5  and  C_13 
REMARK    1  A    between atoms: N_5  and  C_14 
REMARK    2  A    between atoms: N_6  and  C_17 
REMARK    3  A    between atoms: N_6  and  C_20 
REMARK    4  A    between atoms: N_7  and  C_21 
REMARK    5  A    between atoms: N_7  and  C_23 
REMARK    6  A    between atoms: C_10  and  C_13 
REMARK    7  A    between atoms: C_24  and  C_29 
ROOT
HETATM    1  N   UNL     1      23.964  11.730  25.857  1.00  0.00    -0.224 NA
HETATM    2  N   UNL     1      21.591  11.702  26.274  1.00  0.00    -0.224 NA
HETATM    3  C   UNL     1      24.162  11.583  27.184  1.00  0.00     0.133 A 
HETATM    4  C   UNL     1      23.139  11.490  28.105  1.00  0.00     0.100 A 
HETATM    5  C   UNL     1      21.855  11.556  27.593  1.00  0.00     0.133 A 
HETATM    6  C   UNL     1      22.673  11.782  25.477  1.00  0.00     0.237 A 
ENDROOT
BRANCH   3   7
HETATM    7  N   UNL     1      25.489  11.520  27.673  1.00  0.00    -0.341 N 
HETATM    8  H   UNL     1      25.567  11.742  28.662  1.00  0.00     0.167 HD
BRANCH   7   9
HETATM    9  C   UNL     1      26.712  11.204  27.059  1.00  0.00     0.035 A 
HETATM   10  C   UNL     1      27.297   9.950  27.258  1.00  0.00     0.059 A 
HETATM   11  C   UNL     1      28.510   9.636  26.646  1.00  0.00     0.036 A 
HETATM   12  C   UNL     1      29.144  10.575  25.832  1.00  0.00     0.029 A 
HETATM   13  C   UNL     1      28.565  11.828  25.631  1.00  0.00     0.004 A 
HETATM   14  C   UNL     1      27.352  12.142  26.243  1.00  0.00     0.029 A 
BRANCH  11  15
HETATM   15  N   UNL     1      29.089   8.383  26.847  1.00  0.00    -0.327 N 
HETATM   16  C   UNL     1      29.244   7.347  25.922  1.00  0.00     0.226 C 
HETATM   17  O   UNL     1      28.901   7.333  24.747  1.00  0.00    -0.273 OA
HETATM   18  H   UNL     1      29.434   8.210  27.789  1.00  0.00     0.169 HD
BRANCH  16  19
HETATM   19  C   UNL     1      29.915   6.132  26.481  1.00  0.00     0.078 A 
HETATM   20  C   UNL     1      30.601   5.208  25.538  1.00  0.00     0.015 A 
HETATM   21  C   UNL     1      29.314   4.800  26.194  1.00  0.00     0.015 A 
ENDBRANCH  16  19
ENDBRANCH  11  15
ENDBRANCH   7   9
ENDBRANCH   3   7
BRANCH   5  22
HETATM   22  N   UNL     1      20.783  11.464  28.501  1.00  0.00    -0.341 N 
HETATM   23  H   UNL     1      19.959  11.976  28.193  1.00  0.00     0.167 HD
BRANCH  22  24
HETATM   24  C   UNL     1      20.711  11.095  29.860  1.00  0.00     0.034 A 
HETATM   25  C   UNL     1      21.514  10.063  30.347  1.00  0.00     0.045 A 
HETATM   26  C   UNL     1      21.444   9.700  31.692  1.00  0.00     0.050 A 
HETATM   27  C   UNL     1      20.570  10.368  32.550  1.00  0.00     0.016 A 
HETATM   28  C   UNL     1      19.767  11.399  32.064  1.00  0.00     0.003 A 
HETATM   29  C   UNL     1      19.837  11.762  30.718  1.00  0.00     0.029 A 
BRANCH  26  30
HETATM   30  C   UNL     1      22.303   8.597  32.213  1.00  0.00     0.417 C 
HETATM   31  F   UNL     1      23.632   8.909  32.249  1.00  0.00    -0.166 F 
HETATM   32  F   UNL     1      21.991   8.218  33.487  1.00  0.00    -0.166 F 
HETATM   33  F   UNL     1      22.213   7.461  31.460  1.00  0.00    -0.166 F 
ENDBRANCH  26  30
ENDBRANCH  22  24
ENDBRANCH   5  22
TORSDOF 7
ENDMDL
