MODEL 1
REMARK VINA RESULT:      -7.9      0.000      0.000
REMARK  7 active torsions:
REMARK  status: ('A' for Active; 'I' for Inactive)
REMARK       I    between atoms: N_5  and  C_13 
REMARK    1  A    between atoms: N_5  and  C_14 
REMARK    2  A    between atoms: N_6  and  C_17 
REMARK    3  A    between atoms: N_6  and  C_20 
REMARK    4  A    between atoms: N_7  and  C_21 
REMARK    5  A    between atoms: N_7  and  C_23 
REMARK    6  A    between atoms: C_10  and  C_13 
REMARK    7  A    between atoms: C_24  and  C_29 
ROOT
HETATM    1  N   UNL     1      24.712  11.956  27.240  1.00  0.00    -0.224 NA
HETATM    2  N   UNL     1      22.817  10.654  27.963  1.00  0.00    -0.224 NA
HETATM    3  C   UNL     1      25.479  11.242  28.090  1.00  0.00     0.133 A 
HETATM    4  C   UNL     1      24.995  10.233  28.897  1.00  0.00     0.100 A 
HETATM    5  C   UNL     1      23.640   9.974  28.795  1.00  0.00     0.133 A 
HETATM    6  C   UNL     1      23.409  11.615  27.229  1.00  0.00     0.237 A 
ENDROOT
BRANCH   3   7
HETATM    7  N   UNL     1      26.863  11.534  28.169  1.00  0.00    -0.341 N 
HETATM    8  H   UNL     1      27.109  12.116  28.965  1.00  0.00     0.167 HD
BRANCH   7   9
HETATM    9  C   UNL     1      27.956  11.170  27.365  1.00  0.00     0.035 A 
HETATM   10  C   UNL     1      28.077   9.860  26.893  1.00  0.00     0.059 A 
HETATM   11  C   UNL     1      29.162   9.500  26.095  1.00  0.00     0.036 A 
HETATM   12  C   UNL     1      30.131  10.448  25.764  1.00  0.00     0.029 A 
HETATM   13  C   UNL     1      30.014  11.756  26.232  1.00  0.00     0.004 A 
HETATM   14  C   UNL     1      28.929  12.116  27.032  1.00  0.00     0.029 A 
BRANCH  11  15
HETATM   15  N   UNL     1      29.279   8.191  25.625  1.00  0.00    -0.327 N 
HETATM   16  C   UNL     1      30.114   7.177  26.099  1.00  0.00     0.226 C 
HETATM   17  O   UNL     1      30.912   7.234  27.025  1.00  0.00    -0.273 OA
HETATM   18  H   UNL     1      28.681   7.959  24.835  1.00  0.00     0.169 HD
BRANCH  16  19
HETATM   19  C   UNL     1      29.980   5.884  25.355  1.00  0.00     0.078 A 
HETATM   20  C   UNL     1      29.336   4.736  26.047  1.00  0.00     0.015 A 
HETATM   21  C   UNL     1      30.814   4.731  25.791  1.00  0.00     0.015 A 
ENDBRANCH  16  19
ENDBRANCH  11  15
ENDBRANCH   7   9
ENDBRANCH   3   7
BRANCH   5  22
HETATM   22  N   UNL     1      23.106   8.951  29.602  1.00  0.00    -0.341 N 
HETATM   23  H   UNL     1      22.443   8.361  29.104  1.00  0.00     0.167 HD
BRANCH  22  24
HETATM   24  C   UNL     1      23.047   8.769  30.999  1.00  0.00     0.034 A 
HETATM   25  C   UNL     1      24.108   8.159  31.670  1.00  0.00     0.045 A 
HETATM   26  C   UNL     1      24.049   7.982  33.051  1.00  0.00     0.050 A 
HETATM   27  C   UNL     1      22.930   8.413  33.763  1.00  0.00     0.016 A 
HETATM   28  C   UNL     1      21.869   9.023  33.094  1.00  0.00     0.003 A 
HETATM   29  C   UNL     1      21.928   9.201  31.711  1.00  0.00     0.029 A 
BRANCH  26  30
HETATM   30  C   UNL     1      25.183   7.330  33.769  1.00  0.00     0.417 C 
HETATM   31  F   UNL     1      26.352   8.031  33.697  1.00  0.00    -0.166 F 
HETATM   32  F   UNL     1      24.955   7.152  35.104  1.00  0.00    -0.166 F 
HETATM   33  F   UNL     1      25.470   6.088  33.279  1.00  0.00    -0.166 F 
ENDBRANCH  26  30
ENDBRANCH  22  24
ENDBRANCH   5  22
TORSDOF 7
ENDMDL
MODEL 2
REMARK VINA RESULT:      -7.8      4.156      8.556
REMARK  7 active torsions:
REMARK  status: ('A' for Active; 'I' for Inactive)
REMARK       I    between atoms: N_5  and  C_13 
REMARK    1  A    between atoms: N_5  and  C_14 
REMARK    2  A    between atoms: N_6  and  C_17 
REMARK    3  A    between atoms: N_6  and  C_20 
REMARK    4  A    between atoms: N_7  and  C_21 
REMARK    5  A    between atoms: N_7  and  C_23 
REMARK    6  A    between atoms: C_10  and  C_13 
REMARK    7  A    between atoms: C_24  and  C_29 
ROOT
HETATM    1  N   UNL     1      29.247  11.221  28.511  1.00  0.00    -0.224 NA
HETATM    2  N   UNL     1      30.905   9.626  27.795  1.00  0.00    -0.224 NA
HETATM    3  C   UNL     1      28.488  10.849  27.459  1.00  0.00     0.133 A 
HETATM    4  C   UNL     1      28.864   9.885  26.545  1.00  0.00     0.100 A 
HETATM    5  C   UNL     1      30.097   9.296  26.760  1.00  0.00     0.133 A 
HETATM    6  C   UNL     1      30.426  10.579  28.616  1.00  0.00     0.237 A 
ENDROOT
BRANCH   3   7
HETATM    7  N   UNL     1      27.231  11.473  27.269  1.00  0.00    -0.341 N 
HETATM    8  H   UNL     1      27.277  12.308  26.691  1.00  0.00     0.167 HD
BRANCH   7   9
HETATM    9  C   UNL     1      25.939  11.158  27.719  1.00  0.00     0.035 A 
HETATM   10  C   UNL     1      25.758  10.233  28.751  1.00  0.00     0.059 A 
HETATM   11  C   UNL     1      24.475   9.922  29.198  1.00  0.00     0.036 A 
HETATM   12  C   UNL     1      23.365  10.534  28.615  1.00  0.00     0.029 A 
HETATM   13  C   UNL     1      23.540  11.458  27.585  1.00  0.00     0.004 A 
HETATM   14  C   UNL     1      24.824  11.769  27.138  1.00  0.00     0.029 A 
BRANCH  11  15
HETATM   15  N   UNL     1      24.299   8.998  30.230  1.00  0.00    -0.327 N 
HETATM   16  C   UNL     1      23.177   8.816  31.041  1.00  0.00     0.226 C 
HETATM   17  O   UNL     1      22.120   9.432  31.009  1.00  0.00    -0.273 OA
HETATM   18  H   UNL     1      25.096   8.390  30.408  1.00  0.00     0.169 HD
BRANCH  16  19
HETATM   19  C   UNL     1      23.334   7.725  32.055  1.00  0.00     0.078 A 
HETATM   20  C   UNL     1      22.608   7.854  33.347  1.00  0.00     0.015 A 
HETATM   21  C   UNL     1      24.098   8.023  33.297  1.00  0.00     0.015 A 
ENDBRANCH  16  19
ENDBRANCH  11  15
ENDBRANCH   7   9
ENDBRANCH   3   7
BRANCH   5  22
HETATM   22  N   UNL     1      30.518   8.307  25.850  1.00  0.00    -0.341 N 
HETATM   23  H   UNL     1      30.578   8.650  24.894  1.00  0.00     0.167 HD
BRANCH  22  24
HETATM   24  C   UNL     1      30.562   6.900  25.923  1.00  0.00     0.034 A 
HETATM   25  C   UNL     1      31.789   6.243  26.024  1.00  0.00     0.045 A 
HETATM   26  C   UNL     1      31.831   4.851  26.097  1.00  0.00     0.050 A 
HETATM   27  C   UNL     1      30.646   4.115  26.069  1.00  0.00     0.016 A 
HETATM   28  C   UNL     1      29.419   4.771  25.968  1.00  0.00     0.003 A 
HETATM   29  C   UNL     1      29.377   6.164  25.895  1.00  0.00     0.029 A 
BRANCH  26  30
HETATM   30  C   UNL     1      33.142   4.149  26.205  1.00  0.00     0.417 C 
HETATM   31  F   UNL     1      33.053   2.903  26.756  1.00  0.00    -0.166 F 
HETATM   32  F   UNL     1      33.763   3.963  25.003  1.00  0.00    -0.166 F 
HETATM   33  F   UNL     1      34.039   4.827  26.980  1.00  0.00    -0.166 F 
ENDBRANCH  26  30
ENDBRANCH  22  24
ENDBRANCH   5  22
TORSDOF 7
ENDMDL
MODEL 3
REMARK VINA RESULT:      -7.5      4.061      8.584
REMARK  7 active torsions:
REMARK  status: ('A' for Active; 'I' for Inactive)
REMARK       I    between atoms: N_5  and  C_13 
REMARK    1  A    between atoms: N_5  and  C_14 
REMARK    2  A    between atoms: N_6  and  C_17 
REMARK    3  A    between atoms: N_6  and  C_20 
REMARK    4  A    between atoms: N_7  and  C_21 
REMARK    5  A    between atoms: N_7  and  C_23 
REMARK    6  A    between atoms: C_10  and  C_13 
REMARK    7  A    between atoms: C_24  and  C_29 
ROOT
HETATM    1  N   UNL     1      27.909  13.494  25.576  1.00  0.00    -0.224 NA
HETATM    2  N   UNL     1      29.812  12.658  24.357  1.00  0.00    -0.224 NA
HETATM    3  C   UNL     1      28.188  12.603  26.550  1.00  0.00     0.133 A 
HETATM    4  C   UNL     1      29.248  11.720  26.501  1.00  0.00     0.100 A 
HETATM    5  C   UNL     1      30.040  11.788  25.368  1.00  0.00     0.133 A 
HETATM    6  C   UNL     1      28.748  13.467  24.523  1.00  0.00     0.237 A 
ENDROOT
BRANCH   3   7
HETATM    7  N   UNL     1      27.356  12.560  27.695  1.00  0.00    -0.341 N 
HETATM    8  H   UNL     1      27.579  13.273  28.384  1.00  0.00     0.167 HD
BRANCH   7   9
HETATM    9  C   UNL     1      26.283  11.729  28.056  1.00  0.00     0.035 A 
HETATM   10  C   UNL     1      24.970  12.108  27.764  1.00  0.00     0.059 A 
HETATM   11  C   UNL     1      23.905  11.282  28.122  1.00  0.00     0.036 A 
HETATM   12  C   UNL     1      24.148  10.072  28.773  1.00  0.00     0.029 A 
HETATM   13  C   UNL     1      25.456   9.690  29.067  1.00  0.00     0.004 A 
HETATM   14  C   UNL     1      26.522  10.517  28.710  1.00  0.00     0.029 A 
BRANCH  11  15
HETATM   15  N   UNL     1      22.595  11.664  27.827  1.00  0.00    -0.327 N 
HETATM   16  C   UNL     1      21.992  11.776  26.572  1.00  0.00     0.226 C 
HETATM   17  O   UNL     1      22.494  11.560  25.477  1.00  0.00    -0.273 OA
HETATM   18  H   UNL     1      22.018  11.893  28.634  1.00  0.00     0.169 HD
BRANCH  16  19
HETATM   19  C   UNL     1      20.562  12.214  26.624  1.00  0.00     0.078 A 
HETATM   20  C   UNL     1      19.768  11.887  27.839  1.00  0.00     0.015 A 
HETATM   21  C   UNL     1      19.503  11.172  26.547  1.00  0.00     0.015 A 
ENDBRANCH  16  19
ENDBRANCH  11  15
ENDBRANCH   7   9
ENDBRANCH   3   7
BRANCH   5  22
HETATM   22  N   UNL     1      31.132  10.904  25.279  1.00  0.00    -0.341 N 
HETATM   23  H   UNL     1      31.852  11.229  24.637  1.00  0.00     0.167 HD
BRANCH  22  24
HETATM   24  C   UNL     1      31.293   9.547  25.629  1.00  0.00     0.034 A 
HETATM   25  C   UNL     1      30.307   8.618  25.297  1.00  0.00     0.045 A 
HETATM   26  C   UNL     1      30.468   7.277  25.642  1.00  0.00     0.050 A 
HETATM   27  C   UNL     1      31.615   6.863  26.318  1.00  0.00     0.016 A 
HETATM   28  C   UNL     1      32.602   7.791  26.651  1.00  0.00     0.003 A 
HETATM   29  C   UNL     1      32.441   9.133  26.305  1.00  0.00     0.029 A 
BRANCH  26  30
HETATM   30  C   UNL     1      29.413   6.283  25.287  1.00  0.00     0.417 C 
HETATM   31  F   UNL     1      29.905   5.046  24.984  1.00  0.00    -0.166 F 
HETATM   32  F   UNL     1      28.505   6.070  26.286  1.00  0.00    -0.166 F 
HETATM   33  F   UNL     1      28.679   6.661  24.200  1.00  0.00    -0.166 F 
ENDBRANCH  26  30
ENDBRANCH  22  24
ENDBRANCH   5  22
TORSDOF 7
ENDMDL
MODEL 4
REMARK VINA RESULT:      -7.2      3.695      8.303
REMARK  7 active torsions:
REMARK  status: ('A' for Active; 'I' for Inactive)
REMARK       I    between atoms: N_5  and  C_13 
REMARK    1  A    between atoms: N_5  and  C_14 
REMARK    2  A    between atoms: N_6  and  C_17 
REMARK    3  A    between atoms: N_6  and  C_20 
REMARK    4  A    between atoms: N_7  and  C_21 
REMARK    5  A    between atoms: N_7  and  C_23 
REMARK    6  A    between atoms: C_10  and  C_13 
REMARK    7  A    between atoms: C_24  and  C_29 
ROOT
HETATM    1  N   UNL     1      28.294  12.142  25.937  1.00  0.00    -0.224 NA
HETATM    2  N   UNL     1      30.259  10.748  25.897  1.00  0.00    -0.224 NA
HETATM    3  C   UNL     1      27.989  11.614  27.141  1.00  0.00     0.133 A 
HETATM    4  C   UNL     1      28.759  10.663  27.778  1.00  0.00     0.100 A 
HETATM    5  C   UNL     1      29.898  10.257  27.106  1.00  0.00     0.133 A 
HETATM    6  C   UNL     1      29.425  11.671  25.380  1.00  0.00     0.237 A 
ENDROOT
BRANCH   3   7
HETATM    7  N   UNL     1      26.814  12.052  27.800  1.00  0.00    -0.341 N 
HETATM    8  H   UNL     1      26.870  13.010  28.132  1.00  0.00     0.167 HD
BRANCH   7   9
HETATM    9  C   UNL     1      25.590  11.419  28.075  1.00  0.00     0.035 A 
HETATM   10  C   UNL     1      25.498  10.483  29.108  1.00  0.00     0.059 A 
HETATM   11  C   UNL     1      24.283   9.857  29.382  1.00  0.00     0.036 A 
HETATM   12  C   UNL     1      23.153  10.165  28.623  1.00  0.00     0.029 A 
HETATM   13  C   UNL     1      23.239  11.099  27.592  1.00  0.00     0.004 A 
HETATM   14  C   UNL     1      24.456  11.725  27.318  1.00  0.00     0.029 A 
BRANCH  11  15
HETATM   15  N   UNL     1      24.195   8.922  30.415  1.00  0.00    -0.327 N 
HETATM   16  C   UNL     1      23.128   8.702  31.289  1.00  0.00     0.226 C 
HETATM   17  O   UNL     1      22.053   9.286  31.322  1.00  0.00    -0.273 OA
HETATM   18  H   UNL     1      25.019   8.338  30.542  1.00  0.00     0.169 HD
BRANCH  16  19
HETATM   19  C   UNL     1      23.376   7.611  32.284  1.00  0.00     0.078 A 
HETATM   20  C   UNL     1      23.138   7.902  33.723  1.00  0.00     0.015 A 
HETATM   21  C   UNL     1      24.537   7.748  33.205  1.00  0.00     0.015 A 
ENDBRANCH  16  19
ENDBRANCH  11  15
ENDBRANCH   7   9
ENDBRANCH   3   7
BRANCH   5  22
HETATM   22  N   UNL     1      30.712   9.288  27.722  1.00  0.00    -0.341 N 
HETATM   23  H   UNL     1      31.096   9.601  28.611  1.00  0.00     0.167 HD
BRANCH  22  24
HETATM   24  C   UNL     1      31.354   8.130  27.235  1.00  0.00     0.034 A 
HETATM   25  C   UNL     1      30.603   7.006  26.894  1.00  0.00     0.045 A 
HETATM   26  C   UNL     1      31.239   5.863  26.411  1.00  0.00     0.050 A 
HETATM   27  C   UNL     1      32.626   5.843  26.269  1.00  0.00     0.016 A 
HETATM   28  C   UNL     1      33.378   6.967  26.610  1.00  0.00     0.003 A 
HETATM   29  C   UNL     1      32.742   8.111  27.093  1.00  0.00     0.029 A 
BRANCH  26  30
HETATM   30  C   UNL     1      30.435   4.659  26.047  1.00  0.00     0.417 C 
HETATM   31  F   UNL     1      29.602   4.858  24.983  1.00  0.00    -0.166 F 
HETATM   32  F   UNL     1      31.196   3.578  25.705  1.00  0.00    -0.166 F 
HETATM   33  F   UNL     1      29.633   4.235  27.067  1.00  0.00    -0.166 F 
ENDBRANCH  26  30
ENDBRANCH  22  24
ENDBRANCH   5  22
TORSDOF 7
ENDMDL
MODEL 5
REMARK VINA RESULT:      -7.1      2.407      2.859
REMARK  7 active torsions:
REMARK  status: ('A' for Active; 'I' for Inactive)
REMARK       I    between atoms: N_5  and  C_13 
REMARK    1  A    between atoms: N_5  and  C_14 
REMARK    2  A    between atoms: N_6  and  C_17 
REMARK    3  A    between atoms: N_6  and  C_20 
REMARK    4  A    between atoms: N_7  and  C_21 
REMARK    5  A    between atoms: N_7  and  C_23 
REMARK    6  A    between atoms: C_10  and  C_13 
REMARK    7  A    between atoms: C_24  and  C_29 
ROOT
HETATM    1  N   UNL     1      26.052  12.277  27.395  1.00  0.00    -0.224 NA
HETATM    2  N   UNL     1      24.183  10.962  28.158  1.00  0.00    -0.224 NA
HETATM    3  C   UNL     1      26.872  11.406  28.019  1.00  0.00     0.133 A 
HETATM    4  C   UNL     1      26.428  10.304  28.722  1.00  0.00     0.100 A 
HETATM    5  C   UNL     1      25.057  10.124  28.762  1.00  0.00     0.133 A 
HETATM    6  C   UNL     1      24.739  11.999  27.504  1.00  0.00     0.237 A 
ENDROOT
BRANCH   3   7
HETATM    7  N   UNL     1      28.270  11.621  27.958  1.00  0.00    -0.341 N 
HETATM    8  H   UNL     1      28.613  12.262  28.667  1.00  0.00     0.167 HD
BRANCH   7   9
HETATM    9  C   UNL     1      29.271  11.115  27.112  1.00  0.00     0.035 A 
HETATM   10  C   UNL     1      29.246   9.776  26.713  1.00  0.00     0.059 A 
HETATM   11  C   UNL     1      30.239   9.275  25.872  1.00  0.00     0.036 A 
HETATM   12  C   UNL     1      31.262  10.111  25.425  1.00  0.00     0.029 A 
HETATM   13  C   UNL     1      31.292  11.449  25.820  1.00  0.00     0.004 A 
HETATM   14  C   UNL     1      30.298  11.949  26.662  1.00  0.00     0.029 A 
BRANCH  11  15
HETATM   15  N   UNL     1      30.209   7.937  25.477  1.00  0.00    -0.327 N 
HETATM   16  C   UNL     1      31.007   6.885  25.934  1.00  0.00     0.226 C 
HETATM   17  O   UNL     1      31.893   6.928  26.777  1.00  0.00    -0.273 OA
HETATM   18  H   UNL     1      29.521   7.711  24.761  1.00  0.00     0.169 HD
BRANCH  16  19
HETATM   19  C   UNL     1      30.703   5.570  25.288  1.00  0.00     0.078 A 
HETATM   20  C   UNL     1      29.409   4.909  25.608  1.00  0.00     0.015 A 
HETATM   21  C   UNL     1      30.695   4.351  26.142  1.00  0.00     0.015 A 
ENDBRANCH  16  19
ENDBRANCH  11  15
ENDBRANCH   7   9
ENDBRANCH   3   7
BRANCH   5  22
HETATM   22  N   UNL     1      24.563   9.011  29.469  1.00  0.00    -0.341 N 
HETATM   23  H   UNL     1      24.617   8.147  28.934  1.00  0.00     0.167 HD
BRANCH  22  24
HETATM   24  C   UNL     1      23.735   8.892  30.604  1.00  0.00     0.034 A 
HETATM   25  C   UNL     1      22.507   9.553  30.646  1.00  0.00     0.045 A 
HETATM   26  C   UNL     1      21.688   9.433  31.768  1.00  0.00     0.050 A 
HETATM   27  C   UNL     1      22.096   8.651  32.849  1.00  0.00     0.016 A 
HETATM   28  C   UNL     1      23.323   7.990  32.808  1.00  0.00     0.003 A 
HETATM   29  C   UNL     1      24.142   8.110  31.685  1.00  0.00     0.029 A 
BRANCH  26  30
HETATM   30  C   UNL     1      20.375  10.141  31.813  1.00  0.00     0.417 C 
HETATM   31  F   UNL     1      20.315  11.234  30.998  1.00  0.00    -0.166 F 
HETATM   32  F   UNL     1      19.320   9.359  31.439  1.00  0.00    -0.166 F 
HETATM   33  F   UNL     1      20.068  10.598  33.062  1.00  0.00    -0.166 F 
ENDBRANCH  26  30
ENDBRANCH  22  24
ENDBRANCH   5  22
TORSDOF 7
ENDMDL
MODEL 6
REMARK VINA RESULT:      -7.1      5.825     10.141
REMARK  7 active torsions:
REMARK  status: ('A' for Active; 'I' for Inactive)
REMARK       I    between atoms: N_5  and  C_13 
REMARK    1  A    between atoms: N_5  and  C_14 
REMARK    2  A    between atoms: N_6  and  C_17 
REMARK    3  A    between atoms: N_6  and  C_20 
REMARK    4  A    between atoms: N_7  and  C_21 
REMARK    5  A    between atoms: N_7  and  C_23 
REMARK    6  A    between atoms: C_10  and  C_13 
REMARK    7  A    between atoms: C_24  and  C_29 
ROOT
HETATM    1  N   UNL     1      30.111  10.706  31.316  1.00  0.00    -0.224 NA
HETATM    2  N   UNL     1      30.549  10.694  28.947  1.00  0.00    -0.224 NA
HETATM    3  C   UNL     1      31.016   9.714  31.451  1.00  0.00     0.133 A 
HETATM    4  C   UNL     1      31.718   9.169  30.395  1.00  0.00     0.100 A 
HETATM    5  C   UNL     1      31.445   9.700  29.148  1.00  0.00     0.133 A 
HETATM    6  C   UNL     1      29.928  11.141  30.055  1.00  0.00     0.237 A 
ENDROOT
BRANCH   3   7
HETATM    7  N   UNL     1      31.270   9.194  32.743  1.00  0.00    -0.341 N 
HETATM    8  H   UNL     1      32.229   9.327  33.052  1.00  0.00     0.167 HD
BRANCH   7   9
HETATM    9  C   UNL     1      30.454   8.537  33.678  1.00  0.00     0.035 A 
HETATM   10  C   UNL     1      30.367   9.009  34.991  1.00  0.00     0.059 A 
HETATM   11  C   UNL     1      29.554   8.357  35.918  1.00  0.00     0.036 A 
HETATM   12  C   UNL     1      28.825   7.231  35.537  1.00  0.00     0.029 A 
HETATM   13  C   UNL     1      28.908   6.756  34.229  1.00  0.00     0.004 A 
HETATM   14  C   UNL     1      29.722   7.408  33.301  1.00  0.00     0.029 A 
BRANCH  11  15
HETATM   15  N   UNL     1      29.470   8.833  37.228  1.00  0.00    -0.327 N 
HETATM   16  C   UNL     1      29.062  10.096  37.661  1.00  0.00     0.226 C 
HETATM   17  O   UNL     1      28.695  11.042  36.976  1.00  0.00    -0.273 OA
HETATM   18  H   UNL     1      29.748   8.170  37.949  1.00  0.00     0.169 HD
BRANCH  16  19
HETATM   19  C   UNL     1      29.092  10.265  39.148  1.00  0.00     0.078 A 
HETATM   20  C   UNL     1      30.269  10.943  39.757  1.00  0.00     0.015 A 
HETATM   21  C   UNL     1      30.076   9.465  39.928  1.00  0.00     0.015 A 
ENDBRANCH  16  19
ENDBRANCH  11  15
ENDBRANCH   7   9
ENDBRANCH   3   7
BRANCH   5  22
HETATM   22  N   UNL     1      32.141   9.171  28.044  1.00  0.00    -0.341 N 
HETATM   23  H   UNL     1      32.621   9.885  27.501  1.00  0.00     0.167 HD
BRANCH  22  24
HETATM   24  C   UNL     1      32.054   7.940  27.361  1.00  0.00     0.034 A 
HETATM   25  C   UNL     1      30.839   7.530  26.812  1.00  0.00     0.045 A 
HETATM   26  C   UNL     1      30.754   6.314  26.135  1.00  0.00     0.050 A 
HETATM   27  C   UNL     1      31.884   5.507  26.007  1.00  0.00     0.016 A 
HETATM   28  C   UNL     1      33.099   5.916  26.556  1.00  0.00     0.003 A 
HETATM   29  C   UNL     1      33.184   7.133  27.233  1.00  0.00     0.029 A 
BRANCH  26  30
HETATM   30  C   UNL     1      29.454   5.876  25.547  1.00  0.00     0.417 C 
HETATM   31  F   UNL     1      28.390   6.044  26.386  1.00  0.00    -0.166 F 
HETATM   32  F   UNL     1      29.118   6.545  24.406  1.00  0.00    -0.166 F 
HETATM   33  F   UNL     1      29.450   4.552  25.211  1.00  0.00    -0.166 F 
ENDBRANCH  26  30
ENDBRANCH  22  24
ENDBRANCH   5  22
TORSDOF 7
ENDMDL
MODEL 7
REMARK VINA RESULT:      -7.0      4.428      8.325
REMARK  7 active torsions:
REMARK  status: ('A' for Active; 'I' for Inactive)
REMARK       I    between atoms: N_5  and  C_13 
REMARK    1  A    between atoms: N_5  and  C_14 
REMARK    2  A    between atoms: N_6  and  C_17 
REMARK    3  A    between atoms: N_6  and  C_20 
REMARK    4  A    between atoms: N_7  and  C_21 
REMARK    5  A    between atoms: N_7  and  C_23 
REMARK    6  A    between atoms: C_10  and  C_13 
REMARK    7  A    between atoms: C_24  and  C_29 
ROOT
HETATM    1  N   UNL     1      29.318  11.200  30.590  1.00  0.00    -0.224 NA
HETATM    2  N   UNL     1      31.228   9.818  30.093  1.00  0.00    -0.224 NA
HETATM    3  C   UNL     1      29.124  11.344  29.262  1.00  0.00     0.133 A 
HETATM    4  C   UNL     1      29.928  10.764  28.302  1.00  0.00     0.100 A 
HETATM    5  C   UNL     1      30.981  10.001  28.775  1.00  0.00     0.133 A 
HETATM    6  C   UNL     1      30.373  10.436  30.930  1.00  0.00     0.237 A 
ENDROOT
BRANCH   3   7
HETATM    7  N   UNL     1      28.037  12.133  28.813  1.00  0.00    -0.341 N 
HETATM    8  H   UNL     1      27.814  12.906  29.434  1.00  0.00     0.167 HD
BRANCH   7   9
HETATM    9  C   UNL     1      27.215  12.056  27.676  1.00  0.00     0.035 A 
HETATM   10  C   UNL     1      25.824  12.074  27.809  1.00  0.00     0.059 A 
HETATM   11  C   UNL     1      25.010  11.999  26.680  1.00  0.00     0.036 A 
HETATM   12  C   UNL     1      25.583  11.906  25.411  1.00  0.00     0.029 A 
HETATM   13  C   UNL     1      26.971  11.888  25.273  1.00  0.00     0.004 A 
HETATM   14  C   UNL     1      27.785  11.962  26.403  1.00  0.00     0.029 A 
BRANCH  11  15
HETATM   15  N   UNL     1      23.622  12.018  26.818  1.00  0.00    -0.327 N 
HETATM   16  C   UNL     1      22.832  11.265  27.689  1.00  0.00     0.226 C 
HETATM   17  O   UNL     1      23.202  10.435  28.509  1.00  0.00    -0.273 OA
HETATM   18  H   UNL     1      23.133  12.660  26.197  1.00  0.00     0.169 HD
BRANCH  16  19
HETATM   19  C   UNL     1      21.366  11.541  27.570  1.00  0.00     0.078 A 
HETATM   20  C   UNL     1      20.615  10.898  26.457  1.00  0.00     0.015 A 
HETATM   21  C   UNL     1      20.896  12.372  26.428  1.00  0.00     0.015 A 
ENDBRANCH  16  19
ENDBRANCH  11  15
ENDBRANCH   7   9
ENDBRANCH   3   7
BRANCH   5  22
HETATM   22  N   UNL     1      31.825   9.392  27.827  1.00  0.00    -0.341 N 
HETATM   23  H   UNL     1      32.387  10.063  27.309  1.00  0.00     0.167 HD
BRANCH  22  24
HETATM   24  C   UNL     1      31.826   8.113  27.232  1.00  0.00     0.034 A 
HETATM   25  C   UNL     1      30.648   7.592  26.695  1.00  0.00     0.045 A 
HETATM   26  C   UNL     1      30.650   6.329  26.105  1.00  0.00     0.050 A 
HETATM   27  C   UNL     1      31.830   5.586  26.051  1.00  0.00     0.016 A 
HETATM   28  C   UNL     1      33.007   6.107  26.587  1.00  0.00     0.003 A 
HETATM   29  C   UNL     1      33.005   7.371  27.177  1.00  0.00     0.029 A 
BRANCH  26  30
HETATM   30  C   UNL     1      29.391   5.771  25.531  1.00  0.00     0.417 C 
HETATM   31  F   UNL     1      29.503   4.472  25.125  1.00  0.00    -0.166 F 
HETATM   32  F   UNL     1      28.342   5.782  26.405  1.00  0.00    -0.166 F 
HETATM   33  F   UNL     1      28.962   6.462  24.435  1.00  0.00    -0.166 F 
ENDBRANCH  26  30
ENDBRANCH  22  24
ENDBRANCH   5  22
TORSDOF 7
ENDMDL
MODEL 8
REMARK VINA RESULT:      -6.9      5.127      8.038
REMARK  7 active torsions:
REMARK  status: ('A' for Active; 'I' for Inactive)
REMARK       I    between atoms: N_5  and  C_13 
REMARK    1  A    between atoms: N_5  and  C_14 
REMARK    2  A    between atoms: N_6  and  C_17 
REMARK    3  A    between atoms: N_6  and  C_20 
REMARK    4  A    between atoms: N_7  and  C_21 
REMARK    5  A    between atoms: N_7  and  C_23 
REMARK    6  A    between atoms: C_10  and  C_13 
REMARK    7  A    between atoms: C_24  and  C_29 
ROOT
HETATM    1  N   UNL     1      27.041  14.088  25.888  1.00  0.00    -0.224 NA
HETATM    2  N   UNL     1      28.059  12.184  24.819  1.00  0.00    -0.224 NA
HETATM    3  C   UNL     1      26.534  13.250  26.815  1.00  0.00     0.133 A 
HETATM    4  C   UNL     1      26.743  11.885  26.811  1.00  0.00     0.100 A 
HETATM    5  C   UNL     1      27.522  11.395  25.779  1.00  0.00     0.133 A 
HETATM    6  C   UNL     1      27.783  13.497  24.932  1.00  0.00     0.237 A 
ENDROOT
BRANCH   3   7
HETATM    7  N   UNL     1      25.739  13.785  27.858  1.00  0.00    -0.341 N 
HETATM    8  H   UNL     1      24.741  13.702  27.690  1.00  0.00     0.167 HD
BRANCH   7   9
HETATM    9  C   UNL     1      26.066  14.401  29.078  1.00  0.00     0.035 A 
HETATM   10  C   UNL     1      26.788  13.701  30.049  1.00  0.00     0.059 A 
HETATM   11  C   UNL     1      27.113  14.314  31.258  1.00  0.00     0.036 A 
HETATM   12  C   UNL     1      26.717  15.629  31.503  1.00  0.00     0.029 A 
HETATM   13  C   UNL     1      25.997  16.332  30.537  1.00  0.00     0.004 A 
HETATM   14  C   UNL     1      25.671  15.718  29.327  1.00  0.00     0.029 A 
BRANCH  11  15
HETATM   15  N   UNL     1      27.835  13.612  32.225  1.00  0.00    -0.327 N 
HETATM   16  C   UNL     1      29.059  13.954  32.803  1.00  0.00     0.226 C 
HETATM   17  O   UNL     1      29.745  14.942  32.577  1.00  0.00    -0.273 OA
HETATM   18  H   UNL     1      27.410  12.741  32.536  1.00  0.00     0.169 HD
BRANCH  16  19
HETATM   19  C   UNL     1      29.549  12.965  33.814  1.00  0.00     0.078 A 
HETATM   20  C   UNL     1      30.491  11.905  33.365  1.00  0.00     0.015 A 
HETATM   21  C   UNL     1      29.073  11.558  33.711  1.00  0.00     0.015 A 
ENDBRANCH  16  19
ENDBRANCH  11  15
ENDBRANCH   7   9
ENDBRANCH   3   7
BRANCH   5  22
HETATM   22  N   UNL     1      27.760  10.008  25.739  1.00  0.00    -0.341 N 
HETATM   23  H   UNL     1      26.906   9.464  25.632  1.00  0.00     0.167 HD
BRANCH  22  24
HETATM   24  C   UNL     1      28.859   9.216  26.129  1.00  0.00     0.034 A 
HETATM   25  C   UNL     1      28.951   7.890  25.706  1.00  0.00     0.045 A 
HETATM   26  C   UNL     1      30.039   7.109  26.091  1.00  0.00     0.050 A 
HETATM   27  C   UNL     1      31.037   7.652  26.900  1.00  0.00     0.016 A 
HETATM   28  C   UNL     1      30.946   8.978  27.324  1.00  0.00     0.003 A 
HETATM   29  C   UNL     1      29.857   9.760  26.938  1.00  0.00     0.029 A 
BRANCH  26  30
HETATM   30  C   UNL     1      30.137   5.690  25.639  1.00  0.00     0.417 C 
HETATM   31  F   UNL     1      28.926   5.074  25.503  1.00  0.00    -0.166 F 
HETATM   32  F   UNL     1      30.749   5.545  24.427  1.00  0.00    -0.166 F 
HETATM   33  F   UNL     1      30.849   4.911  26.505  1.00  0.00    -0.166 F 
ENDBRANCH  26  30
ENDBRANCH  22  24
ENDBRANCH   5  22
TORSDOF 7
ENDMDL
MODEL 9
REMARK VINA RESULT:      -6.8      4.540      8.095
REMARK  7 active torsions:
REMARK  status: ('A' for Active; 'I' for Inactive)
REMARK       I    between atoms: N_5  and  C_13 
REMARK    1  A    between atoms: N_5  and  C_14 
REMARK    2  A    between atoms: N_6  and  C_17 
REMARK    3  A    between atoms: N_6  and  C_20 
REMARK    4  A    between atoms: N_7  and  C_21 
REMARK    5  A    between atoms: N_7  and  C_23 
REMARK    6  A    between atoms: C_10  and  C_13 
REMARK    7  A    between atoms: C_24  and  C_29 
ROOT
HETATM    1  N   UNL     1      27.396  11.332  28.972  1.00  0.00    -0.224 NA
HETATM    2  N   UNL     1      27.785   9.865  27.101  1.00  0.00    -0.224 NA
HETATM    3  C   UNL     1      28.716  11.615  28.977  1.00  0.00     0.133 A 
HETATM    4  C   UNL     1      29.620  11.070  28.088  1.00  0.00     0.100 A 
HETATM    5  C   UNL     1      29.098  10.190  27.158  1.00  0.00     0.133 A 
HETATM    6  C   UNL     1      27.005  10.462  28.022  1.00  0.00     0.237 A 
ENDROOT
BRANCH   3   7
HETATM    7  N   UNL     1      29.216  12.520  29.945  1.00  0.00    -0.341 N 
HETATM    8  H   UNL     1      29.563  13.388  29.545  1.00  0.00     0.167 HD
BRANCH   7   9
HETATM    9  C   UNL     1      29.318  12.452  31.344  1.00  0.00     0.035 A 
HETATM   10  C   UNL     1      29.058  11.252  32.011  1.00  0.00     0.059 A 
HETATM   11  C   UNL     1      29.160  11.185  33.400  1.00  0.00     0.036 A 
HETATM   12  C   UNL     1      29.524  12.318  34.129  1.00  0.00     0.029 A 
HETATM   13  C   UNL     1      29.785  13.518  33.467  1.00  0.00     0.004 A 
HETATM   14  C   UNL     1      29.681  13.585  32.078  1.00  0.00     0.029 A 
BRANCH  11  15
HETATM   15  N   UNL     1      28.900   9.984  34.062  1.00  0.00    -0.327 N 
HETATM   16  C   UNL     1      29.661   8.813  34.053  1.00  0.00     0.226 C 
HETATM   17  O   UNL     1      30.712   8.606  33.460  1.00  0.00    -0.273 OA
HETATM   18  H   UNL     1      28.045   9.969  34.613  1.00  0.00     0.169 HD
BRANCH  16  19
HETATM   19  C   UNL     1      29.083   7.708  34.881  1.00  0.00     0.078 A 
HETATM   20  C   UNL     1      28.770   6.416  34.214  1.00  0.00     0.015 A 
HETATM   21  C   UNL     1      27.662   7.328  34.655  1.00  0.00     0.015 A 
ENDBRANCH  16  19
ENDBRANCH  11  15
ENDBRANCH   7   9
ENDBRANCH   3   7
BRANCH   5  22
HETATM   22  N   UNL     1      29.987   9.612  26.231  1.00  0.00    -0.341 N 
HETATM   23  H   UNL     1      29.866   9.975  25.288  1.00  0.00     0.167 HD
BRANCH  22  24
HETATM   24  C   UNL     1      30.768   8.438  26.262  1.00  0.00     0.034 A 
HETATM   25  C   UNL     1      30.156   7.189  26.158  1.00  0.00     0.045 A 
HETATM   26  C   UNL     1      30.930   6.029  26.186  1.00  0.00     0.050 A 
HETATM   27  C   UNL     1      32.315   6.118  26.319  1.00  0.00     0.016 A 
HETATM   28  C   UNL     1      32.928   7.366  26.424  1.00  0.00     0.003 A 
HETATM   29  C   UNL     1      32.154   8.527  26.395  1.00  0.00     0.029 A 
BRANCH  26  30
HETATM   30  C   UNL     1      30.275   4.693  26.075  1.00  0.00     0.417 C 
HETATM   31  F   UNL     1      31.145   3.679  25.792  1.00  0.00    -0.166 F 
HETATM   32  F   UNL     1      29.633   4.303  27.215  1.00  0.00    -0.166 F 
HETATM   33  F   UNL     1      29.331   4.651  25.090  1.00  0.00    -0.166 F 
ENDBRANCH  26  30
ENDBRANCH  22  24
ENDBRANCH   5  22
TORSDOF 7
ENDMDL
