MODEL 1
REMARK VINA RESULT:      -7.8      0.000      0.000
REMARK  7 active torsions:
REMARK  status: ('A' for Active; 'I' for Inactive)
REMARK       I    between atoms: N_5  and  C_13 
REMARK    1  A    between atoms: N_5  and  C_14 
REMARK    2  A    between atoms: N_6  and  C_17 
REMARK    3  A    between atoms: N_6  and  C_20 
REMARK    4  A    between atoms: N_7  and  C_21 
REMARK    5  A    between atoms: N_7  and  C_23 
REMARK    6  A    between atoms: C_10  and  C_13 
REMARK    7  A    between atoms: C_24  and  C_29 
ROOT
HETATM    1  N   UNL     1      24.983  12.152  27.303  1.00  0.00    -0.224 NA
HETATM    2  N   UNL     1      23.073  10.851  27.985  1.00  0.00    -0.224 NA
HETATM    3  C   UNL     1      25.755  11.352  28.067  1.00  0.00     0.133 A 
HETATM    4  C   UNL     1      25.265  10.295  28.807  1.00  0.00     0.100 A 
HETATM    5  C   UNL     1      23.900  10.084  28.732  1.00  0.00     0.133 A 
HETATM    6  C   UNL     1      23.670  11.851  27.309  1.00  0.00     0.237 A 
ENDROOT
BRANCH   3   7
HETATM    7  N   UNL     1      27.148  11.597  28.121  1.00  0.00    -0.341 N 
HETATM    8  H   UNL     1      27.426  12.186  28.902  1.00  0.00     0.167 HD
BRANCH   7   9
HETATM    9  C   UNL     1      28.217  11.178  27.311  1.00  0.00     0.035 A 
HETATM   10  C   UNL     1      28.289   9.855  26.869  1.00  0.00     0.059 A 
HETATM   11  C   UNL     1      29.349   9.441  26.063  1.00  0.00     0.036 A 
HETATM   12  C   UNL     1      30.343  10.349  25.696  1.00  0.00     0.029 A 
HETATM   13  C   UNL     1      30.275  11.671  26.135  1.00  0.00     0.004 A 
HETATM   14  C   UNL     1      29.215  12.085  26.942  1.00  0.00     0.029 A 
BRANCH  11  15
HETATM   15  N   UNL     1      29.417   8.118  25.623  1.00  0.00    -0.327 N 
HETATM   16  C   UNL     1      30.331   7.131  25.998  1.00  0.00     0.226 C 
HETATM   17  O   UNL     1      31.258   7.230  26.792  1.00  0.00    -0.273 OA
HETATM   18  H   UNL     1      28.711   7.852  24.939  1.00  0.00     0.169 HD
BRANCH  16  19
HETATM   19  C   UNL     1      30.109   5.813  25.324  1.00  0.00     0.078 A 
HETATM   20  C   UNL     1      29.206   4.829  25.980  1.00  0.00     0.015 A 
HETATM   21  C   UNL     1      30.688   4.594  25.953  1.00  0.00     0.015 A 
ENDBRANCH  16  19
ENDBRANCH  11  15
ENDBRANCH   7   9
ENDBRANCH   3   7
BRANCH   5  22
HETATM   22  N   UNL     1      23.361   9.015  29.473  1.00  0.00    -0.341 N 
HETATM   23  H   UNL     1      22.780   8.398  28.910  1.00  0.00     0.167 HD
BRANCH  22  24
HETATM   24  C   UNL     1      23.193   8.801  30.857  1.00  0.00     0.034 A 
HETATM   25  C   UNL     1      24.208   8.197  31.599  1.00  0.00     0.045 A 
HETATM   26  C   UNL     1      24.041   7.988  32.968  1.00  0.00     0.050 A 
HETATM   27  C   UNL     1      22.859   8.383  33.595  1.00  0.00     0.016 A 
HETATM   28  C   UNL     1      21.844   8.987  32.854  1.00  0.00     0.003 A 
HETATM   29  C   UNL     1      22.011   9.196  31.484  1.00  0.00     0.029 A 
BRANCH  26  30
HETATM   30  C   UNL     1      25.126   7.342  33.762  1.00  0.00     0.417 C 
HETATM   31  F   UNL     1      26.294   8.049  33.770  1.00  0.00    -0.166 F 
HETATM   32  F   UNL     1      24.808   7.163  35.077  1.00  0.00    -0.166 F 
HETATM   33  F   UNL     1      25.453   6.101  33.292  1.00  0.00    -0.166 F 
ENDBRANCH  26  30
ENDBRANCH  22  24
ENDBRANCH   5  22
TORSDOF 7
ENDMDL
MODEL 2
REMARK VINA RESULT:      -7.4      3.891      8.553
REMARK  7 active torsions:
REMARK  status: ('A' for Active; 'I' for Inactive)
REMARK       I    between atoms: N_5  and  C_13 
REMARK    1  A    between atoms: N_5  and  C_14 
REMARK    2  A    between atoms: N_6  and  C_17 
REMARK    3  A    between atoms: N_6  and  C_20 
REMARK    4  A    between atoms: N_7  and  C_21 
REMARK    5  A    between atoms: N_7  and  C_23 
REMARK    6  A    between atoms: C_10  and  C_13 
REMARK    7  A    between atoms: C_24  and  C_29 
ROOT
HETATM    1  N   UNL     1      27.897  12.322  25.992  1.00  0.00    -0.224 NA
HETATM    2  N   UNL     1      30.043  11.308  25.573  1.00  0.00    -0.224 NA
HETATM    3  C   UNL     1      27.903  11.741  27.210  1.00  0.00     0.133 A 
HETATM    4  C   UNL     1      28.928  10.942  27.674  1.00  0.00     0.100 A 
HETATM    5  C   UNL     1      29.988  10.753  26.806  1.00  0.00     0.133 A 
HETATM    6  C   UNL     1      28.982  12.066  25.236  1.00  0.00     0.237 A 
ENDROOT
BRANCH   3   7
HETATM    7  N   UNL     1      26.800  11.954  28.073  1.00  0.00    -0.341 N 
HETATM    8  H   UNL     1      26.831  12.848  28.555  1.00  0.00     0.167 HD
BRANCH   7   9
HETATM    9  C   UNL     1      25.674  11.174  28.384  1.00  0.00     0.035 A 
HETATM   10  C   UNL     1      24.399  11.588  27.989  1.00  0.00     0.059 A 
HETATM   11  C   UNL     1      23.283  10.812  28.296  1.00  0.00     0.036 A 
HETATM   12  C   UNL     1      23.436   9.617  29.000  1.00  0.00     0.029 A 
HETATM   13  C   UNL     1      24.706   9.199  29.396  1.00  0.00     0.004 A 
HETATM   14  C   UNL     1      25.823   9.976  29.089  1.00  0.00     0.029 A 
BRANCH  11  15
HETATM   15  N   UNL     1      22.011  11.229  27.899  1.00  0.00    -0.327 N 
HETATM   16  C   UNL     1      21.618  11.726  26.654  1.00  0.00     0.226 C 
HETATM   17  O   UNL     1      22.311  11.893  25.660  1.00  0.00    -0.273 OA
HETATM   18  H   UNL     1      21.291  11.165  28.615  1.00  0.00     0.169 HD
BRANCH  16  19
HETATM   19  C   UNL     1      20.165  12.079  26.575  1.00  0.00     0.078 A 
HETATM   20  C   UNL     1      19.316  11.843  27.774  1.00  0.00     0.015 A 
HETATM   21  C   UNL     1      19.171  10.972  26.561  1.00  0.00     0.015 A 
ENDBRANCH  16  19
ENDBRANCH  11  15
ENDBRANCH   7   9
ENDBRANCH   3   7
BRANCH   5  22
HETATM   22  N   UNL     1      31.056   9.944  27.241  1.00  0.00    -0.341 N 
HETATM   23  H   UNL     1      31.809  10.480  27.667  1.00  0.00     0.167 HD
BRANCH  22  24
HETATM   24  C   UNL     1      31.440   8.623  26.932  1.00  0.00     0.034 A 
HETATM   25  C   UNL     1      30.469   7.648  26.705  1.00  0.00     0.045 A 
HETATM   26  C   UNL     1      30.850   6.342  26.397  1.00  0.00     0.050 A 
HETATM   27  C   UNL     1      32.203   6.011  26.317  1.00  0.00     0.016 A 
HETATM   28  C   UNL     1      33.174   6.986  26.545  1.00  0.00     0.003 A 
HETATM   29  C   UNL     1      32.793   8.292  26.852  1.00  0.00     0.029 A 
BRANCH  26  30
HETATM   30  C   UNL     1      29.812   5.299  26.154  1.00  0.00     0.417 C 
HETATM   31  F   UNL     1      29.922   4.215  26.976  1.00  0.00    -0.166 F 
HETATM   32  F   UNL     1      28.534   5.749  26.328  1.00  0.00    -0.166 F 
HETATM   33  F   UNL     1      29.855   4.801  24.883  1.00  0.00    -0.166 F 
ENDBRANCH  26  30
ENDBRANCH  22  24
ENDBRANCH   5  22
TORSDOF 7
ENDMDL
MODEL 3
REMARK VINA RESULT:      -7.2      4.229      5.290
REMARK  7 active torsions:
REMARK  status: ('A' for Active; 'I' for Inactive)
REMARK       I    between atoms: N_5  and  C_13 
REMARK    1  A    between atoms: N_5  and  C_14 
REMARK    2  A    between atoms: N_6  and  C_17 
REMARK    3  A    between atoms: N_6  and  C_20 
REMARK    4  A    between atoms: N_7  and  C_21 
REMARK    5  A    between atoms: N_7  and  C_23 
REMARK    6  A    between atoms: C_10  and  C_13 
REMARK    7  A    between atoms: C_24  and  C_29 
ROOT
HETATM    1  N   UNL     1      28.647  13.106  29.661  1.00  0.00    -0.224 NA
HETATM    2  N   UNL     1      26.242  13.074  29.531  1.00  0.00    -0.224 NA
HETATM    3  C   UNL     1      28.661  11.925  29.008  1.00  0.00     0.133 A 
HETATM    4  C   UNL     1      27.523  11.267  28.589  1.00  0.00     0.100 A 
HETATM    5  C   UNL     1      26.322  11.891  28.879  1.00  0.00     0.133 A 
HETATM    6  C   UNL     1      27.422  13.615  29.888  1.00  0.00     0.237 A 
ENDROOT
BRANCH   3   7
HETATM    7  N   UNL     1      29.908  11.315  28.728  1.00  0.00    -0.341 N 
HETATM    8  H   UNL     1      30.488  11.181  29.552  1.00  0.00     0.167 HD
BRANCH   7   9
HETATM    9  C   UNL     1      30.492  10.855  27.536  1.00  0.00     0.035 A 
HETATM   10  C   UNL     1      30.295   9.536  27.118  1.00  0.00     0.059 A 
HETATM   11  C   UNL     1      30.874   9.081  25.934  1.00  0.00     0.036 A 
HETATM   12  C   UNL     1      31.653   9.943  25.162  1.00  0.00     0.029 A 
HETATM   13  C   UNL     1      31.853  11.260  25.574  1.00  0.00     0.004 A 
HETATM   14  C   UNL     1      31.274  11.715  26.759  1.00  0.00     0.029 A 
BRANCH  11  15
HETATM   15  N   UNL     1      30.673   7.763  25.520  1.00  0.00    -0.327 N 
HETATM   16  C   UNL     1      31.416   6.631  25.863  1.00  0.00     0.226 C 
HETATM   17  O   UNL     1      32.393   6.568  26.597  1.00  0.00    -0.273 OA
HETATM   18  H   UNL     1      29.890   7.622  24.886  1.00  0.00     0.169 HD
BRANCH  16  19
HETATM   19  C   UNL     1      30.917   5.367  25.233  1.00  0.00     0.078 A 
HETATM   20  C   UNL     1      29.624   4.805  25.707  1.00  0.00     0.015 A 
HETATM   21  C   UNL     1      30.916   4.125  26.053  1.00  0.00     0.015 A 
ENDBRANCH  16  19
ENDBRANCH  11  15
ENDBRANCH   7   9
ENDBRANCH   3   7
BRANCH   5  22
HETATM   22  N   UNL     1      25.137  11.252  28.469  1.00  0.00    -0.341 N 
HETATM   23  H   UNL     1      25.023  10.328  28.881  1.00  0.00     0.167 HD
BRANCH  22  24
HETATM   24  C   UNL     1      24.258  11.473  27.389  1.00  0.00     0.034 A 
HETATM   25  C   UNL     1      22.881  11.339  27.569  1.00  0.00     0.045 A 
HETATM   26  C   UNL     1      22.012  11.560  26.501  1.00  0.00     0.050 A 
HETATM   27  C   UNL     1      22.520  11.915  25.251  1.00  0.00     0.016 A 
HETATM   28  C   UNL     1      23.896  12.049  25.070  1.00  0.00     0.003 A 
HETATM   29  C   UNL     1      24.765  11.828  26.139  1.00  0.00     0.029 A 
BRANCH  26  30
HETATM   30  C   UNL     1      20.540  11.416  26.694  1.00  0.00     0.417 C 
HETATM   31  F   UNL     1      20.045  10.219  26.262  1.00  0.00    -0.166 F 
HETATM   32  F   UNL     1      20.148  11.513  27.999  1.00  0.00    -0.166 F 
HETATM   33  F   UNL     1      19.827  12.369  26.025  1.00  0.00    -0.166 F 
ENDBRANCH  26  30
ENDBRANCH  22  24
ENDBRANCH   5  22
TORSDOF 7
ENDMDL
MODEL 4
REMARK VINA RESULT:      -7.0      4.684      8.240
REMARK  7 active torsions:
REMARK  status: ('A' for Active; 'I' for Inactive)
REMARK       I    between atoms: N_5  and  C_13 
REMARK    1  A    between atoms: N_5  and  C_14 
REMARK    2  A    between atoms: N_6  and  C_17 
REMARK    3  A    between atoms: N_6  and  C_20 
REMARK    4  A    between atoms: N_7  and  C_21 
REMARK    5  A    between atoms: N_7  and  C_23 
REMARK    6  A    between atoms: C_10  and  C_13 
REMARK    7  A    between atoms: C_24  and  C_29 
ROOT
HETATM    1  N   UNL     1      28.957  12.628  30.464  1.00  0.00    -0.224 NA
HETATM    2  N   UNL     1      30.607  10.876  30.593  1.00  0.00    -0.224 NA
HETATM    3  C   UNL     1      28.689  12.231  29.203  1.00  0.00     0.133 A 
HETATM    4  C   UNL     1      29.328  11.179  28.577  1.00  0.00     0.100 A 
HETATM    5  C   UNL     1      30.292  10.527  29.324  1.00  0.00     0.133 A 
HETATM    6  C   UNL     1      29.914  11.917  31.091  1.00  0.00     0.237 A 
ENDROOT
BRANCH   3   7
HETATM    7  N   UNL     1      27.696  12.922  28.467  1.00  0.00    -0.341 N 
HETATM    8  H   UNL     1      27.455  13.827  28.862  1.00  0.00     0.167 HD
BRANCH   7   9
HETATM    9  C   UNL     1      26.988  12.602  27.296  1.00  0.00     0.035 A 
HETATM   10  C   UNL     1      25.608  12.388  27.344  1.00  0.00     0.059 A 
HETATM   11  C   UNL     1      24.907  12.072  26.181  1.00  0.00     0.036 A 
HETATM   12  C   UNL     1      25.582  11.968  24.964  1.00  0.00     0.029 A 
HETATM   13  C   UNL     1      26.960  12.181  24.912  1.00  0.00     0.004 A 
HETATM   14  C   UNL     1      27.661  12.497  26.075  1.00  0.00     0.029 A 
BRANCH  11  15
HETATM   15  N   UNL     1      23.528  11.859  26.233  1.00  0.00    -0.327 N 
HETATM   16  C   UNL     1      22.793  11.216  27.231  1.00  0.00     0.226 C 
HETATM   17  O   UNL     1      23.213  10.708  28.263  1.00  0.00    -0.273 OA
HETATM   18  H   UNL     1      23.004  12.217  25.437  1.00  0.00     0.169 HD
BRANCH  16  19
HETATM   19  C   UNL     1      21.321  11.167  26.962  1.00  0.00     0.078 A 
HETATM   20  C   UNL     1      20.666  12.378  26.399  1.00  0.00     0.015 A 
HETATM   21  C   UNL     1      20.421  11.980  27.824  1.00  0.00     0.015 A 
ENDBRANCH  16  19
ENDBRANCH  11  15
ENDBRANCH   7   9
ENDBRANCH   3   7
BRANCH   5  22
HETATM   22  N   UNL     1      30.967   9.448  28.722  1.00  0.00    -0.341 N 
HETATM   23  H   UNL     1      31.681   9.043  29.324  1.00  0.00     0.167 HD
BRANCH  22  24
HETATM   24  C   UNL     1      31.089   9.025  27.382  1.00  0.00     0.034 A 
HETATM   25  C   UNL     1      30.273   8.004  26.895  1.00  0.00     0.045 A 
HETATM   26  C   UNL     1      30.392   7.589  25.569  1.00  0.00     0.050 A 
HETATM   27  C   UNL     1      31.328   8.194  24.730  1.00  0.00     0.016 A 
HETATM   28  C   UNL     1      32.144   9.215  25.216  1.00  0.00     0.003 A 
HETATM   29  C   UNL     1      32.024   9.631  26.543  1.00  0.00     0.029 A 
BRANCH  26  30
HETATM   30  C   UNL     1      29.520   6.496  25.048  1.00  0.00     0.417 C 
HETATM   31  F   UNL     1      28.726   6.880  24.005  1.00  0.00    -0.166 F 
HETATM   32  F   UNL     1      30.215   5.415  24.587  1.00  0.00    -0.166 F 
HETATM   33  F   UNL     1      28.668   6.007  25.996  1.00  0.00    -0.166 F 
ENDBRANCH  26  30
ENDBRANCH  22  24
ENDBRANCH   5  22
TORSDOF 7
ENDMDL
MODEL 5
REMARK VINA RESULT:      -7.0      5.832     10.106
REMARK  7 active torsions:
REMARK  status: ('A' for Active; 'I' for Inactive)
REMARK       I    between atoms: N_5  and  C_13 
REMARK    1  A    between atoms: N_5  and  C_14 
REMARK    2  A    between atoms: N_6  and  C_17 
REMARK    3  A    between atoms: N_6  and  C_20 
REMARK    4  A    between atoms: N_7  and  C_21 
REMARK    5  A    between atoms: N_7  and  C_23 
REMARK    6  A    between atoms: C_10  and  C_13 
REMARK    7  A    between atoms: C_24  and  C_29 
ROOT
HETATM    1  N   UNL     1      30.355  10.753  31.287  1.00  0.00    -0.224 NA
HETATM    2  N   UNL     1      30.837  10.661  28.928  1.00  0.00    -0.224 NA
HETATM    3  C   UNL     1      31.205   9.721  31.464  1.00  0.00     0.133 A 
HETATM    4  C   UNL     1      31.899   9.114  30.436  1.00  0.00     0.100 A 
HETATM    5  C   UNL     1      31.677   9.628  29.171  1.00  0.00     0.133 A 
HETATM    6  C   UNL     1      30.220  11.166  30.013  1.00  0.00     0.237 A 
ENDROOT
BRANCH   3   7
HETATM    7  N   UNL     1      31.408   9.220  32.773  1.00  0.00    -0.341 N 
HETATM    8  H   UNL     1      32.352   9.365  33.120  1.00  0.00     0.167 HD
BRANCH   7   9
HETATM    9  C   UNL     1      30.557   8.569  33.681  1.00  0.00     0.035 A 
HETATM   10  C   UNL     1      30.452   9.025  34.998  1.00  0.00     0.059 A 
HETATM   11  C   UNL     1      29.606   8.380  35.899  1.00  0.00     0.036 A 
HETATM   12  C   UNL     1      28.859   7.275  35.487  1.00  0.00     0.029 A 
HETATM   13  C   UNL     1      28.960   6.817  34.174  1.00  0.00     0.004 A 
HETATM   14  C   UNL     1      29.808   7.462  33.273  1.00  0.00     0.029 A 
BRANCH  11  15
HETATM   15  N   UNL     1      29.504   8.839  37.213  1.00  0.00    -0.327 N 
HETATM   16  C   UNL     1      29.071  10.090  37.657  1.00  0.00     0.226 C 
HETATM   17  O   UNL     1      28.692  11.037  36.980  1.00  0.00    -0.273 OA
HETATM   18  H   UNL     1      29.789   8.173  37.928  1.00  0.00     0.169 HD
BRANCH  16  19
HETATM   19  C   UNL     1      29.088  10.244  39.146  1.00  0.00     0.078 A 
HETATM   20  C   UNL     1      30.280  10.871  39.777  1.00  0.00     0.015 A 
HETATM   21  C   UNL     1      30.031   9.400  39.930  1.00  0.00     0.015 A 
ENDBRANCH  16  19
ENDBRANCH  11  15
ENDBRANCH   7   9
ENDBRANCH   3   7
BRANCH   5  22
HETATM   22  N   UNL     1      32.366   9.037  28.094  1.00  0.00    -0.341 N 
HETATM   23  H   UNL     1      32.917   9.707  27.563  1.00  0.00     0.167 HD
BRANCH  22  24
HETATM   24  C   UNL     1      32.206   7.811  27.416  1.00  0.00     0.034 A 
HETATM   25  C   UNL     1      30.943   7.416  26.974  1.00  0.00     0.045 A 
HETATM   26  C   UNL     1      30.787   6.204  26.302  1.00  0.00     0.050 A 
HETATM   27  C   UNL     1      31.893   5.387  26.072  1.00  0.00     0.016 A 
HETATM   28  C   UNL     1      33.156   5.780  26.513  1.00  0.00     0.003 A 
HETATM   29  C   UNL     1      33.313   6.993  27.185  1.00  0.00     0.029 A 
BRANCH  26  30
HETATM   30  C   UNL     1      29.436   5.782  25.830  1.00  0.00     0.417 C 
HETATM   31  F   UNL     1      29.223   6.015  24.502  1.00  0.00    -0.166 F 
HETATM   32  F   UNL     1      29.190   4.450  26.002  1.00  0.00    -0.166 F 
HETATM   33  F   UNL     1      28.426   6.429  26.482  1.00  0.00    -0.166 F 
ENDBRANCH  26  30
ENDBRANCH  22  24
ENDBRANCH   5  22
TORSDOF 7
ENDMDL
MODEL 6
REMARK VINA RESULT:      -6.9      5.009      7.902
REMARK  7 active torsions:
REMARK  status: ('A' for Active; 'I' for Inactive)
REMARK       I    between atoms: N_5  and  C_13 
REMARK    1  A    between atoms: N_5  and  C_14 
REMARK    2  A    between atoms: N_6  and  C_17 
REMARK    3  A    between atoms: N_6  and  C_20 
REMARK    4  A    between atoms: N_7  and  C_21 
REMARK    5  A    between atoms: N_7  and  C_23 
REMARK    6  A    between atoms: C_10  and  C_13 
REMARK    7  A    between atoms: C_24  and  C_29 
ROOT
HETATM    1  N   UNL     1      27.142  14.141  25.700  1.00  0.00    -0.224 NA
HETATM    2  N   UNL     1      28.166  12.173  24.760  1.00  0.00    -0.224 NA
HETATM    3  C   UNL     1      26.573  13.353  26.636  1.00  0.00     0.133 A 
HETATM    4  C   UNL     1      26.751  11.985  26.698  1.00  0.00     0.100 A 
HETATM    5  C   UNL     1      27.567  11.437  25.725  1.00  0.00     0.133 A 
HETATM    6  C   UNL     1      27.914  13.495  24.806  1.00  0.00     0.237 A 
ENDROOT
BRANCH   3   7
HETATM    7  N   UNL     1      25.743  13.948  27.617  1.00  0.00    -0.341 N 
HETATM    8  H   UNL     1      24.755  13.921  27.381  1.00  0.00     0.167 HD
BRANCH   7   9
HETATM    9  C   UNL     1      26.022  14.559  28.850  1.00  0.00     0.035 A 
HETATM   10  C   UNL     1      26.664  13.841  29.863  1.00  0.00     0.059 A 
HETATM   11  C   UNL     1      26.941  14.449  31.086  1.00  0.00     0.036 A 
HETATM   12  C   UNL     1      26.578  15.779  31.303  1.00  0.00     0.029 A 
HETATM   13  C   UNL     1      25.937  16.500  30.296  1.00  0.00     0.004 A 
HETATM   14  C   UNL     1      25.659  15.891  29.072  1.00  0.00     0.029 A 
BRANCH  11  15
HETATM   15  N   UNL     1      27.584  13.729  32.094  1.00  0.00    -0.327 N 
HETATM   16  C   UNL     1      28.951  13.483  32.240  1.00  0.00     0.226 C 
HETATM   17  O   UNL     1      29.862  13.854  31.511  1.00  0.00    -0.273 OA
HETATM   18  H   UNL     1      26.970  13.333  32.803  1.00  0.00     0.169 HD
BRANCH  16  19
HETATM   19  C   UNL     1      29.294  12.668  33.448  1.00  0.00     0.078 A 
HETATM   20  C   UNL     1      30.516  11.820  33.402  1.00  0.00     0.015 A 
HETATM   21  C   UNL     1      29.156  11.189  33.361  1.00  0.00     0.015 A 
ENDBRANCH  16  19
ENDBRANCH  11  15
ENDBRANCH   7   9
ENDBRANCH   3   7
BRANCH   5  22
HETATM   22  N   UNL     1      27.775  10.044  25.753  1.00  0.00    -0.341 N 
HETATM   23  H   UNL     1      26.907   9.514  25.711  1.00  0.00     0.167 HD
BRANCH  22  24
HETATM   24  C   UNL     1      28.874   9.251  26.144  1.00  0.00     0.034 A 
HETATM   25  C   UNL     1      28.961   7.924  25.724  1.00  0.00     0.045 A 
HETATM   26  C   UNL     1      30.049   7.141  26.110  1.00  0.00     0.050 A 
HETATM   27  C   UNL     1      31.049   7.684  26.916  1.00  0.00     0.016 A 
HETATM   28  C   UNL     1      30.962   9.011  27.336  1.00  0.00     0.003 A 
HETATM   29  C   UNL     1      29.874   9.795  26.950  1.00  0.00     0.029 A 
BRANCH  26  30
HETATM   30  C   UNL     1      30.143   5.721  25.661  1.00  0.00     0.417 C 
HETATM   31  F   UNL     1      30.907   4.938  26.478  1.00  0.00    -0.166 F 
HETATM   32  F   UNL     1      28.934   5.089  25.590  1.00  0.00    -0.166 F 
HETATM   33  F   UNL     1      30.693   5.599  24.417  1.00  0.00    -0.166 F 
ENDBRANCH  26  30
ENDBRANCH  22  24
ENDBRANCH   5  22
TORSDOF 7
ENDMDL
MODEL 7
REMARK VINA RESULT:      -6.8      4.566      8.029
REMARK  7 active torsions:
REMARK  status: ('A' for Active; 'I' for Inactive)
REMARK       I    between atoms: N_5  and  C_13 
REMARK    1  A    between atoms: N_5  and  C_14 
REMARK    2  A    between atoms: N_6  and  C_17 
REMARK    3  A    between atoms: N_6  and  C_20 
REMARK    4  A    between atoms: N_7  and  C_21 
REMARK    5  A    between atoms: N_7  and  C_23 
REMARK    6  A    between atoms: C_10  and  C_13 
REMARK    7  A    between atoms: C_24  and  C_29 
ROOT
HETATM    1  N   UNL     1      27.339  11.442  29.038  1.00  0.00    -0.224 NA
HETATM    2  N   UNL     1      27.564  10.000  27.120  1.00  0.00    -0.224 NA
HETATM    3  C   UNL     1      28.676  11.623  29.012  1.00  0.00     0.133 A 
HETATM    4  C   UNL     1      29.511  11.035  28.084  1.00  0.00     0.100 A 
HETATM    5  C   UNL     1      28.899  10.222  27.148  1.00  0.00     0.133 A 
HETATM    6  C   UNL     1      26.857  10.629  28.078  1.00  0.00     0.237 A 
ENDROOT
BRANCH   3   7
HETATM    7  N   UNL     1      29.270  12.462  29.986  1.00  0.00    -0.341 N 
HETATM    8  H   UNL     1      29.725  13.281  29.592  1.00  0.00     0.167 HD
BRANCH   7   9
HETATM    9  C   UNL     1      29.344  12.384  31.386  1.00  0.00     0.035 A 
HETATM   10  C   UNL     1      29.078  11.177  32.039  1.00  0.00     0.059 A 
HETATM   11  C   UNL     1      29.153  11.101  33.429  1.00  0.00     0.036 A 
HETATM   12  C   UNL     1      29.495  12.230  34.174  1.00  0.00     0.029 A 
HETATM   13  C   UNL     1      29.761  13.437  33.527  1.00  0.00     0.004 A 
HETATM   14  C   UNL     1      29.684  13.514  32.136  1.00  0.00     0.029 A 
BRANCH  11  15
HETATM   15  N   UNL     1      28.888   9.893  34.077  1.00  0.00    -0.327 N 
HETATM   16  C   UNL     1      29.735   8.793  34.228  1.00  0.00     0.226 C 
HETATM   17  O   UNL     1      30.883   8.668  33.822  1.00  0.00    -0.273 OA
HETATM   18  H   UNL     1      27.957   9.813  34.481  1.00  0.00     0.169 HD
BRANCH  16  19
HETATM   19  C   UNL     1      29.122   7.656  34.985  1.00  0.00     0.078 A 
HETATM   20  C   UNL     1      28.708   6.445  34.227  1.00  0.00     0.015 A 
HETATM   21  C   UNL     1      27.674   7.376  34.785  1.00  0.00     0.015 A 
ENDBRANCH  16  19
ENDBRANCH  11  15
ENDBRANCH   7   9
ENDBRANCH   3   7
BRANCH   5  22
HETATM   22  N   UNL     1      29.716   9.603  26.182  1.00  0.00    -0.341 N 
HETATM   23  H   UNL     1      29.484   9.880  25.231  1.00  0.00     0.167 HD
BRANCH  22  24
HETATM   24  C   UNL     1      30.551   8.467  26.225  1.00  0.00     0.034 A 
HETATM   25  C   UNL     1      29.998   7.190  26.128  1.00  0.00     0.045 A 
HETATM   26  C   UNL     1      30.824   6.067  26.169  1.00  0.00     0.050 A 
HETATM   27  C   UNL     1      32.203   6.221  26.305  1.00  0.00     0.016 A 
HETATM   28  C   UNL     1      32.757   7.497  26.402  1.00  0.00     0.003 A 
HETATM   29  C   UNL     1      31.930   8.621  26.361  1.00  0.00     0.029 A 
BRANCH  26  30
HETATM   30  C   UNL     1      30.233   4.701  26.066  1.00  0.00     0.417 C 
HETATM   31  F   UNL     1      31.142   3.733  25.749  1.00  0.00    -0.166 F 
HETATM   32  F   UNL     1      29.644   4.273  27.221  1.00  0.00    -0.166 F 
HETATM   33  F   UNL     1      29.262   4.620  25.108  1.00  0.00    -0.166 F 
ENDBRANCH  26  30
ENDBRANCH  22  24
ENDBRANCH   5  22
TORSDOF 7
ENDMDL
MODEL 8
REMARK VINA RESULT:      -6.8      5.474      8.680
REMARK  7 active torsions:
REMARK  status: ('A' for Active; 'I' for Inactive)
REMARK       I    between atoms: N_5  and  C_13 
REMARK    1  A    between atoms: N_5  and  C_14 
REMARK    2  A    between atoms: N_6  and  C_17 
REMARK    3  A    between atoms: N_6  and  C_20 
REMARK    4  A    between atoms: N_7  and  C_21 
REMARK    5  A    between atoms: N_7  and  C_23 
REMARK    6  A    between atoms: C_10  and  C_13 
REMARK    7  A    between atoms: C_24  and  C_29 
ROOT
HETATM    1  N   UNL     1      28.307  11.235  27.873  1.00  0.00    -0.224 NA
HETATM    2  N   UNL     1      28.378   9.487  26.216  1.00  0.00    -0.224 NA
HETATM    3  C   UNL     1      29.615  11.007  28.116  1.00  0.00     0.133 A 
HETATM    4  C   UNL     1      30.361  10.050  27.459  1.00  0.00     0.100 A 
HETATM    5  C   UNL     1      29.688   9.307  26.506  1.00  0.00     0.133 A 
HETATM    6  C   UNL     1      27.760  10.451  26.926  1.00  0.00     0.237 A 
ENDROOT
BRANCH   3   7
HETATM    7  N   UNL     1      30.273  11.786  29.099  1.00  0.00    -0.341 N 
HETATM    8  H   UNL     1      31.246  11.977  28.880  1.00  0.00     0.167 HD
BRANCH   7   9
HETATM    9  C   UNL     1      29.837  12.349  30.310  1.00  0.00     0.035 A 
HETATM   10  C   UNL     1      29.529  11.527  31.398  1.00  0.00     0.059 A 
HETATM   11  C   UNL     1      29.098  12.087  32.600  1.00  0.00     0.036 A 
HETATM   12  C   UNL     1      28.974  13.472  32.721  1.00  0.00     0.029 A 
HETATM   13  C   UNL     1      29.280  14.296  31.638  1.00  0.00     0.004 A 
HETATM   14  C   UNL     1      29.710  13.735  30.435  1.00  0.00     0.029 A 
BRANCH  11  15
HETATM   15  N   UNL     1      28.793  11.263  33.684  1.00  0.00    -0.327 N 
HETATM   16  C   UNL     1      29.658  10.775  34.666  1.00  0.00     0.226 C 
HETATM   17  O   UNL     1      30.861  10.974  34.773  1.00  0.00    -0.273 OA
HETATM   18  H   UNL     1      27.816  10.984  33.756  1.00  0.00     0.169 HD
BRANCH  16  19
HETATM   19  C   UNL     1      28.988   9.911  35.689  1.00  0.00     0.078 A 
HETATM   20  C   UNL     1      29.051  10.329  37.116  1.00  0.00     0.015 A 
HETATM   21  C   UNL     1      29.844   9.149  36.638  1.00  0.00     0.015 A 
ENDBRANCH  16  19
ENDBRANCH  11  15
ENDBRANCH   7   9
ENDBRANCH   3   7
BRANCH   5  22
HETATM   22  N   UNL     1      30.414   8.320  25.812  1.00  0.00    -0.341 N 
HETATM   23  H   UNL     1      30.773   8.649  24.918  1.00  0.00     0.167 HD
BRANCH  22  24
HETATM   24  C   UNL     1      30.475   6.917  25.934  1.00  0.00     0.034 A 
HETATM   25  C   UNL     1      31.711   6.273  25.985  1.00  0.00     0.045 A 
HETATM   26  C   UNL     1      31.771   4.885  26.108  1.00  0.00     0.050 A 
HETATM   27  C   UNL     1      30.594   4.140  26.180  1.00  0.00     0.016 A 
HETATM   28  C   UNL     1      29.357   4.783  26.129  1.00  0.00     0.003 A 
HETATM   29  C   UNL     1      29.298   6.172  26.006  1.00  0.00     0.029 A 
BRANCH  26  30
HETATM   30  C   UNL     1      33.093   4.197  26.163  1.00  0.00     0.417 C 
HETATM   31  F   UNL     1      33.651   3.984  24.935  1.00  0.00    -0.166 F 
HETATM   32  F   UNL     1      34.038   4.884  26.869  1.00  0.00    -0.166 F 
HETATM   33  F   UNL     1      33.020   2.966  26.749  1.00  0.00    -0.166 F 
ENDBRANCH  26  30
ENDBRANCH  22  24
ENDBRANCH   5  22
TORSDOF 7
ENDMDL
MODEL 9
REMARK VINA RESULT:      -6.8     21.161     22.455
REMARK  7 active torsions:
REMARK  status: ('A' for Active; 'I' for Inactive)
REMARK       I    between atoms: N_5  and  C_13 
REMARK    1  A    between atoms: N_5  and  C_14 
REMARK    2  A    between atoms: N_6  and  C_17 
REMARK    3  A    between atoms: N_6  and  C_20 
REMARK    4  A    between atoms: N_7  and  C_21 
REMARK    5  A    between atoms: N_7  and  C_23 
REMARK    6  A    between atoms: C_10  and  C_13 
REMARK    7  A    between atoms: C_24  and  C_29 
ROOT
HETATM    1  N   UNL     1      17.251  -6.480  40.560  1.00  0.00    -0.224 NA
HETATM    2  N   UNL     1      15.217  -5.475  41.371  1.00  0.00    -0.224 NA
HETATM    3  C   UNL     1      17.935  -5.463  41.124  1.00  0.00     0.133 A 
HETATM    4  C   UNL     1      17.338  -4.430  41.819  1.00  0.00     0.100 A 
HETATM    5  C   UNL     1      15.959  -4.483  41.915  1.00  0.00     0.133 A 
HETATM    6  C   UNL     1      15.915  -6.424  40.719  1.00  0.00     0.237 A 
ENDROOT
BRANCH   3   7
HETATM    7  N   UNL     1      19.346  -5.440  41.006  1.00  0.00    -0.341 N 
HETATM    8  H   UNL     1      19.670  -5.152  40.087  1.00  0.00     0.167 HD
BRANCH   7   9
HETATM    9  C   UNL     1      20.378  -5.732  41.913  1.00  0.00     0.035 A 
HETATM   10  C   UNL     1      20.925  -4.720  42.706  1.00  0.00     0.059 A 
HETATM   11  C   UNL     1      21.949  -5.011  43.607  1.00  0.00     0.036 A 
HETATM   12  C   UNL     1      22.430  -6.316  43.719  1.00  0.00     0.029 A 
HETATM   13  C   UNL     1      21.887  -7.329  42.930  1.00  0.00     0.004 A 
HETATM   14  C   UNL     1      20.864  -7.038  42.028  1.00  0.00     0.029 A 
BRANCH  11  15
HETATM   15  N   UNL     1      22.492  -3.998  44.398  1.00  0.00    -0.327 N 
HETATM   16  C   UNL     1      21.846  -3.215  45.358  1.00  0.00     0.226 C 
HETATM   17  O   UNL     1      20.672  -3.263  45.699  1.00  0.00    -0.273 OA
HETATM   18  H   UNL     1      23.480  -3.810  44.244  1.00  0.00     0.169 HD
BRANCH  16  19
HETATM   19  C   UNL     1      22.739  -2.214  46.023  1.00  0.00     0.078 A 
HETATM   20  C   UNL     1      24.009  -2.695  46.630  1.00  0.00     0.015 A 
HETATM   21  C   UNL     1      22.870  -2.262  47.505  1.00  0.00     0.015 A 
ENDBRANCH  16  19
ENDBRANCH  11  15
ENDBRANCH   7   9
ENDBRANCH   3   7
BRANCH   5  22
HETATM   22  N   UNL     1      15.312  -3.448  42.616  1.00  0.00    -0.341 N 
HETATM   23  H   UNL     1      15.424  -2.539  42.171  1.00  0.00     0.167 HD
BRANCH  22  24
HETATM   24  C   UNL     1      14.828  -3.346  43.937  1.00  0.00     0.034 A 
HETATM   25  C   UNL     1      13.455  -3.267  44.174  1.00  0.00     0.045 A 
HETATM   26  C   UNL     1      12.978  -3.169  45.480  1.00  0.00     0.050 A 
HETATM   27  C   UNL     1      13.872  -3.148  46.550  1.00  0.00     0.016 A 
HETATM   28  C   UNL     1      15.245  -3.227  46.314  1.00  0.00     0.003 A 
HETATM   29  C   UNL     1      15.722  -3.326  45.007  1.00  0.00     0.029 A 
BRANCH  26  30
HETATM   30  C   UNL     1      11.510  -3.084  45.734  1.00  0.00     0.417 C 
HETATM   31  F   UNL     1      10.877  -4.294  45.697  1.00  0.00    -0.166 F 
HETATM   32  F   UNL     1      11.196  -2.556  46.953  1.00  0.00    -0.166 F 
HETATM   33  F   UNL     1      10.863  -2.304  44.819  1.00  0.00    -0.166 F 
ENDBRANCH  26  30
ENDBRANCH  22  24
ENDBRANCH   5  22
TORSDOF 7
ENDMDL
