MODEL 1
REMARK VINA RESULT:      -7.8      0.000      0.000
REMARK  7 active torsions:
REMARK  status: ('A' for Active; 'I' for Inactive)
REMARK       I    between atoms: N_5  and  C_13 
REMARK    1  A    between atoms: N_5  and  C_14 
REMARK    2  A    between atoms: N_6  and  C_17 
REMARK    3  A    between atoms: N_6  and  C_20 
REMARK    4  A    between atoms: N_7  and  C_21 
REMARK    5  A    between atoms: N_7  and  C_23 
REMARK    6  A    between atoms: C_10  and  C_13 
REMARK    7  A    between atoms: C_24  and  C_29 
ROOT
HETATM    1  N   UNL     1      29.482  13.045  27.232  1.00  0.00    -0.224 NA
HETATM    2  N   UNL     1      31.496  11.875  26.616  1.00  0.00    -0.224 NA
HETATM    3  C   UNL     1      28.776  12.100  26.576  1.00  0.00     0.133 A 
HETATM    4  C   UNL     1      29.351  11.027  25.926  1.00  0.00     0.100 A 
HETATM    5  C   UNL     1      30.732  10.959  25.975  1.00  0.00     0.133 A 
HETATM    6  C   UNL     1      30.817  12.874  27.211  1.00  0.00     0.237 A 
ENDROOT
BRANCH   3   7
HETATM    7  N   UNL     1      27.364  12.202  26.545  1.00  0.00    -0.341 N 
HETATM    8  H   UNL     1      27.020  12.845  25.838  1.00  0.00     0.167 HD
BRANCH   7   9
HETATM    9  C   UNL     1      26.352  11.581  27.297  1.00  0.00     0.035 A 
HETATM   10  C   UNL     1      25.016  11.952  27.121  1.00  0.00     0.059 A 
HETATM   11  C   UNL     1      24.013  11.335  27.866  1.00  0.00     0.036 A 
HETATM   12  C   UNL     1      24.340  10.343  28.791  1.00  0.00     0.029 A 
HETATM   13  C   UNL     1      25.672   9.969  28.970  1.00  0.00     0.004 A 
HETATM   14  C   UNL     1      26.676  10.588  28.225  1.00  0.00     0.029 A 
BRANCH  11  15
HETATM   15  N   UNL     1      22.680  11.708  27.687  1.00  0.00    -0.327 N 
HETATM   16  C   UNL     1      21.971  11.822  26.489  1.00  0.00     0.226 C 
HETATM   17  O   UNL     1      22.379  11.616  25.353  1.00  0.00    -0.273 OA
HETATM   18  H   UNL     1      22.172  11.927  28.541  1.00  0.00     0.169 HD
BRANCH  16  19
HETATM   19  C   UNL     1      20.547  12.248  26.666  1.00  0.00     0.078 A 
HETATM   20  C   UNL     1      19.861  11.903  27.940  1.00  0.00     0.015 A 
HETATM   21  C   UNL     1      19.493  11.198  26.668  1.00  0.00     0.015 A 
ENDBRANCH  16  19
ENDBRANCH  11  15
ENDBRANCH   7   9
ENDBRANCH   3   7
BRANCH   5  22
HETATM   22  N   UNL     1      31.358   9.879  25.324  1.00  0.00    -0.341 N 
HETATM   23  H   UNL     1      31.458  10.026  24.322  1.00  0.00     0.167 HD
BRANCH  22  24
HETATM   24  C   UNL     1      31.578   8.537  25.697  1.00  0.00     0.034 A 
HETATM   25  C   UNL     1      30.512   7.637  25.730  1.00  0.00     0.045 A 
HETATM   26  C   UNL     1      30.731   6.310  26.097  1.00  0.00     0.050 A 
HETATM   27  C   UNL     1      32.016   5.882  26.432  1.00  0.00     0.016 A 
HETATM   28  C   UNL     1      33.081   6.781  26.400  1.00  0.00     0.003 A 
HETATM   29  C   UNL     1      32.862   8.109  26.032  1.00  0.00     0.029 A 
BRANCH  26  30
HETATM   30  C   UNL     1      29.592   5.348  26.132  1.00  0.00     0.417 C 
HETATM   31  F   UNL     1      29.762   4.331  27.027  1.00  0.00    -0.166 F 
HETATM   32  F   UNL     1      28.401   5.924  26.470  1.00  0.00    -0.166 F 
HETATM   33  F   UNL     1      29.378   4.743  24.927  1.00  0.00    -0.166 F 
ENDBRANCH  26  30
ENDBRANCH  22  24
ENDBRANCH   5  22
TORSDOF 7
ENDMDL
MODEL 2
REMARK VINA RESULT:      -7.7      1.958      3.044
REMARK  7 active torsions:
REMARK  status: ('A' for Active; 'I' for Inactive)
REMARK       I    between atoms: N_5  and  C_13 
REMARK    1  A    between atoms: N_5  and  C_14 
REMARK    2  A    between atoms: N_6  and  C_17 
REMARK    3  A    between atoms: N_6  and  C_20 
REMARK    4  A    between atoms: N_7  and  C_21 
REMARK    5  A    between atoms: N_7  and  C_23 
REMARK    6  A    between atoms: C_10  and  C_13 
REMARK    7  A    between atoms: C_24  and  C_29 
ROOT
HETATM    1  N   UNL     1      27.930  12.123  28.140  1.00  0.00    -0.224 NA
HETATM    2  N   UNL     1      29.908  10.798  27.767  1.00  0.00    -0.224 NA
HETATM    3  C   UNL     1      27.519  11.792  26.898  1.00  0.00     0.133 A 
HETATM    4  C   UNL     1      28.237  10.980  26.044  1.00  0.00     0.100 A 
HETATM    5  C   UNL     1      29.441  10.503  26.532  1.00  0.00     0.133 A 
HETATM    6  C   UNL     1      29.116  11.600  28.504  1.00  0.00     0.237 A 
ENDROOT
BRANCH   3   7
HETATM    7  N   UNL     1      26.283  12.300  26.430  1.00  0.00    -0.341 N 
HETATM    8  H   UNL     1      26.380  13.111  25.826  1.00  0.00     0.167 HD
BRANCH   7   9
HETATM    9  C   UNL     1      24.953  11.894  26.634  1.00  0.00     0.035 A 
HETATM   10  C   UNL     1      24.588  11.248  27.819  1.00  0.00     0.059 A 
HETATM   11  C   UNL     1      23.268  10.847  28.021  1.00  0.00     0.036 A 
HETATM   12  C   UNL     1      22.307  11.090  27.040  1.00  0.00     0.029 A 
HETATM   13  C   UNL     1      22.666  11.734  25.856  1.00  0.00     0.004 A 
HETATM   14  C   UNL     1      23.987  12.134  25.654  1.00  0.00     0.029 A 
BRANCH  11  15
HETATM   15  N   UNL     1      22.908  10.203  29.206  1.00  0.00    -0.327 N 
HETATM   16  C   UNL     1      23.554   9.138  29.838  1.00  0.00     0.226 C 
HETATM   17  O   UNL     1      24.568   8.556  29.478  1.00  0.00    -0.273 OA
HETATM   18  H   UNL     1      22.066  10.558  29.653  1.00  0.00     0.169 HD
BRANCH  16  19
HETATM   19  C   UNL     1      22.889   8.692  31.103  1.00  0.00     0.078 A 
HETATM   20  C   UNL     1      23.742   8.434  32.295  1.00  0.00     0.015 A 
HETATM   21  C   UNL     1      23.107   7.292  31.558  1.00  0.00     0.015 A 
ENDBRANCH  16  19
ENDBRANCH  11  15
ENDBRANCH   7   9
ENDBRANCH   3   7
BRANCH   5  22
HETATM   22  N   UNL     1      30.204   9.669  25.692  1.00  0.00    -0.341 N 
HETATM   23  H   UNL     1      30.016   9.826  24.704  1.00  0.00     0.167 HD
BRANCH  22  24
HETATM   24  C   UNL     1      30.915   8.473  25.923  1.00  0.00     0.034 A 
HETATM   25  C   UNL     1      30.253   7.247  25.872  1.00  0.00     0.045 A 
HETATM   26  C   UNL     1      30.957   6.065  26.099  1.00  0.00     0.050 A 
HETATM   27  C   UNL     1      32.323   6.109  26.378  1.00  0.00     0.016 A 
HETATM   28  C   UNL     1      32.985   7.335  26.430  1.00  0.00     0.003 A 
HETATM   29  C   UNL     1      32.281   8.518  26.202  1.00  0.00     0.029 A 
BRANCH  26  30
HETATM   30  C   UNL     1      30.250   4.752  26.044  1.00  0.00     0.417 C 
HETATM   31  F   UNL     1      29.612   4.425  27.206  1.00  0.00    -0.166 F 
HETATM   32  F   UNL     1      29.286   4.691  25.079  1.00  0.00    -0.166 F 
HETATM   33  F   UNL     1      31.094   3.711  25.784  1.00  0.00    -0.166 F 
ENDBRANCH  26  30
ENDBRANCH  22  24
ENDBRANCH   5  22
TORSDOF 7
ENDMDL
MODEL 3
REMARK VINA RESULT:      -7.5      2.179      2.967
REMARK  7 active torsions:
REMARK  status: ('A' for Active; 'I' for Inactive)
REMARK       I    between atoms: N_5  and  C_13 
REMARK    1  A    between atoms: N_5  and  C_14 
REMARK    2  A    between atoms: N_6  and  C_17 
REMARK    3  A    between atoms: N_6  and  C_20 
REMARK    4  A    between atoms: N_7  and  C_21 
REMARK    5  A    between atoms: N_7  and  C_23 
REMARK    6  A    between atoms: C_10  and  C_13 
REMARK    7  A    between atoms: C_24  and  C_29 
ROOT
HETATM    1  N   UNL     1      30.452  10.835  30.067  1.00  0.00    -0.224 NA
HETATM    2  N   UNL     1      31.784   9.278  28.800  1.00  0.00    -0.224 NA
HETATM    3  C   UNL     1      29.554  10.829  29.060  1.00  0.00     0.133 A 
HETATM    4  C   UNL     1      29.700  10.084  27.908  1.00  0.00     0.100 A 
HETATM    5  C   UNL     1      30.847   9.315  27.825  1.00  0.00     0.133 A 
HETATM    6  C   UNL     1      31.528  10.049  29.874  1.00  0.00     0.237 A 
ENDROOT
BRANCH   3   7
HETATM    7  N   UNL     1      28.391  11.629  29.178  1.00  0.00    -0.341 N 
HETATM    8  H   UNL     1      28.142  11.842  30.140  1.00  0.00     0.167 HD
BRANCH   7   9
HETATM    9  C   UNL     1      27.524  12.187  28.224  1.00  0.00     0.035 A 
HETATM   10  C   UNL     1      26.186  11.790  28.171  1.00  0.00     0.059 A 
HETATM   11  C   UNL     1      25.326  12.346  27.225  1.00  0.00     0.036 A 
HETATM   12  C   UNL     1      25.800  13.303  26.327  1.00  0.00     0.029 A 
HETATM   13  C   UNL     1      27.135  13.703  26.376  1.00  0.00     0.004 A 
HETATM   14  C   UNL     1      27.996  13.146  27.323  1.00  0.00     0.029 A 
BRANCH  11  15
HETATM   15  N   UNL     1      23.989  11.946  27.177  1.00  0.00    -0.327 N 
HETATM   16  C   UNL     1      23.216  11.662  26.049  1.00  0.00     0.226 C 
HETATM   17  O   UNL     1      23.557  11.706  24.874  1.00  0.00    -0.273 OA
HETATM   18  H   UNL     1      23.529  11.860  28.080  1.00  0.00     0.169 HD
BRANCH  16  19
HETATM   19  C   UNL     1      21.809  11.259  26.365  1.00  0.00     0.078 A 
HETATM   20  C   UNL     1      20.760  12.314  26.385  1.00  0.00     0.015 A 
HETATM   21  C   UNL     1      21.229  11.690  27.666  1.00  0.00     0.015 A 
ENDBRANCH  16  19
ENDBRANCH  11  15
ENDBRANCH   7   9
ENDBRANCH   3   7
BRANCH   5  22
HETATM   22  N   UNL     1      31.033   8.539  26.665  1.00  0.00    -0.341 N 
HETATM   23  H   UNL     1      31.166   9.104  25.829  1.00  0.00     0.167 HD
BRANCH  22  24
HETATM   24  C   UNL     1      30.758   7.188  26.366  1.00  0.00     0.034 A 
HETATM   25  C   UNL     1      31.789   6.248  26.369  1.00  0.00     0.045 A 
HETATM   26  C   UNL     1      31.516   4.913  26.075  1.00  0.00     0.050 A 
HETATM   27  C   UNL     1      30.212   4.517  25.777  1.00  0.00     0.016 A 
HETATM   28  C   UNL     1      29.181   5.456  25.773  1.00  0.00     0.003 A 
HETATM   29  C   UNL     1      29.454   6.792  26.068  1.00  0.00     0.029 A 
BRANCH  26  30
HETATM   30  C   UNL     1      32.619   3.908  26.078  1.00  0.00     0.417 C 
HETATM   31  F   UNL     1      32.236   2.677  26.530  1.00  0.00    -0.166 F 
HETATM   32  F   UNL     1      33.156   3.682  24.843  1.00  0.00    -0.166 F 
HETATM   33  F   UNL     1      33.666   4.280  26.871  1.00  0.00    -0.166 F 
ENDBRANCH  26  30
ENDBRANCH  22  24
ENDBRANCH   5  22
TORSDOF 7
ENDMDL
MODEL 4
REMARK VINA RESULT:      -7.2      4.737      9.155
REMARK  7 active torsions:
REMARK  status: ('A' for Active; 'I' for Inactive)
REMARK       I    between atoms: N_5  and  C_13 
REMARK    1  A    between atoms: N_5  and  C_14 
REMARK    2  A    between atoms: N_6  and  C_17 
REMARK    3  A    between atoms: N_6  and  C_20 
REMARK    4  A    between atoms: N_7  and  C_21 
REMARK    5  A    between atoms: N_7  and  C_23 
REMARK    6  A    between atoms: C_10  and  C_13 
REMARK    7  A    between atoms: C_24  and  C_29 
ROOT
HETATM    1  N   UNL     1      25.851  12.062  27.258  1.00  0.00    -0.224 NA
HETATM    2  N   UNL     1      24.049  10.724  28.137  1.00  0.00    -0.224 NA
HETATM    3  C   UNL     1      26.712  11.296  27.960  1.00  0.00     0.133 A 
HETATM    4  C   UNL     1      26.323  10.241  28.760  1.00  0.00     0.100 A 
HETATM    5  C   UNL     1      24.963   9.993  28.816  1.00  0.00     0.133 A 
HETATM    6  C   UNL     1      24.554  11.726  27.391  1.00  0.00     0.237 A 
ENDROOT
BRANCH   3   7
HETATM    7  N   UNL     1      28.098  11.579  27.880  1.00  0.00    -0.341 N 
HETATM    8  H   UNL     1      28.405  12.287  28.541  1.00  0.00     0.167 HD
BRANCH   7   9
HETATM    9  C   UNL     1      29.125  11.065  27.071  1.00  0.00     0.035 A 
HETATM   10  C   UNL     1      29.112   9.722  26.685  1.00  0.00     0.059 A 
HETATM   11  C   UNL     1      30.131   9.214  25.880  1.00  0.00     0.036 A 
HETATM   12  C   UNL     1      31.169  10.046  25.459  1.00  0.00     0.029 A 
HETATM   13  C   UNL     1      31.186  11.387  25.842  1.00  0.00     0.004 A 
HETATM   14  C   UNL     1      30.166  11.895  26.647  1.00  0.00     0.029 A 
BRANCH  11  15
HETATM   15  N   UNL     1      30.114   7.872  25.496  1.00  0.00    -0.327 N 
HETATM   16  C   UNL     1      30.974   6.849  25.901  1.00  0.00     0.226 C 
HETATM   17  O   UNL     1      31.917   6.925  26.678  1.00  0.00    -0.273 OA
HETATM   18  H   UNL     1      29.383   7.620  24.834  1.00  0.00     0.169 HD
BRANCH  16  19
HETATM   19  C   UNL     1      30.664   5.519  25.287  1.00  0.00     0.078 A 
HETATM   20  C   UNL     1      29.444   4.800  25.740  1.00  0.00     0.015 A 
HETATM   21  C   UNL     1      30.804   4.303  26.134  1.00  0.00     0.015 A 
ENDBRANCH  16  19
ENDBRANCH  11  15
ENDBRANCH   7   9
ENDBRANCH   3   7
BRANCH   5  22
HETATM   22  N   UNL     1      24.525   8.925  29.622  1.00  0.00    -0.341 N 
HETATM   23  H   UNL     1      24.609   8.022  29.160  1.00  0.00     0.167 HD
BRANCH  22  24
HETATM   24  C   UNL     1      23.715   8.868  30.775  1.00  0.00     0.034 A 
HETATM   25  C   UNL     1      22.484   9.524  30.797  1.00  0.00     0.045 A 
HETATM   26  C   UNL     1      21.684   9.466  31.938  1.00  0.00     0.050 A 
HETATM   27  C   UNL     1      22.114   8.753  33.056  1.00  0.00     0.016 A 
HETATM   28  C   UNL     1      23.345   8.098  33.035  1.00  0.00     0.003 A 
HETATM   29  C   UNL     1      24.146   8.155  31.894  1.00  0.00     0.029 A 
BRANCH  26  30
HETATM   30  C   UNL     1      20.367  10.166  31.962  1.00  0.00     0.417 C 
HETATM   31  F   UNL     1      19.947  10.501  33.217  1.00  0.00    -0.166 F 
HETATM   32  F   UNL     1      20.359  11.337  31.259  1.00  0.00    -0.166 F 
HETATM   33  F   UNL     1      19.361   9.412  31.428  1.00  0.00    -0.166 F 
ENDBRANCH  26  30
ENDBRANCH  22  24
ENDBRANCH   5  22
TORSDOF 7
ENDMDL
MODEL 5
REMARK VINA RESULT:      -7.1      1.983      2.490
REMARK  7 active torsions:
REMARK  status: ('A' for Active; 'I' for Inactive)
REMARK       I    between atoms: N_5  and  C_13 
REMARK    1  A    between atoms: N_5  and  C_14 
REMARK    2  A    between atoms: N_6  and  C_17 
REMARK    3  A    between atoms: N_6  and  C_20 
REMARK    4  A    between atoms: N_7  and  C_21 
REMARK    5  A    between atoms: N_7  and  C_23 
REMARK    6  A    between atoms: C_10  and  C_13 
REMARK    7  A    between atoms: C_24  and  C_29 
ROOT
HETATM    1  N   UNL     1      29.468  11.145  30.769  1.00  0.00    -0.224 NA
HETATM    2  N   UNL     1      31.282   9.674  30.174  1.00  0.00    -0.224 NA
HETATM    3  C   UNL     1      29.306  11.415  29.457  1.00  0.00     0.133 A 
HETATM    4  C   UNL     1      30.082  10.862  28.459  1.00  0.00     0.100 A 
HETATM    5  C   UNL     1      31.069   9.987  28.875  1.00  0.00     0.133 A 
HETATM    6  C   UNL     1      30.460  10.279  31.052  1.00  0.00     0.237 A 
ENDROOT
BRANCH   3   7
HETATM    7  N   UNL     1      28.286  12.317  29.066  1.00  0.00    -0.341 N 
HETATM    8  H   UNL     1      28.172  13.100  29.704  1.00  0.00     0.167 HD
BRANCH   7   9
HETATM    9  C   UNL     1      27.410  12.339  27.969  1.00  0.00     0.035 A 
HETATM   10  C   UNL     1      26.069  11.981  28.131  1.00  0.00     0.059 A 
HETATM   11  C   UNL     1      25.200  12.005  27.041  1.00  0.00     0.036 A 
HETATM   12  C   UNL     1      25.668  12.388  25.783  1.00  0.00     0.029 A 
HETATM   13  C   UNL     1      27.005  12.746  25.616  1.00  0.00     0.004 A 
HETATM   14  C   UNL     1      27.875  12.721  26.707  1.00  0.00     0.029 A 
BRANCH  11  15
HETATM   15  N   UNL     1      23.861  11.648  27.207  1.00  0.00    -0.327 N 
HETATM   16  C   UNL     1      22.851  11.616  26.242  1.00  0.00     0.226 C 
HETATM   17  O   UNL     1      22.941  11.894  25.053  1.00  0.00    -0.273 OA
HETATM   18  H   UNL     1      23.596  11.386  28.154  1.00  0.00     0.169 HD
BRANCH  16  19
HETATM   19  C   UNL     1      21.521  11.181  26.772  1.00  0.00     0.078 A 
HETATM   20  C   UNL     1      20.342  12.053  26.521  1.00  0.00     0.015 A 
HETATM   21  C   UNL     1      20.926  11.950  27.899  1.00  0.00     0.015 A 
ENDBRANCH  16  19
ENDBRANCH  11  15
ENDBRANCH   7   9
ENDBRANCH   3   7
BRANCH   5  22
HETATM   22  N   UNL     1      31.883   9.400  27.887  1.00  0.00    -0.341 N 
HETATM   23  H   UNL     1      32.430  10.084  27.368  1.00  0.00     0.167 HD
BRANCH  22  24
HETATM   24  C   UNL     1      31.863   8.137  27.260  1.00  0.00     0.034 A 
HETATM   25  C   UNL     1      30.674   7.641  26.726  1.00  0.00     0.045 A 
HETATM   26  C   UNL     1      30.656   6.392  26.105  1.00  0.00     0.050 A 
HETATM   27  C   UNL     1      31.827   5.640  26.017  1.00  0.00     0.016 A 
HETATM   28  C   UNL     1      33.016   6.135  26.550  1.00  0.00     0.003 A 
HETATM   29  C   UNL     1      33.035   7.385  27.172  1.00  0.00     0.029 A 
BRANCH  26  30
HETATM   30  C   UNL     1      29.384   5.861  25.535  1.00  0.00     0.417 C 
HETATM   31  F   UNL     1      28.994   6.488  24.386  1.00  0.00    -0.166 F 
HETATM   32  F   UNL     1      29.441   4.535  25.215  1.00  0.00    -0.166 F 
HETATM   33  F   UNL     1      28.330   5.985  26.395  1.00  0.00    -0.166 F 
ENDBRANCH  26  30
ENDBRANCH  22  24
ENDBRANCH   5  22
TORSDOF 7
ENDMDL
MODEL 6
REMARK VINA RESULT:      -6.9      5.253      6.994
REMARK  7 active torsions:
REMARK  status: ('A' for Active; 'I' for Inactive)
REMARK       I    between atoms: N_5  and  C_13 
REMARK    1  A    between atoms: N_5  and  C_14 
REMARK    2  A    between atoms: N_6  and  C_17 
REMARK    3  A    between atoms: N_6  and  C_20 
REMARK    4  A    between atoms: N_7  and  C_21 
REMARK    5  A    between atoms: N_7  and  C_23 
REMARK    6  A    between atoms: C_10  and  C_13 
REMARK    7  A    between atoms: C_24  and  C_29 
ROOT
HETATM    1  N   UNL     1      26.886  11.462  29.414  1.00  0.00    -0.224 NA
HETATM    2  N   UNL     1      26.558  10.416  27.269  1.00  0.00    -0.224 NA
HETATM    3  C   UNL     1      28.215  11.289  29.254  1.00  0.00     0.133 A 
HETATM    4  C   UNL     1      28.782  10.696  28.144  1.00  0.00     0.100 A 
HETATM    5  C   UNL     1      27.899  10.271  27.167  1.00  0.00     0.133 A 
HETATM    6  C   UNL     1      26.127  11.008  28.399  1.00  0.00     0.237 A 
ENDROOT
BRANCH   3   7
HETATM    7  N   UNL     1      29.090  11.736  30.274  1.00  0.00    -0.341 N 
HETATM    8  H   UNL     1      29.291  12.730  30.227  1.00  0.00     0.167 HD
BRANCH   7   9
HETATM    9  C   UNL     1      29.723  11.072  31.337  1.00  0.00     0.035 A 
HETATM   10  C   UNL     1      29.390  11.380  32.659  1.00  0.00     0.059 A 
HETATM   11  C   UNL     1      30.019  10.719  33.713  1.00  0.00     0.036 A 
HETATM   12  C   UNL     1      30.984   9.746  33.451  1.00  0.00     0.029 A 
HETATM   13  C   UNL     1      31.320   9.435  32.134  1.00  0.00     0.004 A 
HETATM   14  C   UNL     1      30.692  10.097  31.079  1.00  0.00     0.029 A 
BRANCH  11  15
HETATM   15  N   UNL     1      29.682  11.029  35.032  1.00  0.00    -0.327 N 
HETATM   16  C   UNL     1      29.160  10.180  36.010  1.00  0.00     0.226 C 
HETATM   17  O   UNL     1      28.894   8.990  35.906  1.00  0.00    -0.273 OA
HETATM   18  H   UNL     1      29.834  11.999  35.302  1.00  0.00     0.169 HD
BRANCH  16  19
HETATM   19  C   UNL     1      28.915  10.850  37.326  1.00  0.00     0.078 A 
HETATM   20  C   UNL     1      30.092  11.239  38.150  1.00  0.00     0.015 A 
HETATM   21  C   UNL     1      29.220  10.092  38.570  1.00  0.00     0.015 A 
ENDBRANCH  16  19
ENDBRANCH  11  15
ENDBRANCH   7   9
ENDBRANCH   3   7
BRANCH   5  22
HETATM   22  N   UNL     1      28.438   9.661  26.018  1.00  0.00    -0.341 N 
HETATM   23  H   UNL     1      27.820   9.721  25.212  1.00  0.00     0.167 HD
BRANCH  22  24
HETATM   24  C   UNL     1      29.479   8.728  25.831  1.00  0.00     0.034 A 
HETATM   25  C   UNL     1      29.230   7.364  25.979  1.00  0.00     0.045 A 
HETATM   26  C   UNL     1      30.259   6.442  25.793  1.00  0.00     0.050 A 
HETATM   27  C   UNL     1      31.539   6.885  25.458  1.00  0.00     0.016 A 
HETATM   28  C   UNL     1      31.790   8.249  25.310  1.00  0.00     0.003 A 
HETATM   29  C   UNL     1      30.759   9.171  25.497  1.00  0.00     0.029 A 
BRANCH  26  30
HETATM   30  C   UNL     1      29.993   4.983  25.951  1.00  0.00     0.417 C 
HETATM   31  F   UNL     1      31.094   4.200  25.752  1.00  0.00    -0.166 F 
HETATM   32  F   UNL     1      29.534   4.643  27.192  1.00  0.00    -0.166 F 
HETATM   33  F   UNL     1      29.053   4.523  25.074  1.00  0.00    -0.166 F 
ENDBRANCH  26  30
ENDBRANCH  22  24
ENDBRANCH   5  22
TORSDOF 7
ENDMDL
MODEL 7
REMARK VINA RESULT:      -6.9      4.588      6.262
REMARK  7 active torsions:
REMARK  status: ('A' for Active; 'I' for Inactive)
REMARK       I    between atoms: N_5  and  C_13 
REMARK    1  A    between atoms: N_5  and  C_14 
REMARK    2  A    between atoms: N_6  and  C_17 
REMARK    3  A    between atoms: N_6  and  C_20 
REMARK    4  A    between atoms: N_7  and  C_21 
REMARK    5  A    between atoms: N_7  and  C_23 
REMARK    6  A    between atoms: C_10  and  C_13 
REMARK    7  A    between atoms: C_24  and  C_29 
ROOT
HETATM    1  N   UNL     1      27.679  11.382  28.897  1.00  0.00    -0.224 NA
HETATM    2  N   UNL     1      28.070   9.938  27.008  1.00  0.00    -0.224 NA
HETATM    3  C   UNL     1      29.011  11.587  28.968  1.00  0.00     0.133 A 
HETATM    4  C   UNL     1      29.923  11.011  28.107  1.00  0.00     0.100 A 
HETATM    5  C   UNL     1      29.395  10.183  27.132  1.00  0.00     0.133 A 
HETATM    6  C   UNL     1      27.284  10.558  27.908  1.00  0.00     0.237 A 
ENDROOT
BRANCH   3   7
HETATM    7  N   UNL     1      29.517  12.440  29.980  1.00  0.00    -0.341 N 
HETATM    8  H   UNL     1      29.990  13.262  29.616  1.00  0.00     0.167 HD
BRANCH   7   9
HETATM    9  C   UNL     1      29.485  12.370  31.382  1.00  0.00     0.035 A 
HETATM   10  C   UNL     1      29.187  11.163  32.021  1.00  0.00     0.059 A 
HETATM   11  C   UNL     1      29.156  11.094  33.413  1.00  0.00     0.036 A 
HETATM   12  C   UNL     1      29.424  12.232  34.174  1.00  0.00     0.029 A 
HETATM   13  C   UNL     1      29.722  13.439  33.542  1.00  0.00     0.004 A 
HETATM   14  C   UNL     1      29.752  13.508  32.149  1.00  0.00     0.029 A 
BRANCH  11  15
HETATM   15  N   UNL     1      28.859   9.886  34.046  1.00  0.00    -0.327 N 
HETATM   16  C   UNL     1      29.703   8.793  34.255  1.00  0.00     0.226 C 
HETATM   17  O   UNL     1      30.876   8.676  33.925  1.00  0.00    -0.273 OA
HETATM   18  H   UNL     1      27.905   9.800  34.389  1.00  0.00     0.169 HD
BRANCH  16  19
HETATM   19  C   UNL     1      29.051   7.654  34.975  1.00  0.00     0.078 A 
HETATM   20  C   UNL     1      28.732   6.422  34.203  1.00  0.00     0.015 A 
HETATM   21  C   UNL     1      27.632   7.337  34.653  1.00  0.00     0.015 A 
ENDBRANCH  16  19
ENDBRANCH  11  15
ENDBRANCH   7   9
ENDBRANCH   3   7
BRANCH   5  22
HETATM   22  N   UNL     1      30.292   9.576  26.233  1.00  0.00    -0.341 N 
HETATM   23  H   UNL     1      30.227   9.957  25.292  1.00  0.00     0.167 HD
BRANCH  22  24
HETATM   24  C   UNL     1      31.013   8.365  26.276  1.00  0.00     0.034 A 
HETATM   25  C   UNL     1      30.342   7.147  26.160  1.00  0.00     0.045 A 
HETATM   26  C   UNL     1      31.057   5.950  26.201  1.00  0.00     0.050 A 
HETATM   27  C   UNL     1      32.442   5.970  26.358  1.00  0.00     0.016 A 
HETATM   28  C   UNL     1      33.114   7.187  26.474  1.00  0.00     0.003 A 
HETATM   29  C   UNL     1      32.399   8.384  26.433  1.00  0.00     0.029 A 
BRANCH  26  30
HETATM   30  C   UNL     1      30.339   4.648  26.077  1.00  0.00     0.417 C 
HETATM   31  F   UNL     1      31.164   3.590  25.822  1.00  0.00    -0.166 F 
HETATM   32  F   UNL     1      29.646   4.298  27.200  1.00  0.00    -0.166 F 
HETATM   33  F   UNL     1      29.421   4.648  25.066  1.00  0.00    -0.166 F 
ENDBRANCH  26  30
ENDBRANCH  22  24
ENDBRANCH   5  22
TORSDOF 7
ENDMDL
MODEL 8
REMARK VINA RESULT:      -6.9      1.515      2.035
REMARK  7 active torsions:
REMARK  status: ('A' for Active; 'I' for Inactive)
REMARK       I    between atoms: N_5  and  C_13 
REMARK    1  A    between atoms: N_5  and  C_14 
REMARK    2  A    between atoms: N_6  and  C_17 
REMARK    3  A    between atoms: N_6  and  C_20 
REMARK    4  A    between atoms: N_7  and  C_21 
REMARK    5  A    between atoms: N_7  and  C_23 
REMARK    6  A    between atoms: C_10  and  C_13 
REMARK    7  A    between atoms: C_24  and  C_29 
ROOT
HETATM    1  N   UNL     1      30.501  12.637  24.378  1.00  0.00    -0.224 NA
HETATM    2  N   UNL     1      32.415  11.371  25.112  1.00  0.00    -0.224 NA
HETATM    3  C   UNL     1      29.739  11.896  25.208  1.00  0.00     0.133 A 
HETATM    4  C   UNL     1      30.235  10.889  26.011  1.00  0.00     0.100 A 
HETATM    5  C   UNL     1      31.597  10.663  25.925  1.00  0.00     0.133 A 
HETATM    6  C   UNL     1      31.811  12.326  24.379  1.00  0.00     0.237 A 
ENDROOT
BRANCH   3   7
HETATM    7  N   UNL     1      28.348  12.154  25.270  1.00  0.00    -0.341 N 
HETATM    8  H   UNL     1      27.886  12.107  24.366  1.00  0.00     0.167 HD
BRANCH   7   9
HETATM    9  C   UNL     1      27.486  12.454  26.339  1.00  0.00     0.035 A 
HETATM   10  C   UNL     1      26.138  12.090  26.279  1.00  0.00     0.059 A 
HETATM   11  C   UNL     1      25.284  12.387  27.341  1.00  0.00     0.036 A 
HETATM   12  C   UNL     1      25.774  13.048  28.467  1.00  0.00     0.029 A 
HETATM   13  C   UNL     1      27.119  13.413  28.532  1.00  0.00     0.004 A 
HETATM   14  C   UNL     1      27.973  13.117  27.469  1.00  0.00     0.029 A 
BRANCH  11  15
HETATM   15  N   UNL     1      23.938  12.022  27.278  1.00  0.00    -0.327 N 
HETATM   16  C   UNL     1      23.303  10.960  27.925  1.00  0.00     0.226 C 
HETATM   17  O   UNL     1      23.801  10.136  28.681  1.00  0.00    -0.273 OA
HETATM   18  H   UNL     1      23.358  12.605  26.678  1.00  0.00     0.169 HD
BRANCH  16  19
HETATM   19  C   UNL     1      21.839  10.860  27.630  1.00  0.00     0.078 A 
HETATM   20  C   UNL     1      21.310  11.569  26.434  1.00  0.00     0.015 A 
HETATM   21  C   UNL     1      20.999  12.076  27.811  1.00  0.00     0.015 A 
ENDBRANCH  16  19
ENDBRANCH  11  15
ENDBRANCH   7   9
ENDBRANCH   3   7
BRANCH   5  22
HETATM   22  N   UNL     1      32.144   9.644  26.728  1.00  0.00    -0.341 N 
HETATM   23  H   UNL     1      32.829   9.991  27.395  1.00  0.00     0.167 HD
BRANCH  22  24
HETATM   24  C   UNL     1      32.186   8.240  26.593  1.00  0.00     0.034 A 
HETATM   25  C   UNL     1      31.001   7.516  26.461  1.00  0.00     0.045 A 
HETATM   26  C   UNL     1      31.044   6.129  26.326  1.00  0.00     0.050 A 
HETATM   27  C   UNL     1      32.271   5.465  26.324  1.00  0.00     0.016 A 
HETATM   28  C   UNL     1      33.455   6.189  26.457  1.00  0.00     0.003 A 
HETATM   29  C   UNL     1      33.413   7.577  26.591  1.00  0.00     0.029 A 
BRANCH  26  30
HETATM   30  C   UNL     1      29.777   5.353  26.185  1.00  0.00     0.417 C 
HETATM   31  F   UNL     1      28.669   6.033  26.604  1.00  0.00    -0.166 F 
HETATM   32  F   UNL     1      29.504   4.984  24.899  1.00  0.00    -0.166 F 
HETATM   33  F   UNL     1      29.789   4.193  26.904  1.00  0.00    -0.166 F 
ENDBRANCH  26  30
ENDBRANCH  22  24
ENDBRANCH   5  22
TORSDOF 7
ENDMDL
MODEL 9
REMARK VINA RESULT:      -6.8      4.917      7.011
REMARK  7 active torsions:
REMARK  status: ('A' for Active; 'I' for Inactive)
REMARK       I    between atoms: N_5  and  C_13 
REMARK    1  A    between atoms: N_5  and  C_14 
REMARK    2  A    between atoms: N_6  and  C_17 
REMARK    3  A    between atoms: N_6  and  C_20 
REMARK    4  A    between atoms: N_7  and  C_21 
REMARK    5  A    between atoms: N_7  and  C_23 
REMARK    6  A    between atoms: C_10  and  C_13 
REMARK    7  A    between atoms: C_24  and  C_29 
ROOT
HETATM    1  N   UNL     1      30.017  11.461  29.034  1.00  0.00    -0.224 NA
HETATM    2  N   UNL     1      29.313  10.196  27.108  1.00  0.00    -0.224 NA
HETATM    3  C   UNL     1      31.186  10.788  29.003  1.00  0.00     0.133 A 
HETATM    4  C   UNL     1      31.488   9.819  28.068  1.00  0.00     0.100 A 
HETATM    5  C   UNL     1      30.506   9.556  27.130  1.00  0.00     0.133 A 
HETATM    6  C   UNL     1      29.139  11.119  28.072  1.00  0.00     0.237 A 
ENDROOT
BRANCH   3   7
HETATM    7  N   UNL     1      32.169  11.082  29.979  1.00  0.00    -0.341 N 
HETATM    8  H   UNL     1      32.945  11.631  29.619  1.00  0.00     0.167 HD
BRANCH   7   9
HETATM    9  C   UNL     1      32.273  10.769  31.344  1.00  0.00     0.035 A 
HETATM   10  C   UNL     1      31.444   9.796  31.908  1.00  0.00     0.059 A 
HETATM   11  C   UNL     1      31.549   9.484  33.263  1.00  0.00     0.036 A 
HETATM   12  C   UNL     1      32.484  10.145  34.061  1.00  0.00     0.029 A 
HETATM   13  C   UNL     1      33.314  11.116  33.503  1.00  0.00     0.004 A 
HETATM   14  C   UNL     1      33.208  11.428  32.147  1.00  0.00     0.029 A 
BRANCH  11  15
HETATM   15  N   UNL     1      30.719   8.511  33.823  1.00  0.00    -0.327 N 
HETATM   16  C   UNL     1      29.490   8.690  34.460  1.00  0.00     0.226 C 
HETATM   17  O   UNL     1      28.892   9.741  34.655  1.00  0.00    -0.273 OA
HETATM   18  H   UNL     1      31.066   7.556  33.757  1.00  0.00     0.169 HD
BRANCH  16  19
HETATM   19  C   UNL     1      28.867   7.418  34.943  1.00  0.00     0.078 A 
HETATM   20  C   UNL     1      28.734   6.289  33.984  1.00  0.00     0.015 A 
HETATM   21  C   UNL     1      27.520   7.052  34.425  1.00  0.00     0.015 A 
ENDBRANCH  16  19
ENDBRANCH  11  15
ENDBRANCH   7   9
ENDBRANCH   3   7
BRANCH   5  22
HETATM   22  N   UNL     1      30.775   8.574  26.157  1.00  0.00    -0.341 N 
HETATM   23  H   UNL     1      30.927   8.967  25.231  1.00  0.00     0.167 HD
BRANCH  22  24
HETATM   24  C   UNL     1      30.566   7.180  26.125  1.00  0.00     0.034 A 
HETATM   25  C   UNL     1      31.656   6.309  26.132  1.00  0.00     0.045 A 
HETATM   26  C   UNL     1      31.448   4.931  26.101  1.00  0.00     0.050 A 
HETATM   27  C   UNL     1      30.150   4.422  26.064  1.00  0.00     0.016 A 
HETATM   28  C   UNL     1      29.059   5.291  26.057  1.00  0.00     0.003 A 
HETATM   29  C   UNL     1      29.268   6.671  26.088  1.00  0.00     0.029 A 
BRANCH  26  30
HETATM   30  C   UNL     1      32.614   4.000  26.108  1.00  0.00     0.417 C 
HETATM   31  F   UNL     1      32.310   2.746  26.556  1.00  0.00    -0.166 F 
HETATM   32  F   UNL     1      33.171   3.813  24.876  1.00  0.00    -0.166 F 
HETATM   33  F   UNL     1      33.631   4.437  26.908  1.00  0.00    -0.166 F 
ENDBRANCH  26  30
ENDBRANCH  22  24
ENDBRANCH   5  22
TORSDOF 7
ENDMDL
