MODEL 1
REMARK VINA RESULT:      -7.9      0.000      0.000
REMARK  7 active torsions:
REMARK  status: ('A' for Active; 'I' for Inactive)
REMARK       I    between atoms: N_5  and  C_13 
REMARK    1  A    between atoms: N_5  and  C_14 
REMARK    2  A    between atoms: N_6  and  C_17 
REMARK    3  A    between atoms: N_6  and  C_20 
REMARK    4  A    between atoms: N_7  and  C_21 
REMARK    5  A    between atoms: N_7  and  C_23 
REMARK    6  A    between atoms: C_10  and  C_13 
REMARK    7  A    between atoms: C_24  and  C_29 
ROOT
HETATM    1  N   UNL     1      25.063  11.882  27.244  1.00  0.00    -0.224 NA
HETATM    2  N   UNL     1      23.045  10.778  27.961  1.00  0.00    -0.224 NA
HETATM    3  C   UNL     1      25.758  11.061  28.058  1.00  0.00     0.133 A 
HETATM    4  C   UNL     1      25.175  10.087  28.844  1.00  0.00     0.100 A 
HETATM    5  C   UNL     1      23.798   9.985  28.759  1.00  0.00     0.133 A 
HETATM    6  C   UNL     1      23.730  11.689  27.245  1.00  0.00     0.237 A 
ENDROOT
BRANCH   3   7
HETATM    7  N   UNL     1      27.166  11.194  28.121  1.00  0.00    -0.341 N 
HETATM    8  H   UNL     1      27.485  11.757  28.905  1.00  0.00     0.167 HD
BRANCH   7   9
HETATM    9  C   UNL     1      28.203  10.694  27.316  1.00  0.00     0.035 A 
HETATM   10  C   UNL     1      28.379   9.315  27.171  1.00  0.00     0.059 A 
HETATM   11  C   UNL     1      29.407   8.820  26.370  1.00  0.00     0.036 A 
HETATM   12  C   UNL     1      30.264   9.701  25.710  1.00  0.00     0.029 A 
HETATM   13  C   UNL     1      30.093  11.078  25.851  1.00  0.00     0.004 A 
HETATM   14  C   UNL     1      29.064  11.573  26.653  1.00  0.00     0.029 A 
BRANCH  11  15
HETATM   15  N   UNL     1      29.579   7.442  26.227  1.00  0.00    -0.327 N 
HETATM   16  C   UNL     1      29.258   6.644  25.127  1.00  0.00     0.226 C 
HETATM   17  O   UNL     1      28.762   6.995  24.064  1.00  0.00    -0.273 OA
HETATM   18  H   UNL     1      29.983   6.970  27.032  1.00  0.00     0.169 HD
BRANCH  16  19
HETATM   19  C   UNL     1      29.580   5.194  25.316  1.00  0.00     0.078 A 
HETATM   20  C   UNL     1      29.590   4.649  26.701  1.00  0.00     0.015 A 
HETATM   21  C   UNL     1      30.877   4.838  25.953  1.00  0.00     0.015 A 
ENDBRANCH  16  19
ENDBRANCH  11  15
ENDBRANCH   7   9
ENDBRANCH   3   7
BRANCH   5  22
HETATM   22  N   UNL     1      23.165   9.003  29.544  1.00  0.00    -0.341 N 
HETATM   23  H   UNL     1      22.460   8.480  29.030  1.00  0.00     0.167 HD
BRANCH  22  24
HETATM   24  C   UNL     1      23.070   8.811  30.938  1.00  0.00     0.034 A 
HETATM   25  C   UNL     1      24.113   8.198  31.632  1.00  0.00     0.045 A 
HETATM   26  C   UNL     1      24.019   8.010  33.010  1.00  0.00     0.050 A 
HETATM   27  C   UNL     1      22.880   8.434  33.696  1.00  0.00     0.016 A 
HETATM   28  C   UNL     1      21.836   9.046  33.003  1.00  0.00     0.003 A 
HETATM   29  C   UNL     1      21.931   9.235  31.624  1.00  0.00     0.029 A 
BRANCH  26  30
HETATM   30  C   UNL     1      25.135   7.354  33.752  1.00  0.00     0.417 C 
HETATM   31  F   UNL     1      24.859   7.132  35.071  1.00  0.00    -0.166 F 
HETATM   32  F   UNL     1      25.482   6.133  33.250  1.00  0.00    -0.166 F 
HETATM   33  F   UNL     1      26.282   8.096  33.738  1.00  0.00    -0.166 F 
ENDBRANCH  26  30
ENDBRANCH  22  24
ENDBRANCH   5  22
TORSDOF 7
ENDMDL
MODEL 2
REMARK VINA RESULT:      -7.8      4.184      8.354
REMARK  7 active torsions:
REMARK  status: ('A' for Active; 'I' for Inactive)
REMARK       I    between atoms: N_5  and  C_13 
REMARK    1  A    between atoms: N_5  and  C_14 
REMARK    2  A    between atoms: N_6  and  C_17 
REMARK    3  A    between atoms: N_6  and  C_20 
REMARK    4  A    between atoms: N_7  and  C_21 
REMARK    5  A    between atoms: N_7  and  C_23 
REMARK    6  A    between atoms: C_10  and  C_13 
REMARK    7  A    between atoms: C_24  and  C_29 
ROOT
HETATM    1  N   UNL     1      28.819  11.305  28.817  1.00  0.00    -0.224 NA
HETATM    2  N   UNL     1      30.622   9.848  28.158  1.00  0.00    -0.224 NA
HETATM    3  C   UNL     1      28.136  10.890  27.730  1.00  0.00     0.133 A 
HETATM    4  C   UNL     1      28.623   9.969  26.824  1.00  0.00     0.100 A 
HETATM    5  C   UNL     1      29.887   9.472  27.086  1.00  0.00     0.133 A 
HETATM    6  C   UNL     1      30.038  10.752  28.967  1.00  0.00     0.237 A 
ENDROOT
BRANCH   3   7
HETATM    7  N   UNL     1      26.845  11.420  27.493  1.00  0.00    -0.341 N 
HETATM    8  H   UNL     1      26.845  12.224  26.872  1.00  0.00     0.167 HD
BRANCH   7   9
HETATM    9  C   UNL     1      25.568  11.044  27.943  1.00  0.00     0.035 A 
HETATM   10  C   UNL     1      25.432  10.157  29.014  1.00  0.00     0.059 A 
HETATM   11  C   UNL     1      24.164   9.786  29.461  1.00  0.00     0.036 A 
HETATM   12  C   UNL     1      23.027  10.301  28.839  1.00  0.00     0.029 A 
HETATM   13  C   UNL     1      23.157  11.187  27.770  1.00  0.00     0.004 A 
HETATM   14  C   UNL     1      24.426  11.557  27.322  1.00  0.00     0.029 A 
BRANCH  11  15
HETATM   15  N   UNL     1      24.033   8.900  30.531  1.00  0.00    -0.327 N 
HETATM   16  C   UNL     1      22.927   8.712  31.363  1.00  0.00     0.226 C 
HETATM   17  O   UNL     1      21.848   9.288  31.318  1.00  0.00    -0.273 OA
HETATM   18  H   UNL     1      24.853   8.329  30.725  1.00  0.00     0.169 HD
BRANCH  16  19
HETATM   19  C   UNL     1      23.133   7.671  32.419  1.00  0.00     0.078 A 
HETATM   20  C   UNL     1      24.526   7.353  32.834  1.00  0.00     0.015 A 
HETATM   21  C   UNL     1      23.739   6.371  32.018  1.00  0.00     0.015 A 
ENDBRANCH  16  19
ENDBRANCH  11  15
ENDBRANCH   7   9
ENDBRANCH   3   7
BRANCH   5  22
HETATM   22  N   UNL     1      30.420   8.530  26.185  1.00  0.00    -0.341 N 
HETATM   23  H   UNL     1      30.685   8.942  25.294  1.00  0.00     0.167 HD
BRANCH  22  24
HETATM   24  C   UNL     1      30.366   7.122  26.134  1.00  0.00     0.034 A 
HETATM   25  C   UNL     1      31.545   6.380  26.059  1.00  0.00     0.045 A 
HETATM   26  C   UNL     1      31.492   4.988  26.010  1.00  0.00     0.050 A 
HETATM   27  C   UNL     1      30.259   4.336  26.037  1.00  0.00     0.016 A 
HETATM   28  C   UNL     1      29.079   5.077  26.112  1.00  0.00     0.003 A 
HETATM   29  C   UNL     1      29.133   6.470  26.161  1.00  0.00     0.029 A 
BRANCH  26  30
HETATM   30  C   UNL     1      32.753   4.195  25.930  1.00  0.00     0.417 C 
HETATM   31  F   UNL     1      32.696   3.007  26.600  1.00  0.00    -0.166 F 
HETATM   32  F   UNL     1      33.110   3.867  24.653  1.00  0.00    -0.166 F 
HETATM   33  F   UNL     1      33.826   4.859  26.451  1.00  0.00    -0.166 F 
ENDBRANCH  26  30
ENDBRANCH  22  24
ENDBRANCH   5  22
TORSDOF 7
ENDMDL
MODEL 3
REMARK VINA RESULT:      -7.4      3.872      8.563
REMARK  7 active torsions:
REMARK  status: ('A' for Active; 'I' for Inactive)
REMARK       I    between atoms: N_5  and  C_13 
REMARK    1  A    between atoms: N_5  and  C_14 
REMARK    2  A    between atoms: N_6  and  C_17 
REMARK    3  A    between atoms: N_6  and  C_20 
REMARK    4  A    between atoms: N_7  and  C_21 
REMARK    5  A    between atoms: N_7  and  C_23 
REMARK    6  A    between atoms: C_10  and  C_13 
REMARK    7  A    between atoms: C_24  and  C_29 
ROOT
HETATM    1  N   UNL     1      27.356  13.160  25.725  1.00  0.00    -0.224 NA
HETATM    2  N   UNL     1      29.309  12.482  24.488  1.00  0.00    -0.224 NA
HETATM    3  C   UNL     1      27.746  12.337  26.720  1.00  0.00     0.133 A 
HETATM    4  C   UNL     1      28.890  11.566  26.673  1.00  0.00     0.100 A 
HETATM    5  C   UNL     1      29.647  11.675  25.520  1.00  0.00     0.133 A 
HETATM    6  C   UNL     1      28.172  13.183  24.653  1.00  0.00     0.237 A 
ENDROOT
BRANCH   3   7
HETATM    7  N   UNL     1      26.947  12.249  27.886  1.00  0.00    -0.341 N 
HETATM    8  H   UNL     1      27.220  12.903  28.614  1.00  0.00     0.167 HD
BRANCH   7   9
HETATM    9  C   UNL     1      25.850  11.440  28.225  1.00  0.00     0.035 A 
HETATM   10  C   UNL     1      24.551  11.850  27.916  1.00  0.00     0.059 A 
HETATM   11  C   UNL     1      23.463  11.045  28.251  1.00  0.00     0.036 A 
HETATM   12  C   UNL     1      23.669   9.826  28.897  1.00  0.00     0.029 A 
HETATM   13  C   UNL     1      24.964   9.412  29.207  1.00  0.00     0.004 A 
HETATM   14  C   UNL     1      26.053  10.218  28.873  1.00  0.00     0.029 A 
BRANCH  11  15
HETATM   15  N   UNL     1      22.166  11.458  27.939  1.00  0.00    -0.327 N 
HETATM   16  C   UNL     1      21.631  11.740  26.680  1.00  0.00     0.226 C 
HETATM   17  O   UNL     1      22.195  11.681  25.595  1.00  0.00    -0.273 OA
HETATM   18  H   UNL     1      21.543  11.569  28.736  1.00  0.00     0.169 HD
BRANCH  16  19
HETATM   19  C   UNL     1      20.195  12.160  26.713  1.00  0.00     0.078 A 
HETATM   20  C   UNL     1      19.367  11.753  27.881  1.00  0.00     0.015 A 
HETATM   21  C   UNL     1      19.151  11.113  26.541  1.00  0.00     0.015 A 
ENDBRANCH  16  19
ENDBRANCH  11  15
ENDBRANCH   7   9
ENDBRANCH   3   7
BRANCH   5  22
HETATM   22  N   UNL     1      30.822  10.905  25.433  1.00  0.00    -0.341 N 
HETATM   23  H   UNL     1      31.527  11.326  24.832  1.00  0.00     0.167 HD
BRANCH  22  24
HETATM   24  C   UNL     1      31.103   9.555  25.730  1.00  0.00     0.034 A 
HETATM   25  C   UNL     1      30.186   8.559  25.393  1.00  0.00     0.045 A 
HETATM   26  C   UNL     1      30.466   7.225  25.686  1.00  0.00     0.050 A 
HETATM   27  C   UNL     1      31.663   6.886  26.317  1.00  0.00     0.016 A 
HETATM   28  C   UNL     1      32.580   7.881  26.655  1.00  0.00     0.003 A 
HETATM   29  C   UNL     1      32.300   9.216  26.362  1.00  0.00     0.029 A 
BRANCH  26  30
HETATM   30  C   UNL     1      29.486   6.160  25.325  1.00  0.00     0.417 C 
HETATM   31  F   UNL     1      28.666   6.499  24.287  1.00  0.00    -0.166 F 
HETATM   32  F   UNL     1      30.070   4.985  24.948  1.00  0.00    -0.166 F 
HETATM   33  F   UNL     1      28.654   5.840  26.360  1.00  0.00    -0.166 F 
ENDBRANCH  26  30
ENDBRANCH  22  24
ENDBRANCH   5  22
TORSDOF 7
ENDMDL
MODEL 4
REMARK VINA RESULT:      -7.3      3.984      4.631
REMARK  7 active torsions:
REMARK  status: ('A' for Active; 'I' for Inactive)
REMARK       I    between atoms: N_5  and  C_13 
REMARK    1  A    between atoms: N_5  and  C_14 
REMARK    2  A    between atoms: N_6  and  C_17 
REMARK    3  A    between atoms: N_6  and  C_20 
REMARK    4  A    between atoms: N_7  and  C_21 
REMARK    5  A    between atoms: N_7  and  C_23 
REMARK    6  A    between atoms: C_10  and  C_13 
REMARK    7  A    between atoms: C_24  and  C_29 
ROOT
HETATM    1  N   UNL     1      26.036  11.879  25.233  1.00  0.00    -0.224 NA
HETATM    2  N   UNL     1      23.682  11.842  25.745  1.00  0.00    -0.224 NA
HETATM    3  C   UNL     1      26.287  11.737  26.551  1.00  0.00     0.133 A 
HETATM    4  C   UNL     1      25.302  11.642  27.513  1.00  0.00     0.100 A 
HETATM    5  C   UNL     1      23.999  11.701  27.053  1.00  0.00     0.133 A 
HETATM    6  C   UNL     1      24.731  11.924  24.904  1.00  0.00     0.237 A 
ENDROOT
BRANCH   3   7
HETATM    7  N   UNL     1      27.633  11.681  26.987  1.00  0.00    -0.341 N 
HETATM    8  H   UNL     1      27.827  12.285  27.781  1.00  0.00     0.167 HD
BRANCH   7   9
HETATM    9  C   UNL     1      28.745  10.949  26.539  1.00  0.00     0.035 A 
HETATM   10  C   UNL     1      28.702   9.553  26.506  1.00  0.00     0.059 A 
HETATM   11  C   UNL     1      29.806   8.827  26.059  1.00  0.00     0.036 A 
HETATM   12  C   UNL     1      30.959   9.495  25.644  1.00  0.00     0.029 A 
HETATM   13  C   UNL     1      31.007  10.889  25.675  1.00  0.00     0.004 A 
HETATM   14  C   UNL     1      29.902  11.614  26.122  1.00  0.00     0.029 A 
BRANCH  11  15
HETATM   15  N   UNL     1      29.759   7.433  26.027  1.00  0.00    -0.327 N 
HETATM   16  C   UNL     1      29.780   6.596  24.909  1.00  0.00     0.226 C 
HETATM   17  O   UNL     1      29.845   6.920  23.730  1.00  0.00    -0.273 OA
HETATM   18  H   UNL     1      29.695   6.980  26.936  1.00  0.00     0.169 HD
BRANCH  16  19
HETATM   19  C   UNL     1      29.714   5.138  25.242  1.00  0.00     0.078 A 
HETATM   20  C   UNL     1      29.589   4.747  26.672  1.00  0.00     0.015 A 
HETATM   21  C   UNL     1      30.877   4.521  25.936  1.00  0.00     0.015 A 
ENDBRANCH  16  19
ENDBRANCH  11  15
ENDBRANCH   7   9
ENDBRANCH   3   7
BRANCH   5  22
HETATM   22  N   UNL     1      22.964  11.607  28.003  1.00  0.00    -0.341 N 
HETATM   23  H   UNL     1      23.282  11.243  28.898  1.00  0.00     0.167 HD
BRANCH  22  24
HETATM   24  C   UNL     1      21.558  11.603  27.886  1.00  0.00     0.034 A 
HETATM   25  C   UNL     1      20.762  11.634  29.031  1.00  0.00     0.045 A 
HETATM   26  C   UNL     1      19.373  11.632  28.915  1.00  0.00     0.050 A 
HETATM   27  C   UNL     1      18.779  11.598  27.654  1.00  0.00     0.016 A 
HETATM   28  C   UNL     1      19.574  11.567  26.508  1.00  0.00     0.003 A 
HETATM   29  C   UNL     1      20.964  11.569  26.625  1.00  0.00     0.029 A 
BRANCH  26  30
HETATM   30  C   UNL     1      18.521  11.666  30.140  1.00  0.00     0.417 C 
HETATM   31  F   UNL     1      18.331  10.439  30.708  1.00  0.00    -0.166 F 
HETATM   32  F   UNL     1      19.031  12.446  31.138  1.00  0.00    -0.166 F 
HETATM   33  F   UNL     1      17.270  12.154  29.896  1.00  0.00    -0.166 F 
ENDBRANCH  26  30
ENDBRANCH  22  24
ENDBRANCH   5  22
TORSDOF 7
ENDMDL
MODEL 5
REMARK VINA RESULT:      -7.0      2.492      2.924
REMARK  7 active torsions:
REMARK  status: ('A' for Active; 'I' for Inactive)
REMARK       I    between atoms: N_5  and  C_13 
REMARK    1  A    between atoms: N_5  and  C_14 
REMARK    2  A    between atoms: N_6  and  C_17 
REMARK    3  A    between atoms: N_6  and  C_20 
REMARK    4  A    between atoms: N_7  and  C_21 
REMARK    5  A    between atoms: N_7  and  C_23 
REMARK    6  A    between atoms: C_10  and  C_13 
REMARK    7  A    between atoms: C_24  and  C_29 
ROOT
HETATM    1  N   UNL     1      26.005  12.099  27.280  1.00  0.00    -0.224 NA
HETATM    2  N   UNL     1      24.163  10.795  28.125  1.00  0.00    -0.224 NA
HETATM    3  C   UNL     1      26.842  11.294  27.967  1.00  0.00     0.133 A 
HETATM    4  C   UNL     1      26.421  10.234  28.743  1.00  0.00     0.100 A 
HETATM    5  C   UNL     1      25.054  10.024  28.791  1.00  0.00     0.133 A 
HETATM    6  C   UNL     1      24.698  11.798  27.403  1.00  0.00     0.237 A 
ENDROOT
BRANCH   3   7
HETATM    7  N   UNL     1      28.235  11.539  27.896  1.00  0.00    -0.341 N 
HETATM    8  H   UNL     1      28.560  12.225  28.571  1.00  0.00     0.167 HD
BRANCH   7   9
HETATM    9  C   UNL     1      29.250  11.012  27.080  1.00  0.00     0.035 A 
HETATM   10  C   UNL     1      29.220   9.667  26.699  1.00  0.00     0.059 A 
HETATM   11  C   UNL     1      30.227   9.146  25.888  1.00  0.00     0.036 A 
HETATM   12  C   UNL     1      31.269   9.966  25.454  1.00  0.00     0.029 A 
HETATM   13  C   UNL     1      31.303  11.308  25.831  1.00  0.00     0.004 A 
HETATM   14  C   UNL     1      30.296  11.830  26.644  1.00  0.00     0.029 A 
BRANCH  11  15
HETATM   15  N   UNL     1      30.193   7.803  25.509  1.00  0.00    -0.327 N 
HETATM   16  C   UNL     1      31.102   6.793  25.834  1.00  0.00     0.226 C 
HETATM   17  O   UNL     1      32.112   6.884  26.519  1.00  0.00    -0.273 OA
HETATM   18  H   UNL     1      29.407   7.539  24.918  1.00  0.00     0.169 HD
BRANCH  16  19
HETATM   19  C   UNL     1      30.755   5.457  25.254  1.00  0.00     0.078 A 
HETATM   20  C   UNL     1      29.475   4.820  25.665  1.00  0.00     0.015 A 
HETATM   21  C   UNL     1      30.783   4.270  26.152  1.00  0.00     0.015 A 
ENDBRANCH  16  19
ENDBRANCH  11  15
ENDBRANCH   7   9
ENDBRANCH   3   7
BRANCH   5  22
HETATM   22  N   UNL     1      24.583   8.951  29.572  1.00  0.00    -0.341 N 
HETATM   23  H   UNL     1      24.665   8.053  29.100  1.00  0.00     0.167 HD
BRANCH  22  24
HETATM   24  C   UNL     1      23.747   8.891  30.706  1.00  0.00     0.034 A 
HETATM   25  C   UNL     1      22.517   9.549  30.703  1.00  0.00     0.045 A 
HETATM   26  C   UNL     1      21.690   9.487  31.824  1.00  0.00     0.050 A 
HETATM   27  C   UNL     1      22.094   8.768  32.949  1.00  0.00     0.016 A 
HETATM   28  C   UNL     1      23.324   8.111  32.953  1.00  0.00     0.003 A 
HETATM   29  C   UNL     1      24.150   8.172  31.831  1.00  0.00     0.029 A 
BRANCH  26  30
HETATM   30  C   UNL     1      20.375  10.190  31.821  1.00  0.00     0.417 C 
HETATM   31  F   UNL     1      19.998  10.652  33.050  1.00  0.00    -0.166 F 
HETATM   32  F   UNL     1      20.342  11.284  31.004  1.00  0.00    -0.166 F 
HETATM   33  F   UNL     1      19.352   9.389  31.401  1.00  0.00    -0.166 F 
ENDBRANCH  26  30
ENDBRANCH  22  24
ENDBRANCH   5  22
TORSDOF 7
ENDMDL
MODEL 6
REMARK VINA RESULT:      -6.9      5.988     10.164
REMARK  7 active torsions:
REMARK  status: ('A' for Active; 'I' for Inactive)
REMARK       I    between atoms: N_5  and  C_13 
REMARK    1  A    between atoms: N_5  and  C_14 
REMARK    2  A    between atoms: N_6  and  C_17 
REMARK    3  A    between atoms: N_6  and  C_20 
REMARK    4  A    between atoms: N_7  and  C_21 
REMARK    5  A    between atoms: N_7  and  C_23 
REMARK    6  A    between atoms: C_10  and  C_13 
REMARK    7  A    between atoms: C_24  and  C_29 
ROOT
HETATM    1  N   UNL     1      30.040  10.733  31.383  1.00  0.00    -0.224 NA
HETATM    2  N   UNL     1      30.456  10.764  29.009  1.00  0.00    -0.224 NA
HETATM    3  C   UNL     1      30.966   9.757  31.494  1.00  0.00     0.133 A 
HETATM    4  C   UNL     1      31.668   9.241  30.424  1.00  0.00     0.100 A 
HETATM    5  C   UNL     1      31.373   9.785  29.187  1.00  0.00     0.133 A 
HETATM    6  C   UNL     1      29.837  11.183  30.130  1.00  0.00     0.237 A 
ENDROOT
BRANCH   3   7
HETATM    7  N   UNL     1      31.243   9.223  32.776  1.00  0.00    -0.341 N 
HETATM    8  H   UNL     1      32.206   9.358  33.072  1.00  0.00     0.167 HD
BRANCH   7   9
HETATM    9  C   UNL     1      30.444   8.550  33.715  1.00  0.00     0.035 A 
HETATM   10  C   UNL     1      30.389   8.994  35.039  1.00  0.00     0.059 A 
HETATM   11  C   UNL     1      29.595   8.326  35.970  1.00  0.00     0.036 A 
HETATM   12  C   UNL     1      28.852   7.210  35.582  1.00  0.00     0.029 A 
HETATM   13  C   UNL     1      28.904   6.763  34.262  1.00  0.00     0.004 A 
HETATM   14  C   UNL     1      29.699   7.431  33.331  1.00  0.00     0.029 A 
BRANCH  11  15
HETATM   15  N   UNL     1      29.541   8.773  37.291  1.00  0.00    -0.327 N 
HETATM   16  C   UNL     1      29.134  10.024  37.761  1.00  0.00     0.226 C 
HETATM   17  O   UNL     1      28.739  10.979  37.106  1.00  0.00    -0.273 OA
HETATM   18  H   UNL     1      29.845   8.099  37.990  1.00  0.00     0.169 HD
BRANCH  16  19
HETATM   19  C   UNL     1      29.203  10.163  39.250  1.00  0.00     0.078 A 
HETATM   20  C   UNL     1      30.138  11.170  39.821  1.00  0.00     0.015 A 
HETATM   21  C   UNL     1      30.438   9.705  39.944  1.00  0.00     0.015 A 
ENDBRANCH  16  19
ENDBRANCH  11  15
ENDBRANCH   7   9
ENDBRANCH   3   7
BRANCH   5  22
HETATM   22  N   UNL     1      32.068   9.286  28.069  1.00  0.00    -0.341 N 
HETATM   23  H   UNL     1      32.446  10.023  27.478  1.00  0.00     0.167 HD
BRANCH  22  24
HETATM   24  C   UNL     1      32.077   8.027  27.434  1.00  0.00     0.034 A 
HETATM   25  C   UNL     1      30.881   7.452  27.005  1.00  0.00     0.045 A 
HETATM   26  C   UNL     1      30.891   6.208  26.376  1.00  0.00     0.050 A 
HETATM   27  C   UNL     1      32.098   5.537  26.175  1.00  0.00     0.016 A 
HETATM   28  C   UNL     1      33.294   6.111  26.604  1.00  0.00     0.003 A 
HETATM   29  C   UNL     1      33.284   7.356  27.234  1.00  0.00     0.029 A 
BRANCH  26  30
HETATM   30  C   UNL     1      29.611   5.593  25.917  1.00  0.00     0.417 C 
HETATM   31  F   UNL     1      28.499   6.257  26.348  1.00  0.00    -0.166 F 
HETATM   32  F   UNL     1      29.489   5.537  24.558  1.00  0.00    -0.166 F 
HETATM   33  F   UNL     1      29.462   4.307  26.351  1.00  0.00    -0.166 F 
ENDBRANCH  26  30
ENDBRANCH  22  24
ENDBRANCH   5  22
TORSDOF 7
ENDMDL
MODEL 7
REMARK VINA RESULT:      -6.9      4.702      9.387
REMARK  7 active torsions:
REMARK  status: ('A' for Active; 'I' for Inactive)
REMARK       I    between atoms: N_5  and  C_13 
REMARK    1  A    between atoms: N_5  and  C_14 
REMARK    2  A    between atoms: N_6  and  C_17 
REMARK    3  A    between atoms: N_6  and  C_20 
REMARK    4  A    between atoms: N_7  and  C_21 
REMARK    5  A    between atoms: N_7  and  C_23 
REMARK    6  A    between atoms: C_10  and  C_13 
REMARK    7  A    between atoms: C_24  and  C_29 
ROOT
HETATM    1  N   UNL     1      25.738  12.938  27.572  1.00  0.00    -0.224 NA
HETATM    2  N   UNL     1      28.105  12.510  27.432  1.00  0.00    -0.224 NA
HETATM    3  C   UNL     1      25.560  11.640  27.895  1.00  0.00     0.133 A 
HETATM    4  C   UNL     1      26.591  10.729  28.004  1.00  0.00     0.100 A 
HETATM    5  C   UNL     1      27.861  11.220  27.760  1.00  0.00     0.133 A 
HETATM    6  C   UNL     1      27.017  13.300  27.356  1.00  0.00     0.237 A 
ENDROOT
BRANCH   3   7
HETATM    7  N   UNL     1      24.246  11.172  28.138  1.00  0.00    -0.341 N 
HETATM    8  H   UNL     1      24.182  10.535  28.928  1.00  0.00     0.167 HD
BRANCH   7   9
HETATM    9  C   UNL     1      23.018  11.422  27.504  1.00  0.00     0.035 A 
HETATM   10  C   UNL     1      21.819  11.277  28.208  1.00  0.00     0.059 A 
HETATM   11  C   UNL     1      20.601  11.526  27.577  1.00  0.00     0.036 A 
HETATM   12  C   UNL     1      20.575  11.923  26.240  1.00  0.00     0.029 A 
HETATM   13  C   UNL     1      21.768  12.069  25.533  1.00  0.00     0.004 A 
HETATM   14  C   UNL     1      22.987  11.818  26.164  1.00  0.00     0.029 A 
BRANCH  11  15
HETATM   15  N   UNL     1      19.406  11.381  28.284  1.00  0.00    -0.327 N 
HETATM   16  C   UNL     1      19.172  11.625  29.640  1.00  0.00     0.226 C 
HETATM   17  O   UNL     1      19.971  12.016  30.480  1.00  0.00    -0.273 OA
HETATM   18  H   UNL     1      18.615  11.051  27.736  1.00  0.00     0.169 HD
BRANCH  16  19
HETATM   19  C   UNL     1      17.762  11.363  30.068  1.00  0.00     0.078 A 
HETATM   20  C   UNL     1      16.659  11.960  29.267  1.00  0.00     0.015 A 
HETATM   21  C   UNL     1      16.976  12.493  30.633  1.00  0.00     0.015 A 
ENDBRANCH  16  19
ENDBRANCH  11  15
ENDBRANCH   7   9
ENDBRANCH   3   7
BRANCH   5  22
HETATM   22  N   UNL     1      28.941  10.322  27.861  1.00  0.00    -0.341 N 
HETATM   23  H   UNL     1      29.391  10.347  28.774  1.00  0.00     0.167 HD
BRANCH  22  24
HETATM   24  C   UNL     1      29.716   9.648  26.895  1.00  0.00     0.034 A 
HETATM   25  C   UNL     1      29.242   8.471  26.316  1.00  0.00     0.045 A 
HETATM   26  C   UNL     1      30.009   7.806  25.360  1.00  0.00     0.050 A 
HETATM   27  C   UNL     1      31.251   8.318  24.983  1.00  0.00     0.016 A 
HETATM   28  C   UNL     1      31.725   9.495  25.562  1.00  0.00     0.003 A 
HETATM   29  C   UNL     1      30.958  10.160  26.518  1.00  0.00     0.029 A 
BRANCH  26  30
HETATM   30  C   UNL     1      29.502   6.547  24.740  1.00  0.00     0.417 C 
HETATM   31  F   UNL     1      28.600   6.755  23.737  1.00  0.00    -0.166 F 
HETATM   32  F   UNL     1      30.485   5.780  24.183  1.00  0.00    -0.166 F 
HETATM   33  F   UNL     1      28.870   5.737  25.639  1.00  0.00    -0.166 F 
ENDBRANCH  26  30
ENDBRANCH  22  24
ENDBRANCH   5  22
TORSDOF 7
ENDMDL
MODEL 8
REMARK VINA RESULT:      -6.7     21.008     22.274
REMARK  7 active torsions:
REMARK  status: ('A' for Active; 'I' for Inactive)
REMARK       I    between atoms: N_5  and  C_13 
REMARK    1  A    between atoms: N_5  and  C_14 
REMARK    2  A    between atoms: N_6  and  C_17 
REMARK    3  A    between atoms: N_6  and  C_20 
REMARK    4  A    between atoms: N_7  and  C_21 
REMARK    5  A    between atoms: N_7  and  C_23 
REMARK    6  A    between atoms: C_10  and  C_13 
REMARK    7  A    between atoms: C_24  and  C_29 
ROOT
HETATM    1  N   UNL     1      17.483  -6.518  40.551  1.00  0.00    -0.224 NA
HETATM    2  N   UNL     1      15.399  -5.556  41.283  1.00  0.00    -0.224 NA
HETATM    3  C   UNL     1      18.123  -5.483  41.132  1.00  0.00     0.133 A 
HETATM    4  C   UNL     1      17.479  -4.460  41.798  1.00  0.00     0.100 A 
HETATM    5  C   UNL     1      16.099  -4.543  41.846  1.00  0.00     0.133 A 
HETATM    6  C   UNL     1      16.141  -6.492  40.662  1.00  0.00     0.237 A 
ENDROOT
BRANCH   3   7
HETATM    7  N   UNL     1      19.536  -5.428  41.063  1.00  0.00    -0.341 N 
HETATM    8  H   UNL     1      19.886  -5.093  40.170  1.00  0.00     0.167 HD
BRANCH   7   9
HETATM    9  C   UNL     1      20.543  -5.741  41.991  1.00  0.00     0.035 A 
HETATM   10  C   UNL     1      21.105  -4.737  42.785  1.00  0.00     0.059 A 
HETATM   11  C   UNL     1      22.104  -5.048  43.707  1.00  0.00     0.036 A 
HETATM   12  C   UNL     1      22.545  -6.365  43.840  1.00  0.00     0.029 A 
HETATM   13  C   UNL     1      21.988  -7.370  43.050  1.00  0.00     0.004 A 
HETATM   14  C   UNL     1      20.989  -7.058  42.127  1.00  0.00     0.029 A 
BRANCH  11  15
HETATM   15  N   UNL     1      22.661  -4.043  44.499  1.00  0.00    -0.327 N 
HETATM   16  C   UNL     1      22.005  -3.168  45.368  1.00  0.00     0.226 C 
HETATM   17  O   UNL     1      20.807  -3.110  45.611  1.00  0.00    -0.273 OA
HETATM   18  H   UNL     1      23.670  -3.939  44.421  1.00  0.00     0.169 HD
BRANCH  16  19
HETATM   19  C   UNL     1      22.919  -2.208  46.065  1.00  0.00     0.078 A 
HETATM   20  C   UNL     1      24.143  -2.747  46.717  1.00  0.00     0.015 A 
HETATM   21  C   UNL     1      22.994  -2.259  47.550  1.00  0.00     0.015 A 
ENDBRANCH  16  19
ENDBRANCH  11  15
ENDBRANCH   7   9
ENDBRANCH   3   7
BRANCH   5  22
HETATM   22  N   UNL     1      15.403  -3.519  42.517  1.00  0.00    -0.341 N 
HETATM   23  H   UNL     1      15.466  -2.622  42.041  1.00  0.00     0.167 HD
BRANCH  22  24
HETATM   24  C   UNL     1      14.923  -3.398  43.838  1.00  0.00     0.034 A 
HETATM   25  C   UNL     1      13.552  -3.314  44.077  1.00  0.00     0.045 A 
HETATM   26  C   UNL     1      13.078  -3.196  45.383  1.00  0.00     0.050 A 
HETATM   27  C   UNL     1      13.976  -3.160  46.451  1.00  0.00     0.016 A 
HETATM   28  C   UNL     1      15.347  -3.244  46.212  1.00  0.00     0.003 A 
HETATM   29  C   UNL     1      15.821  -3.363  44.905  1.00  0.00     0.029 A 
BRANCH  26  30
HETATM   30  C   UNL     1      11.611  -3.106  45.640  1.00  0.00     0.417 C 
HETATM   31  F   UNL     1      11.299  -2.548  46.847  1.00  0.00    -0.166 F 
HETATM   32  F   UNL     1      10.940  -2.357  44.717  1.00  0.00    -0.166 F 
HETATM   33  F   UNL     1      11.001  -4.328  45.633  1.00  0.00    -0.166 F 
ENDBRANCH  26  30
ENDBRANCH  22  24
ENDBRANCH   5  22
TORSDOF 7
ENDMDL
MODEL 9
REMARK VINA RESULT:      -6.7      4.692      8.005
REMARK  7 active torsions:
REMARK  status: ('A' for Active; 'I' for Inactive)
REMARK       I    between atoms: N_5  and  C_13 
REMARK    1  A    between atoms: N_5  and  C_14 
REMARK    2  A    between atoms: N_6  and  C_17 
REMARK    3  A    between atoms: N_6  and  C_20 
REMARK    4  A    between atoms: N_7  and  C_21 
REMARK    5  A    between atoms: N_7  and  C_23 
REMARK    6  A    between atoms: C_10  and  C_13 
REMARK    7  A    between atoms: C_24  and  C_29 
ROOT
HETATM    1  N   UNL     1      27.066  11.782  29.141  1.00  0.00    -0.224 NA
HETATM    2  N   UNL     1      26.831  10.436  27.156  1.00  0.00    -0.224 NA
HETATM    3  C   UNL     1      28.401  11.770  28.946  1.00  0.00     0.133 A 
HETATM    4  C   UNL     1      29.016  11.123  27.894  1.00  0.00     0.100 A 
HETATM    5  C   UNL     1      28.177  10.462  27.016  1.00  0.00     0.133 A 
HETATM    6  C   UNL     1      26.352  11.104  28.223  1.00  0.00     0.237 A 
ENDROOT
BRANCH   3   7
HETATM    7  N   UNL     1      29.231  12.457  29.866  1.00  0.00    -0.341 N 
HETATM    8  H   UNL     1      29.852  13.130  29.426  1.00  0.00     0.167 HD
BRANCH   7   9
HETATM    9  C   UNL     1      29.355  12.391  31.264  1.00  0.00     0.035 A 
HETATM   10  C   UNL     1      29.070  11.202  31.940  1.00  0.00     0.059 A 
HETATM   11  C   UNL     1      29.194  11.137  33.328  1.00  0.00     0.036 A 
HETATM   12  C   UNL     1      29.605  12.261  34.045  1.00  0.00     0.029 A 
HETATM   13  C   UNL     1      29.891  13.450  33.374  1.00  0.00     0.004 A 
HETATM   14  C   UNL     1      29.765  13.515  31.986  1.00  0.00     0.029 A 
BRANCH  11  15
HETATM   15  N   UNL     1      28.909   9.947  33.999  1.00  0.00    -0.327 N 
HETATM   16  C   UNL     1      29.710   8.808  34.111  1.00  0.00     0.226 C 
HETATM   17  O   UNL     1      30.826   8.626  33.642  1.00  0.00    -0.273 OA
HETATM   18  H   UNL     1      28.000   9.914  34.456  1.00  0.00     0.169 HD
BRANCH  16  19
HETATM   19  C   UNL     1      29.087   7.707  34.911  1.00  0.00     0.078 A 
HETATM   20  C   UNL     1      28.748   6.436  34.217  1.00  0.00     0.015 A 
HETATM   21  C   UNL     1      27.660   7.371  34.656  1.00  0.00     0.015 A 
ENDBRANCH  16  19
ENDBRANCH  11  15
ENDBRANCH   7   9
ENDBRANCH   3   7
BRANCH   5  22
HETATM   22  N   UNL     1      28.766   9.790  25.928  1.00  0.00    -0.341 N 
HETATM   23  H   UNL     1      28.221   9.870  25.072  1.00  0.00     0.167 HD
BRANCH  22  24
HETATM   24  C   UNL     1      29.753   8.786  25.847  1.00  0.00     0.034 A 
HETATM   25  C   UNL     1      29.394   7.443  25.964  1.00  0.00     0.045 A 
HETATM   26  C   UNL     1      30.371   6.451  25.882  1.00  0.00     0.050 A 
HETATM   27  C   UNL     1      31.706   6.801  25.683  1.00  0.00     0.016 A 
HETATM   28  C   UNL     1      32.065   8.144  25.567  1.00  0.00     0.003 A 
HETATM   29  C   UNL     1      31.088   9.136  25.648  1.00  0.00     0.029 A 
BRANCH  26  30
HETATM   30  C   UNL     1      29.988   5.014  26.007  1.00  0.00     0.417 C 
HETATM   31  F   UNL     1      28.988   4.637  25.157  1.00  0.00    -0.166 F 
HETATM   32  F   UNL     1      31.015   4.151  25.754  1.00  0.00    -0.166 F 
HETATM   33  F   UNL     1      29.543   4.696  27.259  1.00  0.00    -0.166 F 
ENDBRANCH  26  30
ENDBRANCH  22  24
ENDBRANCH   5  22
TORSDOF 7
ENDMDL
