MODEL 1
REMARK VINA RESULT:      -7.5      0.000      0.000
REMARK  7 active torsions:
REMARK  status: ('A' for Active; 'I' for Inactive)
REMARK       I    between atoms: N_5  and  C_13 
REMARK    1  A    between atoms: N_5  and  C_14 
REMARK    2  A    between atoms: N_6  and  C_17 
REMARK    3  A    between atoms: N_6  and  C_20 
REMARK    4  A    between atoms: N_7  and  C_21 
REMARK    5  A    between atoms: N_7  and  C_23 
REMARK    6  A    between atoms: C_10  and  C_13 
REMARK    7  A    between atoms: C_24  and  C_29 
ROOT
HETATM    1  N   UNL     1      27.731  12.425  25.839  1.00  0.00    -0.224 NA
HETATM    2  N   UNL     1      29.867  11.528  25.176  1.00  0.00    -0.224 NA
HETATM    3  C   UNL     1      27.898  11.835  27.041  1.00  0.00     0.133 A 
HETATM    4  C   UNL     1      29.006  11.086  27.380  1.00  0.00     0.100 A 
HETATM    5  C   UNL     1      29.975  10.961  26.400  1.00  0.00     0.133 A 
HETATM    6  C   UNL     1      28.739  12.233  24.967  1.00  0.00     0.237 A 
ENDROOT
BRANCH   3   7
HETATM    7  N   UNL     1      26.885  11.984  28.020  1.00  0.00    -0.341 N 
HETATM    8  H   UNL     1      27.000  12.811  28.598  1.00  0.00     0.167 HD
BRANCH   7   9
HETATM    9  C   UNL     1      25.755  11.214  28.339  1.00  0.00     0.035 A 
HETATM   10  C   UNL     1      24.476  11.666  28.001  1.00  0.00     0.059 A 
HETATM   11  C   UNL     1      23.355  10.900  28.317  1.00  0.00     0.036 A 
HETATM   12  C   UNL     1      23.506   9.678  28.972  1.00  0.00     0.029 A 
HETATM   13  C   UNL     1      24.780   9.222  29.311  1.00  0.00     0.004 A 
HETATM   14  C   UNL     1      25.902   9.989  28.996  1.00  0.00     0.029 A 
BRANCH  11  15
HETATM   15  N   UNL     1      22.080  11.356  27.977  1.00  0.00    -0.327 N 
HETATM   16  C   UNL     1      21.578  11.643  26.706  1.00  0.00     0.226 C 
HETATM   17  O   UNL     1      22.159  11.550  25.632  1.00  0.00    -0.273 OA
HETATM   18  H   UNL     1      21.447  11.499  28.762  1.00  0.00     0.169 HD
BRANCH  16  19
HETATM   19  C   UNL     1      20.158  12.114  26.708  1.00  0.00     0.078 A 
HETATM   20  C   UNL     1      19.308  11.788  27.884  1.00  0.00     0.015 A 
HETATM   21  C   UNL     1      19.078  11.098  26.572  1.00  0.00     0.015 A 
ENDBRANCH  16  19
ENDBRANCH  11  15
ENDBRANCH   7   9
ENDBRANCH   3   7
BRANCH   5  22
HETATM   22  N   UNL     1      31.122  10.205  26.707  1.00  0.00    -0.341 N 
HETATM   23  H   UNL     1      31.955  10.779  26.820  1.00  0.00     0.167 HD
BRANCH  22  24
HETATM   24  C   UNL     1      31.426   8.834  26.576  1.00  0.00     0.034 A 
HETATM   25  C   UNL     1      30.398   7.902  26.428  1.00  0.00     0.045 A 
HETATM   26  C   UNL     1      30.699   6.547  26.296  1.00  0.00     0.050 A 
HETATM   27  C   UNL     1      32.028   6.123  26.313  1.00  0.00     0.016 A 
HETATM   28  C   UNL     1      33.056   7.054  26.461  1.00  0.00     0.003 A 
HETATM   29  C   UNL     1      32.754   8.410  26.592  1.00  0.00     0.029 A 
BRANCH  26  30
HETATM   30  C   UNL     1      29.601   5.550  26.138  1.00  0.00     0.417 C 
HETATM   31  F   UNL     1      29.773   4.421  26.887  1.00  0.00    -0.166 F 
HETATM   32  F   UNL     1      28.373   6.030  26.494  1.00  0.00    -0.166 F 
HETATM   33  F   UNL     1      29.466   5.117  24.850  1.00  0.00    -0.166 F 
ENDBRANCH  26  30
ENDBRANCH  22  24
ENDBRANCH   5  22
TORSDOF 7
ENDMDL
MODEL 2
REMARK VINA RESULT:      -7.5      2.424      3.767
REMARK  7 active torsions:
REMARK  status: ('A' for Active; 'I' for Inactive)
REMARK       I    between atoms: N_5  and  C_13 
REMARK    1  A    between atoms: N_5  and  C_14 
REMARK    2  A    between atoms: N_6  and  C_17 
REMARK    3  A    between atoms: N_6  and  C_20 
REMARK    4  A    between atoms: N_7  and  C_21 
REMARK    5  A    between atoms: N_7  and  C_23 
REMARK    6  A    between atoms: C_10  and  C_13 
REMARK    7  A    between atoms: C_24  and  C_29 
ROOT
HETATM    1  N   UNL     1      28.690  12.448  26.129  1.00  0.00    -0.224 NA
HETATM    2  N   UNL     1      30.427  10.917  25.462  1.00  0.00    -0.224 NA
HETATM    3  C   UNL     1      28.378  11.599  27.130  1.00  0.00     0.133 A 
HETATM    4  C   UNL     1      29.036  10.408  27.359  1.00  0.00     0.100 A 
HETATM    5  C   UNL     1      30.066  10.108  26.485  1.00  0.00     0.133 A 
HETATM    6  C   UNL     1      29.709  12.050  25.344  1.00  0.00     0.237 A 
ENDROOT
BRANCH   3   7
HETATM    7  N   UNL     1      27.317  11.937  28.006  1.00  0.00    -0.341 N 
HETATM    8  H   UNL     1      27.514  12.747  28.587  1.00  0.00     0.167 HD
BRANCH   7   9
HETATM    9  C   UNL     1      26.048  11.374  28.219  1.00  0.00     0.035 A 
HETATM   10  C   UNL     1      25.844  10.474  29.268  1.00  0.00     0.059 A 
HETATM   11  C   UNL     1      24.584   9.916  29.480  1.00  0.00     0.036 A 
HETATM   12  C   UNL     1      23.521  10.256  28.643  1.00  0.00     0.029 A 
HETATM   13  C   UNL     1      23.719  11.154  27.594  1.00  0.00     0.004 A 
HETATM   14  C   UNL     1      24.980  11.711  27.382  1.00  0.00     0.029 A 
BRANCH  11  15
HETATM   15  N   UNL     1      24.385   9.018  30.530  1.00  0.00    -0.327 N 
HETATM   16  C   UNL     1      23.220   8.802  31.270  1.00  0.00     0.226 C 
HETATM   17  O   UNL     1      22.137   9.359  31.143  1.00  0.00    -0.273 OA
HETATM   18  H   UNL     1      25.198   8.461  30.784  1.00  0.00     0.169 HD
BRANCH  16  19
HETATM   19  C   UNL     1      23.362   7.756  32.330  1.00  0.00     0.078 A 
HETATM   20  C   UNL     1      23.262   8.176  33.754  1.00  0.00     0.015 A 
HETATM   21  C   UNL     1      24.586   7.771  33.176  1.00  0.00     0.015 A 
ENDBRANCH  16  19
ENDBRANCH  11  15
ENDBRANCH   7   9
ENDBRANCH   3   7
BRANCH   5  22
HETATM   22  N   UNL     1      30.763   8.901  26.684  1.00  0.00    -0.341 N 
HETATM   23  H   UNL     1      31.744   9.045  26.917  1.00  0.00     0.167 HD
BRANCH  22  24
HETATM   24  C   UNL     1      30.485   7.567  26.323  1.00  0.00     0.034 A 
HETATM   25  C   UNL     1      31.489   6.601  26.386  1.00  0.00     0.045 A 
HETATM   26  C   UNL     1      31.212   5.282  26.031  1.00  0.00     0.050 A 
HETATM   27  C   UNL     1      29.930   4.927  25.611  1.00  0.00     0.016 A 
HETATM   28  C   UNL     1      28.925   5.892  25.547  1.00  0.00     0.003 A 
HETATM   29  C   UNL     1      29.202   7.212  25.903  1.00  0.00     0.029 A 
BRANCH  26  30
HETATM   30  C   UNL     1      32.287   4.249  26.098  1.00  0.00     0.417 C 
HETATM   31  F   UNL     1      33.331   4.597  26.905  1.00  0.00    -0.166 F 
HETATM   32  F   UNL     1      31.856   3.043  26.573  1.00  0.00    -0.166 F 
HETATM   33  F   UNL     1      32.839   3.985  24.878  1.00  0.00    -0.166 F 
ENDBRANCH  26  30
ENDBRANCH  22  24
ENDBRANCH   5  22
TORSDOF 7
ENDMDL
MODEL 3
REMARK VINA RESULT:      -7.3      1.733      3.128
REMARK  7 active torsions:
REMARK  status: ('A' for Active; 'I' for Inactive)
REMARK       I    between atoms: N_5  and  C_13 
REMARK    1  A    between atoms: N_5  and  C_14 
REMARK    2  A    between atoms: N_6  and  C_17 
REMARK    3  A    between atoms: N_6  and  C_20 
REMARK    4  A    between atoms: N_7  and  C_21 
REMARK    5  A    between atoms: N_7  and  C_23 
REMARK    6  A    between atoms: C_10  and  C_13 
REMARK    7  A    between atoms: C_24  and  C_29 
ROOT
HETATM    1  N   UNL     1      28.057  12.811  25.038  1.00  0.00    -0.224 NA
HETATM    2  N   UNL     1      29.763  11.156  25.440  1.00  0.00    -0.224 NA
HETATM    3  C   UNL     1      27.309  12.216  25.990  1.00  0.00     0.133 A 
HETATM    4  C   UNL     1      27.714  11.105  26.701  1.00  0.00     0.100 A 
HETATM    5  C   UNL     1      28.964  10.606  26.384  1.00  0.00     0.133 A 
HETATM    6  C   UNL     1      29.255  12.237  24.816  1.00  0.00     0.237 A 
ENDROOT
BRANCH   3   7
HETATM    7  N   UNL     1      26.032  12.753  26.289  1.00  0.00    -0.341 N 
HETATM    8  H   UNL     1      26.028  13.765  26.370  1.00  0.00     0.167 HD
BRANCH   7   9
HETATM    9  C   UNL     1      24.776  12.156  26.486  1.00  0.00     0.035 A 
HETATM   10  C   UNL     1      24.479  11.522  27.695  1.00  0.00     0.059 A 
HETATM   11  C   UNL     1      23.231  10.932  27.890  1.00  0.00     0.036 A 
HETATM   12  C   UNL     1      22.273  10.973  26.877  1.00  0.00     0.029 A 
HETATM   13  C   UNL     1      22.565  11.604  25.668  1.00  0.00     0.004 A 
HETATM   14  C   UNL     1      23.814  12.194  25.473  1.00  0.00     0.029 A 
BRANCH  11  15
HETATM   15  N   UNL     1      22.939  10.300  29.100  1.00  0.00    -0.327 N 
HETATM   16  C   UNL     1      23.628   9.251  29.713  1.00  0.00     0.226 C 
HETATM   17  O   UNL     1      24.630   8.675  29.309  1.00  0.00    -0.273 OA
HETATM   18  H   UNL     1      22.116  10.652  29.586  1.00  0.00     0.169 HD
BRANCH  16  19
HETATM   19  C   UNL     1      23.034   8.815  31.016  1.00  0.00     0.078 A 
HETATM   20  C   UNL     1      23.952   8.347  32.089  1.00  0.00     0.015 A 
HETATM   21  C   UNL     1      23.078   7.368  31.362  1.00  0.00     0.015 A 
ENDBRANCH  16  19
ENDBRANCH  11  15
ENDBRANCH   7   9
ENDBRANCH   3   7
BRANCH   5  22
HETATM   22  N   UNL     1      29.415   9.472  27.087  1.00  0.00    -0.341 N 
HETATM   23  H   UNL     1      29.250   9.538  28.089  1.00  0.00     0.167 HD
BRANCH  22  24
HETATM   24  C   UNL     1      30.313   8.437  26.754  1.00  0.00     0.034 A 
HETATM   25  C   UNL     1      29.842   7.137  26.568  1.00  0.00     0.045 A 
HETATM   26  C   UNL     1      30.730   6.114  26.237  1.00  0.00     0.050 A 
HETATM   27  C   UNL     1      32.089   6.391  26.092  1.00  0.00     0.016 A 
HETATM   28  C   UNL     1      32.561   7.690  26.278  1.00  0.00     0.003 A 
HETATM   29  C   UNL     1      31.672   8.713  26.609  1.00  0.00     0.029 A 
BRANCH  26  30
HETATM   30  C   UNL     1      30.226   4.724  26.038  1.00  0.00     0.417 C 
HETATM   31  F   UNL     1      29.254   4.625  25.084  1.00  0.00    -0.166 F 
HETATM   32  F   UNL     1      31.195   3.842  25.652  1.00  0.00    -0.166 F 
HETATM   33  F   UNL     1      29.681   4.195  27.173  1.00  0.00    -0.166 F 
ENDBRANCH  26  30
ENDBRANCH  22  24
ENDBRANCH   5  22
TORSDOF 7
ENDMDL
MODEL 4
REMARK VINA RESULT:      -7.0      4.516      6.484
REMARK  7 active torsions:
REMARK  status: ('A' for Active; 'I' for Inactive)
REMARK       I    between atoms: N_5  and  C_13 
REMARK    1  A    between atoms: N_5  and  C_14 
REMARK    2  A    between atoms: N_6  and  C_17 
REMARK    3  A    between atoms: N_6  and  C_20 
REMARK    4  A    between atoms: N_7  and  C_21 
REMARK    5  A    between atoms: N_7  and  C_23 
REMARK    6  A    between atoms: C_10  and  C_13 
REMARK    7  A    between atoms: C_24  and  C_29 
ROOT
HETATM    1  N   UNL     1      28.184  11.389  27.741  1.00  0.00    -0.224 NA
HETATM    2  N   UNL     1      28.335   9.598  26.136  1.00  0.00    -0.224 NA
HETATM    3  C   UNL     1      29.477  11.166  28.055  1.00  0.00     0.133 A 
HETATM    4  C   UNL     1      30.254  10.192  27.461  1.00  0.00     0.100 A 
HETATM    5  C   UNL     1      29.628   9.425  26.496  1.00  0.00     0.133 A 
HETATM    6  C   UNL     1      27.683  10.579  26.788  1.00  0.00     0.237 A 
ENDROOT
BRANCH   3   7
HETATM    7  N   UNL     1      30.086  11.971  29.049  1.00  0.00    -0.341 N 
HETATM    8  H   UNL     1      30.994  12.336  28.775  1.00  0.00     0.167 HD
BRANCH   7   9
HETATM    9  C   UNL     1      29.674  12.364  30.334  1.00  0.00     0.035 A 
HETATM   10  C   UNL     1      29.342  11.403  31.292  1.00  0.00     0.059 A 
HETATM   11  C   UNL     1      28.935  11.795  32.567  1.00  0.00     0.036 A 
HETATM   12  C   UNL     1      28.859  13.150  32.889  1.00  0.00     0.029 A 
HETATM   13  C   UNL     1      29.190  14.113  31.936  1.00  0.00     0.004 A 
HETATM   14  C   UNL     1      29.596  13.721  30.661  1.00  0.00     0.029 A 
BRANCH  11  15
HETATM   15  N   UNL     1      28.605  10.832  33.521  1.00  0.00    -0.327 N 
HETATM   16  C   UNL     1      29.400   9.790  34.005  1.00  0.00     0.226 C 
HETATM   17  O   UNL     1      30.549   9.514  33.687  1.00  0.00    -0.273 OA
HETATM   18  H   UNL     1      27.663  10.903  33.901  1.00  0.00     0.169 HD
BRANCH  16  19
HETATM   19  C   UNL     1      28.722   8.938  35.032  1.00  0.00     0.078 A 
HETATM   20  C   UNL     1      29.571   8.161  35.975  1.00  0.00     0.015 A 
HETATM   21  C   UNL     1      28.810   7.459  34.890  1.00  0.00     0.015 A 
ENDBRANCH  16  19
ENDBRANCH  11  15
ENDBRANCH   7   9
ENDBRANCH   3   7
BRANCH   5  22
HETATM   22  N   UNL     1      30.386   8.420  25.865  1.00  0.00    -0.341 N 
HETATM   23  H   UNL     1      30.845   8.745  25.017  1.00  0.00     0.167 HD
BRANCH  22  24
HETATM   24  C   UNL     1      30.385   7.014  25.973  1.00  0.00     0.034 A 
HETATM   25  C   UNL     1      31.592   6.313  25.979  1.00  0.00     0.045 A 
HETATM   26  C   UNL     1      31.590   4.923  26.088  1.00  0.00     0.050 A 
HETATM   27  C   UNL     1      30.382   4.232  26.190  1.00  0.00     0.016 A 
HETATM   28  C   UNL     1      29.176   4.932  26.184  1.00  0.00     0.003 A 
HETATM   29  C   UNL     1      29.178   6.323  26.076  1.00  0.00     0.029 A 
BRANCH  26  30
HETATM   30  C   UNL     1      32.880   4.173  26.094  1.00  0.00     0.417 C 
HETATM   31  F   UNL     1      33.883   4.815  26.763  1.00  0.00    -0.166 F 
HETATM   32  F   UNL     1      32.793   2.942  26.679  1.00  0.00    -0.166 F 
HETATM   33  F   UNL     1      33.363   3.948  24.837  1.00  0.00    -0.166 F 
ENDBRANCH  26  30
ENDBRANCH  22  24
ENDBRANCH   5  22
TORSDOF 7
ENDMDL
MODEL 5
REMARK VINA RESULT:      -6.7      4.422      6.579
REMARK  7 active torsions:
REMARK  status: ('A' for Active; 'I' for Inactive)
REMARK       I    between atoms: N_5  and  C_13 
REMARK    1  A    between atoms: N_5  and  C_14 
REMARK    2  A    between atoms: N_6  and  C_17 
REMARK    3  A    between atoms: N_6  and  C_20 
REMARK    4  A    between atoms: N_7  and  C_21 
REMARK    5  A    between atoms: N_7  and  C_23 
REMARK    6  A    between atoms: C_10  and  C_13 
REMARK    7  A    between atoms: C_24  and  C_29 
ROOT
HETATM    1  N   UNL     1      27.319  11.893  29.336  1.00  0.00    -0.224 NA
HETATM    2  N   UNL     1      26.736  10.545  27.425  1.00  0.00    -0.224 NA
HETATM    3  C   UNL     1      28.618  11.715  29.018  1.00  0.00     0.133 A 
HETATM    4  C   UNL     1      29.048  10.977  27.934  1.00  0.00     0.100 A 
HETATM    5  C   UNL     1      28.055  10.404  27.159  1.00  0.00     0.133 A 
HETATM    6  C   UNL     1      26.444  11.288  28.510  1.00  0.00     0.237 A 
ENDROOT
BRANCH   3   7
HETATM    7  N   UNL     1      29.609  12.315  29.833  1.00  0.00    -0.341 N 
HETATM    8  H   UNL     1      29.905  13.229  29.504  1.00  0.00     0.167 HD
BRANCH   7   9
HETATM    9  C   UNL     1      30.253  11.892  31.008  1.00  0.00     0.035 A 
HETATM   10  C   UNL     1      29.843  10.723  31.654  1.00  0.00     0.059 A 
HETATM   11  C   UNL     1      30.484  10.304  32.819  1.00  0.00     0.036 A 
HETATM   12  C   UNL     1      31.538  11.052  33.345  1.00  0.00     0.029 A 
HETATM   13  C   UNL     1      31.950  12.220  32.704  1.00  0.00     0.004 A 
HETATM   14  C   UNL     1      31.308  12.640  31.538  1.00  0.00     0.029 A 
BRANCH  11  15
HETATM   15  N   UNL     1      30.073   9.134  33.460  1.00  0.00    -0.327 N 
HETATM   16  C   UNL     1      29.301   9.012  34.618  1.00  0.00     0.226 C 
HETATM   17  O   UNL     1      28.828   9.910  35.303  1.00  0.00    -0.273 OA
HETATM   18  H   UNL     1      30.384   8.268  33.025  1.00  0.00     0.169 HD
BRANCH  16  19
HETATM   19  C   UNL     1      29.046   7.596  35.029  1.00  0.00     0.078 A 
HETATM   20  C   UNL     1      29.055   6.543  33.978  1.00  0.00     0.015 A 
HETATM   21  C   UNL     1      27.764   6.962  34.616  1.00  0.00     0.015 A 
ENDBRANCH  16  19
ENDBRANCH  11  15
ENDBRANCH   7   9
ENDBRANCH   3   7
BRANCH   5  22
HETATM   22  N   UNL     1      28.452   9.643  26.044  1.00  0.00    -0.341 N 
HETATM   23  H   UNL     1      27.736   9.597  25.322  1.00  0.00     0.167 HD
BRANCH  22  24
HETATM   24  C   UNL     1      29.473   8.688  25.853  1.00  0.00     0.034 A 
HETATM   25  C   UNL     1      29.200   7.331  26.022  1.00  0.00     0.045 A 
HETATM   26  C   UNL     1      30.209   6.388  25.832  1.00  0.00     0.050 A 
HETATM   27  C   UNL     1      31.492   6.802  25.473  1.00  0.00     0.016 A 
HETATM   28  C   UNL     1      31.766   8.159  25.305  1.00  0.00     0.003 A 
HETATM   29  C   UNL     1      30.756   9.102  25.494  1.00  0.00     0.029 A 
BRANCH  26  30
HETATM   30  C   UNL     1      29.918   4.935  26.013  1.00  0.00     0.417 C 
HETATM   31  F   UNL     1      30.976   4.124  25.717  1.00  0.00    -0.166 F 
HETATM   32  F   UNL     1      29.561   4.605  27.288  1.00  0.00    -0.166 F 
HETATM   33  F   UNL     1      28.892   4.503  25.221  1.00  0.00    -0.166 F 
ENDBRANCH  26  30
ENDBRANCH  22  24
ENDBRANCH   5  22
TORSDOF 7
ENDMDL
MODEL 6
REMARK VINA RESULT:      -6.7      6.524      8.257
REMARK  7 active torsions:
REMARK  status: ('A' for Active; 'I' for Inactive)
REMARK       I    between atoms: N_5  and  C_13 
REMARK    1  A    between atoms: N_5  and  C_14 
REMARK    2  A    between atoms: N_6  and  C_17 
REMARK    3  A    between atoms: N_6  and  C_20 
REMARK    4  A    between atoms: N_7  and  C_21 
REMARK    5  A    between atoms: N_7  and  C_23 
REMARK    6  A    between atoms: C_10  and  C_13 
REMARK    7  A    between atoms: C_24  and  C_29 
ROOT
HETATM    1  N   UNL     1      30.107  10.838  31.032  1.00  0.00    -0.224 NA
HETATM    2  N   UNL     1      30.599  10.575  28.688  1.00  0.00    -0.224 NA
HETATM    3  C   UNL     1      31.050   9.910  31.296  1.00  0.00     0.133 A 
HETATM    4  C   UNL     1      31.799   9.279  30.323  1.00  0.00     0.100 A 
HETATM    5  C   UNL     1      31.531   9.651  29.018  1.00  0.00     0.133 A 
HETATM    6  C   UNL     1      29.935  11.118  29.726  1.00  0.00     0.237 A 
ENDROOT
BRANCH   3   7
HETATM    7  N   UNL     1      31.297   9.552  32.644  1.00  0.00    -0.341 N 
HETATM    8  H   UNL     1      32.224   9.812  32.969  1.00  0.00     0.167 HD
BRANCH   7   9
HETATM    9  C   UNL     1      30.507   8.916  33.616  1.00  0.00     0.035 A 
HETATM   10  C   UNL     1      30.299   9.518  34.860  1.00  0.00     0.059 A 
HETATM   11  C   UNL     1      29.514   8.887  35.823  1.00  0.00     0.036 A 
HETATM   12  C   UNL     1      28.933   7.649  35.548  1.00  0.00     0.029 A 
HETATM   13  C   UNL     1      29.137   7.043  34.308  1.00  0.00     0.004 A 
HETATM   14  C   UNL     1      29.923   7.675  33.345  1.00  0.00     0.029 A 
BRANCH  11  15
HETATM   15  N   UNL     1      29.309   9.493  37.063  1.00  0.00    -0.327 N 
HETATM   16  C   UNL     1      29.833   9.118  38.303  1.00  0.00     0.226 C 
HETATM   17  O   UNL     1      30.581   8.181  38.549  1.00  0.00    -0.273 OA
HETATM   18  H   UNL     1      28.694  10.304  37.053  1.00  0.00     0.169 HD
BRANCH  16  19
HETATM   19  C   UNL     1      29.402   9.999  39.434  1.00  0.00     0.078 A 
HETATM   20  C   UNL     1      30.102  11.298  39.622  1.00  0.00     0.015 A 
HETATM   21  C   UNL     1      30.329  10.171  40.586  1.00  0.00     0.015 A 
ENDBRANCH  16  19
ENDBRANCH  11  15
ENDBRANCH   7   9
ENDBRANCH   3   7
BRANCH   5  22
HETATM   22  N   UNL     1      32.274   9.031  27.995  1.00  0.00    -0.341 N 
HETATM   23  H   UNL     1      32.851   9.687  27.473  1.00  0.00     0.167 HD
BRANCH  22  24
HETATM   24  C   UNL     1      32.149   7.786  27.345  1.00  0.00     0.034 A 
HETATM   25  C   UNL     1      30.898   7.346  26.911  1.00  0.00     0.045 A 
HETATM   26  C   UNL     1      30.776   6.115  26.268  1.00  0.00     0.050 A 
HETATM   27  C   UNL     1      31.905   5.323  26.057  1.00  0.00     0.016 A 
HETATM   28  C   UNL     1      33.156   5.762  26.491  1.00  0.00     0.003 A 
HETATM   29  C   UNL     1      33.278   6.994  27.135  1.00  0.00     0.029 A 
BRANCH  26  30
HETATM   30  C   UNL     1      29.439   5.645  25.804  1.00  0.00     0.417 C 
HETATM   31  F   UNL     1      29.233   5.814  24.465  1.00  0.00    -0.166 F 
HETATM   32  F   UNL     1      29.217   4.317  26.033  1.00  0.00    -0.166 F 
HETATM   33  F   UNL     1      28.410   6.299  26.418  1.00  0.00    -0.166 F 
ENDBRANCH  26  30
ENDBRANCH  22  24
ENDBRANCH   5  22
TORSDOF 7
ENDMDL
MODEL 7
REMARK VINA RESULT:      -6.7     23.348     25.529
REMARK  7 active torsions:
REMARK  status: ('A' for Active; 'I' for Inactive)
REMARK       I    between atoms: N_5  and  C_13 
REMARK    1  A    between atoms: N_5  and  C_14 
REMARK    2  A    between atoms: N_6  and  C_17 
REMARK    3  A    between atoms: N_6  and  C_20 
REMARK    4  A    between atoms: N_7  and  C_21 
REMARK    5  A    between atoms: N_7  and  C_23 
REMARK    6  A    between atoms: C_10  and  C_13 
REMARK    7  A    between atoms: C_24  and  C_29 
ROOT
HETATM    1  N   UNL     1      17.272  -6.442  40.609  1.00  0.00    -0.224 NA
HETATM    2  N   UNL     1      15.221  -5.452  41.396  1.00  0.00    -0.224 NA
HETATM    3  C   UNL     1      17.942  -5.423  41.187  1.00  0.00     0.133 A 
HETATM    4  C   UNL     1      17.330  -4.397  41.878  1.00  0.00     0.100 A 
HETATM    5  C   UNL     1      15.950  -4.458  41.954  1.00  0.00     0.133 A 
HETATM    6  C   UNL     1      15.933  -6.393  40.749  1.00  0.00     0.237 A 
ENDROOT
BRANCH   3   7
HETATM    7  N   UNL     1      19.354  -5.392  41.088  1.00  0.00    -0.341 N 
HETATM    8  H   UNL     1      19.690  -5.067  40.186  1.00  0.00     0.167 HD
BRANCH   7   9
HETATM    9  C   UNL     1      20.375  -5.717  41.997  1.00  0.00     0.035 A 
HETATM   10  C   UNL     1      20.966  -4.719  42.778  1.00  0.00     0.059 A 
HETATM   11  C   UNL     1      21.978  -5.043  43.681  1.00  0.00     0.036 A 
HETATM   12  C   UNL     1      22.405  -6.365  43.807  1.00  0.00     0.029 A 
HETATM   13  C   UNL     1      21.819  -7.364  43.030  1.00  0.00     0.004 A 
HETATM   14  C   UNL     1      20.806  -7.040  42.126  1.00  0.00     0.029 A 
BRANCH  11  15
HETATM   15  N   UNL     1      22.564  -4.044  44.459  1.00  0.00    -0.327 N 
HETATM   16  C   UNL     1      21.938  -3.159  45.340  1.00  0.00     0.226 C 
HETATM   17  O   UNL     1      20.746  -3.084  45.606  1.00  0.00    -0.273 OA
HETATM   18  H   UNL     1      23.574  -3.954  44.361  1.00  0.00     0.169 HD
BRANCH  16  19
HETATM   19  C   UNL     1      22.878  -2.210  46.016  1.00  0.00     0.078 A 
HETATM   20  C   UNL     1      24.106  -2.765  46.648  1.00  0.00     0.015 A 
HETATM   21  C   UNL     1      22.980  -2.258  47.500  1.00  0.00     0.015 A 
ENDBRANCH  16  19
ENDBRANCH  11  15
ENDBRANCH   7   9
ENDBRANCH   3   7
BRANCH   5  22
HETATM   22  N   UNL     1      15.287  -3.429  42.651  1.00  0.00    -0.341 N 
HETATM   23  H   UNL     1      15.420  -2.514  42.225  1.00  0.00     0.167 HD
BRANCH  22  24
HETATM   24  C   UNL     1      14.760  -3.346  43.957  1.00  0.00     0.034 A 
HETATM   25  C   UNL     1      13.383  -3.238  44.149  1.00  0.00     0.045 A 
HETATM   26  C   UNL     1      12.863  -3.158  45.441  1.00  0.00     0.050 A 
HETATM   27  C   UNL     1      13.721  -3.184  46.540  1.00  0.00     0.016 A 
HETATM   28  C   UNL     1      15.098  -3.291  46.349  1.00  0.00     0.003 A 
HETATM   29  C   UNL     1      15.618  -3.372  45.056  1.00  0.00     0.029 A 
BRANCH  26  30
HETATM   30  C   UNL     1      11.390  -3.043  45.647  1.00  0.00     0.417 C 
HETATM   31  F   UNL     1      10.773  -2.228  44.742  1.00  0.00    -0.166 F 
HETATM   32  F   UNL     1      10.732  -4.236  45.560  1.00  0.00    -0.166 F 
HETATM   33  F   UNL     1      11.070  -2.536  46.874  1.00  0.00    -0.166 F 
ENDBRANCH  26  30
ENDBRANCH  22  24
ENDBRANCH   5  22
TORSDOF 7
ENDMDL
MODEL 8
REMARK VINA RESULT:      -6.4      5.231      8.017
REMARK  7 active torsions:
REMARK  status: ('A' for Active; 'I' for Inactive)
REMARK       I    between atoms: N_5  and  C_13 
REMARK    1  A    between atoms: N_5  and  C_14 
REMARK    2  A    between atoms: N_6  and  C_17 
REMARK    3  A    between atoms: N_6  and  C_20 
REMARK    4  A    between atoms: N_7  and  C_21 
REMARK    5  A    between atoms: N_7  and  C_23 
REMARK    6  A    between atoms: C_10  and  C_13 
REMARK    7  A    between atoms: C_24  and  C_29 
ROOT
HETATM    1  N   UNL     1      27.038  14.163  30.391  1.00  0.00    -0.224 NA
HETATM    2  N   UNL     1      28.272  14.164  32.460  1.00  0.00    -0.224 NA
HETATM    3  C   UNL     1      27.556  12.947  30.125  1.00  0.00     0.133 A 
HETATM    4  C   UNL     1      28.427  12.284  30.966  1.00  0.00     0.100 A 
HETATM    5  C   UNL     1      28.758  12.944  32.136  1.00  0.00     0.133 A 
HETATM    6  C   UNL     1      27.433  14.707  31.558  1.00  0.00     0.237 A 
ENDROOT
BRANCH   3   7
HETATM    7  N   UNL     1      27.196  12.300  28.918  1.00  0.00    -0.341 N 
HETATM    8  H   UNL     1      26.210  12.059  28.866  1.00  0.00     0.167 HD
BRANCH   7   9
HETATM    9  C   UNL     1      27.936  11.936  27.780  1.00  0.00     0.035 A 
HETATM   10  C   UNL     1      27.907  10.619  27.314  1.00  0.00     0.059 A 
HETATM   11  C   UNL     1      28.641  10.259  26.184  1.00  0.00     0.036 A 
HETATM   12  C   UNL     1      29.406  11.214  25.514  1.00  0.00     0.029 A 
HETATM   13  C   UNL     1      29.437  12.530  25.976  1.00  0.00     0.004 A 
HETATM   14  C   UNL     1      28.704  12.890  27.107  1.00  0.00     0.029 A 
BRANCH  11  15
HETATM   15  N   UNL     1      28.609   8.942  25.721  1.00  0.00    -0.327 N 
HETATM   16  C   UNL     1      29.540   7.926  25.950  1.00  0.00     0.226 C 
HETATM   17  O   UNL     1      30.572   7.988  26.604  1.00  0.00    -0.273 OA
HETATM   18  H   UNL     1      27.807   8.706  25.141  1.00  0.00     0.169 HD
BRANCH  16  19
HETATM   19  C   UNL     1      29.189   6.626  25.297  1.00  0.00     0.078 A 
HETATM   20  C   UNL     1      29.092   5.412  26.151  1.00  0.00     0.015 A 
HETATM   21  C   UNL     1      30.242   5.578  25.203  1.00  0.00     0.015 A 
ENDBRANCH  16  19
ENDBRANCH  11  15
ENDBRANCH   7   9
ENDBRANCH   3   7
BRANCH   5  22
HETATM   22  N   UNL     1      29.644  12.301  33.022  1.00  0.00    -0.341 N 
HETATM   23  H   UNL     1      30.596  12.257  32.667  1.00  0.00     0.167 HD
BRANCH  22  24
HETATM   24  C   UNL     1      29.438  11.441  34.121  1.00  0.00     0.034 A 
HETATM   25  C   UNL     1      29.243  10.076  33.913  1.00  0.00     0.045 A 
HETATM   26  C   UNL     1      29.041   9.226  35.000  1.00  0.00     0.050 A 
HETATM   27  C   UNL     1      29.035   9.742  36.297  1.00  0.00     0.016 A 
HETATM   28  C   UNL     1      29.230  11.107  36.505  1.00  0.00     0.003 A 
HETATM   29  C   UNL     1      29.432  11.957  35.417  1.00  0.00     0.029 A 
BRANCH  26  30
HETATM   30  C   UNL     1      28.832   7.766  34.778  1.00  0.00     0.417 C 
HETATM   31  F   UNL     1      29.128   6.998  35.868  1.00  0.00    -0.166 F 
HETATM   32  F   UNL     1      27.546   7.442  34.453  1.00  0.00    -0.166 F 
HETATM   33  F   UNL     1      29.602   7.273  33.764  1.00  0.00    -0.166 F 
ENDBRANCH  26  30
ENDBRANCH  22  24
ENDBRANCH   5  22
TORSDOF 7
ENDMDL
MODEL 9
REMARK VINA RESULT:      -6.4      6.442      8.239
REMARK  7 active torsions:
REMARK  status: ('A' for Active; 'I' for Inactive)
REMARK       I    between atoms: N_5  and  C_13 
REMARK    1  A    between atoms: N_5  and  C_14 
REMARK    2  A    between atoms: N_6  and  C_17 
REMARK    3  A    between atoms: N_6  and  C_20 
REMARK    4  A    between atoms: N_7  and  C_21 
REMARK    5  A    between atoms: N_7  and  C_23 
REMARK    6  A    between atoms: C_10  and  C_13 
REMARK    7  A    between atoms: C_24  and  C_29 
ROOT
HETATM    1  N   UNL     1      30.181  10.910  30.753  1.00  0.00    -0.224 NA
HETATM    2  N   UNL     1      30.471  10.524  28.392  1.00  0.00    -0.224 NA
HETATM    3  C   UNL     1      31.010   9.871  30.986  1.00  0.00     0.133 A 
HETATM    4  C   UNL     1      31.600   9.122  29.989  1.00  0.00     0.100 A 
HETATM    5  C   UNL     1      31.294   9.493  28.692  1.00  0.00     0.133 A 
HETATM    6  C   UNL     1      29.958  11.177  29.452  1.00  0.00     0.237 A 
ENDROOT
BRANCH   3   7
HETATM    7  N   UNL     1      31.300   9.518  32.327  1.00  0.00    -0.341 N 
HETATM    8  H   UNL     1      32.246   9.756  32.612  1.00  0.00     0.167 HD
BRANCH   7   9
HETATM    9  C   UNL     1      30.533   8.911  33.335  1.00  0.00     0.035 A 
HETATM   10  C   UNL     1      30.305   9.575  34.543  1.00  0.00     0.059 A 
HETATM   11  C   UNL     1      29.543   8.972  35.542  1.00  0.00     0.036 A 
HETATM   12  C   UNL     1      29.003   7.701  35.338  1.00  0.00     0.029 A 
HETATM   13  C   UNL     1      29.226   7.035  34.133  1.00  0.00     0.004 A 
HETATM   14  C   UNL     1      29.991   7.638  33.134  1.00  0.00     0.029 A 
BRANCH  11  15
HETATM   15  N   UNL     1      29.317   9.639  36.748  1.00  0.00    -0.327 N 
HETATM   16  C   UNL     1      29.723   9.262  38.030  1.00  0.00     0.226 C 
HETATM   17  O   UNL     1      30.361   8.268  38.353  1.00  0.00    -0.273 OA
HETATM   18  H   UNL     1      28.785  10.503  36.672  1.00  0.00     0.169 HD
BRANCH  16  19
HETATM   19  C   UNL     1      29.308  10.219  39.103  1.00  0.00     0.078 A 
HETATM   20  C   UNL     1      30.204  11.366  39.410  1.00  0.00     0.015 A 
HETATM   21  C   UNL     1      30.076  10.226  40.377  1.00  0.00     0.015 A 
ENDBRANCH  16  19
ENDBRANCH  11  15
ENDBRANCH   7   9
ENDBRANCH   3   7
BRANCH   5  22
HETATM   22  N   UNL     1      31.876   8.753  27.645  1.00  0.00    -0.341 N 
HETATM   23  H   UNL     1      32.664   9.232  27.214  1.00  0.00     0.167 HD
BRANCH  22  24
HETATM   24  C   UNL     1      31.416   7.667  26.872  1.00  0.00     0.034 A 
HETATM   25  C   UNL     1      32.153   6.484  26.819  1.00  0.00     0.045 A 
HETATM   26  C   UNL     1      31.695   5.411  26.056  1.00  0.00     0.050 A 
HETATM   27  C   UNL     1      30.501   5.520  25.344  1.00  0.00     0.016 A 
HETATM   28  C   UNL     1      29.763   6.703  25.395  1.00  0.00     0.003 A 
HETATM   29  C   UNL     1      30.221   7.777  26.160  1.00  0.00     0.029 A 
BRANCH  26  30
HETATM   30  C   UNL     1      32.483   4.145  26.000  1.00  0.00     0.417 C 
HETATM   31  F   UNL     1      31.774   3.041  26.377  1.00  0.00    -0.166 F 
HETATM   32  F   UNL     1      32.961   3.854  24.754  1.00  0.00    -0.166 F 
HETATM   33  F   UNL     1      33.579   4.172  26.815  1.00  0.00    -0.166 F 
ENDBRANCH  26  30
ENDBRANCH  22  24
ENDBRANCH   5  22
TORSDOF 7
ENDMDL
