MODEL 1
REMARK VINA RESULT:      -8.5      0.000      0.000
REMARK  7 active torsions:
REMARK  status: ('A' for Active; 'I' for Inactive)
REMARK       I    between atoms: N_5  and  C_13 
REMARK    1  A    between atoms: N_5  and  C_14 
REMARK    2  A    between atoms: N_6  and  C_17 
REMARK    3  A    between atoms: N_6  and  C_20 
REMARK    4  A    between atoms: N_7  and  C_21 
REMARK    5  A    between atoms: N_7  and  C_23 
REMARK    6  A    between atoms: C_10  and  C_13 
REMARK    7  A    between atoms: C_24  and  C_29 
ROOT
HETATM    1  N   UNL     1      26.077  10.339  28.684  1.00  0.00    -0.224 NA
HETATM    2  N   UNL     1      23.671  10.469  28.655  1.00  0.00    -0.224 NA
HETATM    3  C   UNL     1      26.101  11.252  27.691  1.00  0.00     0.133 A 
HETATM    4  C   UNL     1      24.968  11.812  27.136  1.00  0.00     0.100 A 
HETATM    5  C   UNL     1      23.762  11.381  27.660  1.00  0.00     0.133 A 
HETATM    6  C   UNL     1      24.847   9.997  29.111  1.00  0.00     0.237 A 
ENDROOT
BRANCH   3   7
HETATM    7  N   UNL     1      27.353  11.671  27.178  1.00  0.00    -0.341 N 
HETATM    8  H   UNL     1      27.452  12.680  27.125  1.00  0.00     0.167 HD
BRANCH   7   9
HETATM    9  C   UNL     1      28.482  10.960  26.738  1.00  0.00     0.035 A 
HETATM   10  C   UNL     1      28.465   9.563  26.700  1.00  0.00     0.059 A 
HETATM   11  C   UNL     1      29.585   8.859  26.261  1.00  0.00     0.036 A 
HETATM   12  C   UNL     1      30.730   9.548  25.859  1.00  0.00     0.029 A 
HETATM   13  C   UNL     1      30.752  10.942  25.895  1.00  0.00     0.004 A 
HETATM   14  C   UNL     1      29.631  11.647  26.334  1.00  0.00     0.029 A 
BRANCH  11  15
HETATM   15  N   UNL     1      29.563   7.464  26.224  1.00  0.00    -0.327 N 
HETATM   16  C   UNL     1      29.247   6.636  25.144  1.00  0.00     0.226 C 
HETATM   17  O   UNL     1      28.926   6.971  24.011  1.00  0.00    -0.273 OA
HETATM   18  H   UNL     1      29.803   7.003  27.099  1.00  0.00     0.169 HD
BRANCH  16  19
HETATM   19  C   UNL     1      29.325   5.175  25.458  1.00  0.00     0.078 A 
HETATM   20  C   UNL     1      29.659   4.769  26.850  1.00  0.00     0.015 A 
HETATM   21  C   UNL     1      30.661   4.587  25.749  1.00  0.00     0.015 A 
ENDBRANCH  16  19
ENDBRANCH  11  15
ENDBRANCH   7   9
ENDBRANCH   3   7
BRANCH   5  22
HETATM   22  N   UNL     1      22.582  11.929  27.121  1.00  0.00    -0.341 N 
HETATM   23  H   UNL     1      22.756  12.737  26.528  1.00  0.00     0.167 HD
BRANCH  22  24
HETATM   24  C   UNL     1      21.222  11.802  27.475  1.00  0.00     0.034 A 
HETATM   25  C   UNL     1      20.848  11.797  28.819  1.00  0.00     0.045 A 
HETATM   26  C   UNL     1      19.504  11.674  29.168  1.00  0.00     0.050 A 
HETATM   27  C   UNL     1      18.533  11.554  28.173  1.00  0.00     0.016 A 
HETATM   28  C   UNL     1      18.907  11.558  26.830  1.00  0.00     0.003 A 
HETATM   29  C   UNL     1      20.252  11.682  26.481  1.00  0.00     0.029 A 
BRANCH  26  30
HETATM   30  C   UNL     1      19.103  11.669  30.605  1.00  0.00     0.417 C 
HETATM   31  F   UNL     1      19.122  10.428  31.175  1.00  0.00    -0.166 F 
HETATM   32  F   UNL     1      19.905  12.438  31.398  1.00  0.00    -0.166 F 
HETATM   33  F   UNL     1      17.836  12.141  30.798  1.00  0.00    -0.166 F 
ENDBRANCH  26  30
ENDBRANCH  22  24
ENDBRANCH   5  22
TORSDOF 7
ENDMDL
MODEL 2
REMARK VINA RESULT:      -8.4      3.369      4.458
REMARK  7 active torsions:
REMARK  status: ('A' for Active; 'I' for Inactive)
REMARK       I    between atoms: N_5  and  C_13 
REMARK    1  A    between atoms: N_5  and  C_14 
REMARK    2  A    between atoms: N_6  and  C_17 
REMARK    3  A    between atoms: N_6  and  C_20 
REMARK    4  A    between atoms: N_7  and  C_21 
REMARK    5  A    between atoms: N_7  and  C_23 
REMARK    6  A    between atoms: C_10  and  C_13 
REMARK    7  A    between atoms: C_24  and  C_29 
ROOT
HETATM    1  N   UNL     1      24.920  11.989  27.286  1.00  0.00    -0.224 NA
HETATM    2  N   UNL     1      22.967  10.800  28.048  1.00  0.00    -0.224 NA
HETATM    3  C   UNL     1      25.672  11.167  28.047  1.00  0.00     0.133 A 
HETATM    4  C   UNL     1      25.151  10.152  28.824  1.00  0.00     0.100 A 
HETATM    5  C   UNL     1      23.776  10.009  28.790  1.00  0.00     0.133 A 
HETATM    6  C   UNL     1      23.595  11.754  27.334  1.00  0.00     0.237 A 
ENDROOT
BRANCH   3   7
HETATM    7  N   UNL     1      27.077  11.343  28.058  1.00  0.00    -0.341 N 
HETATM    8  H   UNL     1      27.397  12.001  28.763  1.00  0.00     0.167 HD
BRANCH   7   9
HETATM    9  C   UNL     1      28.109  10.779  27.290  1.00  0.00     0.035 A 
HETATM   10  C   UNL     1      28.228   9.391  27.180  1.00  0.00     0.059 A 
HETATM   11  C   UNL     1      29.252   8.833  26.416  1.00  0.00     0.036 A 
HETATM   12  C   UNL     1      30.163   9.660  25.758  1.00  0.00     0.029 A 
HETATM   13  C   UNL     1      30.048  11.046  25.865  1.00  0.00     0.004 A 
HETATM   14  C   UNL     1      29.024  11.604  26.630  1.00  0.00     0.029 A 
BRANCH  11  15
HETATM   15  N   UNL     1      29.366   7.446  26.309  1.00  0.00    -0.327 N 
HETATM   16  C   UNL     1      29.191   6.653  25.172  1.00  0.00     0.226 C 
HETATM   17  O   UNL     1      28.902   7.018  24.040  1.00  0.00    -0.273 OA
HETATM   18  H   UNL     1      29.600   6.961  27.173  1.00  0.00     0.169 HD
BRANCH  16  19
HETATM   19  C   UNL     1      29.392   5.190  25.418  1.00  0.00     0.078 A 
HETATM   20  C   UNL     1      29.708   4.744  26.802  1.00  0.00     0.015 A 
HETATM   21  C   UNL     1      30.765   4.711  25.737  1.00  0.00     0.015 A 
ENDBRANCH  16  19
ENDBRANCH  11  15
ENDBRANCH   7   9
ENDBRANCH   3   7
BRANCH   5  22
HETATM   22  N   UNL     1      23.205   8.984  29.569  1.00  0.00    -0.341 N 
HETATM   23  H   UNL     1      22.544   8.412  29.048  1.00  0.00     0.167 HD
BRANCH  22  24
HETATM   24  C   UNL     1      23.108   8.785  30.962  1.00  0.00     0.034 A 
HETATM   25  C   UNL     1      24.154   8.175  31.655  1.00  0.00     0.045 A 
HETATM   26  C   UNL     1      24.058   7.980  33.032  1.00  0.00     0.050 A 
HETATM   27  C   UNL     1      22.917   8.395  33.718  1.00  0.00     0.016 A 
HETATM   28  C   UNL     1      21.871   9.006  33.026  1.00  0.00     0.003 A 
HETATM   29  C   UNL     1      21.967   9.201  31.648  1.00  0.00     0.029 A 
BRANCH  26  30
HETATM   30  C   UNL     1      25.176   7.327  33.773  1.00  0.00     0.417 C 
HETATM   31  F   UNL     1      24.919   7.142  35.101  1.00  0.00    -0.166 F 
HETATM   32  F   UNL     1      25.497   6.088  33.297  1.00  0.00    -0.166 F 
HETATM   33  F   UNL     1      26.334   8.050  33.722  1.00  0.00    -0.166 F 
ENDBRANCH  26  30
ENDBRANCH  22  24
ENDBRANCH   5  22
TORSDOF 7
ENDMDL
MODEL 3
REMARK VINA RESULT:      -8.0      5.799      9.740
REMARK  7 active torsions:
REMARK  status: ('A' for Active; 'I' for Inactive)
REMARK       I    between atoms: N_5  and  C_13 
REMARK    1  A    between atoms: N_5  and  C_14 
REMARK    2  A    between atoms: N_6  and  C_17 
REMARK    3  A    between atoms: N_6  and  C_20 
REMARK    4  A    between atoms: N_7  and  C_21 
REMARK    5  A    between atoms: N_7  and  C_23 
REMARK    6  A    between atoms: C_10  and  C_13 
REMARK    7  A    between atoms: C_24  and  C_29 
ROOT
HETATM    1  N   UNL     1      28.580  11.715  27.994  1.00  0.00    -0.224 NA
HETATM    2  N   UNL     1      30.255  10.013  27.671  1.00  0.00    -0.224 NA
HETATM    3  C   UNL     1      28.027  11.340  26.822  1.00  0.00     0.133 A 
HETATM    4  C   UNL     1      28.523  10.325  26.030  1.00  0.00     0.100 A 
HETATM    5  C   UNL     1      29.653   9.684  26.504  1.00  0.00     0.133 A 
HETATM    6  C   UNL     1      29.676  11.020  28.353  1.00  0.00     0.237 A 
ENDROOT
BRANCH   3   7
HETATM    7  N   UNL     1      26.870  12.019  26.365  1.00  0.00    -0.341 N 
HETATM    8  H   UNL     1      27.078  12.842  25.807  1.00  0.00     0.167 HD
BRANCH   7   9
HETATM    9  C   UNL     1      25.498  11.769  26.530  1.00  0.00     0.035 A 
HETATM   10  C   UNL     1      25.025  11.185  27.708  1.00  0.00     0.059 A 
HETATM   11  C   UNL     1      23.662  10.938  27.870  1.00  0.00     0.036 A 
HETATM   12  C   UNL     1      22.765  11.275  26.856  1.00  0.00     0.029 A 
HETATM   13  C   UNL     1      23.233  11.859  25.678  1.00  0.00     0.004 A 
HETATM   14  C   UNL     1      24.596  12.104  25.515  1.00  0.00     0.029 A 
BRANCH  11  15
HETATM   15  N   UNL     1      23.194  10.355  29.049  1.00  0.00    -0.327 N 
HETATM   16  C   UNL     1      23.712   9.250  29.728  1.00  0.00     0.226 C 
HETATM   17  O   UNL     1      24.684   8.572  29.425  1.00  0.00    -0.273 OA
HETATM   18  H   UNL     1      22.368  10.794  29.451  1.00  0.00     0.169 HD
BRANCH  16  19
HETATM   19  C   UNL     1      22.955   8.894  30.970  1.00  0.00     0.078 A 
HETATM   20  C   UNL     1      23.723   8.410  32.149  1.00  0.00     0.015 A 
HETATM   21  C   UNL     1      22.874   7.459  31.357  1.00  0.00     0.015 A 
ENDBRANCH  16  19
ENDBRANCH  11  15
ENDBRANCH   7   9
ENDBRANCH   3   7
BRANCH   5  22
HETATM   22  N   UNL     1      30.191   8.642  25.726  1.00  0.00    -0.341 N 
HETATM   23  H   UNL     1      30.421   8.934  24.779  1.00  0.00     0.167 HD
BRANCH  22  24
HETATM   24  C   UNL     1      30.178   7.239  25.869  1.00  0.00     0.034 A 
HETATM   25  C   UNL     1      31.378   6.528  25.901  1.00  0.00     0.045 A 
HETATM   26  C   UNL     1      31.364   5.142  26.044  1.00  0.00     0.050 A 
HETATM   27  C   UNL     1      30.150   4.464  26.155  1.00  0.00     0.016 A 
HETATM   28  C   UNL     1      28.949   5.173  26.123  1.00  0.00     0.003 A 
HETATM   29  C   UNL     1      28.963   6.561  25.980  1.00  0.00     0.029 A 
BRANCH  26  30
HETATM   30  C   UNL     1      32.647   4.382  26.078  1.00  0.00     0.417 C 
HETATM   31  F   UNL     1      32.520   3.112  26.565  1.00  0.00    -0.166 F 
HETATM   32  F   UNL     1      33.228   4.236  24.851  1.00  0.00    -0.166 F 
HETATM   33  F   UNL     1      33.592   4.981  26.862  1.00  0.00    -0.166 F 
ENDBRANCH  26  30
ENDBRANCH  22  24
ENDBRANCH   5  22
TORSDOF 7
ENDMDL
MODEL 4
REMARK VINA RESULT:      -7.9      5.002     10.088
REMARK  7 active torsions:
REMARK  status: ('A' for Active; 'I' for Inactive)
REMARK       I    between atoms: N_5  and  C_13 
REMARK    1  A    between atoms: N_5  and  C_14 
REMARK    2  A    between atoms: N_6  and  C_17 
REMARK    3  A    between atoms: N_6  and  C_20 
REMARK    4  A    between atoms: N_7  and  C_21 
REMARK    5  A    between atoms: N_7  and  C_23 
REMARK    6  A    between atoms: C_10  and  C_13 
REMARK    7  A    between atoms: C_24  and  C_29 
ROOT
HETATM    1  N   UNL     1      27.298  11.787  28.442  1.00  0.00    -0.224 NA
HETATM    2  N   UNL     1      29.142  10.306  27.976  1.00  0.00    -0.224 NA
HETATM    3  C   UNL     1      26.956  11.710  27.139  1.00  0.00     0.133 A 
HETATM    4  C   UNL     1      27.648  10.963  26.207  1.00  0.00     0.100 A 
HETATM    5  C   UNL     1      28.747  10.271  26.682  1.00  0.00     0.133 A 
HETATM    6  C   UNL     1      28.386  11.071  28.787  1.00  0.00     0.237 A 
ENDROOT
BRANCH   3   7
HETATM    7  N   UNL     1      25.825  12.433  26.687  1.00  0.00    -0.341 N 
HETATM    8  H   UNL     1      26.039  13.386  26.408  1.00  0.00     0.167 HD
BRANCH   7   9
HETATM    9  C   UNL     1      24.472  12.083  26.544  1.00  0.00     0.035 A 
HETATM   10  C   UNL     1      23.696  11.797  27.670  1.00  0.00     0.059 A 
HETATM   11  C   UNL     1      22.353  11.452  27.527  1.00  0.00     0.036 A 
HETATM   12  C   UNL     1      21.779  11.390  26.257  1.00  0.00     0.029 A 
HETATM   13  C   UNL     1      22.549  11.675  25.130  1.00  0.00     0.004 A 
HETATM   14  C   UNL     1      23.894  12.019  25.273  1.00  0.00     0.029 A 
BRANCH  11  15
HETATM   15  N   UNL     1      21.581  11.168  28.655  1.00  0.00    -0.327 N 
HETATM   16  C   UNL     1      20.288  11.609  28.947  1.00  0.00     0.226 C 
HETATM   17  O   UNL     1      19.571  12.333  28.269  1.00  0.00    -0.273 OA
HETATM   18  H   UNL     1      22.027  10.570  29.347  1.00  0.00     0.169 HD
BRANCH  16  19
HETATM   19  C   UNL     1      19.758  11.108  30.254  1.00  0.00     0.078 A 
HETATM   20  C   UNL     1      18.609  11.824  30.871  1.00  0.00     0.015 A 
HETATM   21  C   UNL     1      19.980  11.939  31.469  1.00  0.00     0.015 A 
ENDBRANCH  16  19
ENDBRANCH  11  15
ENDBRANCH   7   9
ENDBRANCH   3   7
BRANCH   5  22
HETATM   22  N   UNL     1      29.480   9.495  25.763  1.00  0.00    -0.341 N 
HETATM   23  H   UNL     1      29.144   9.592  24.808  1.00  0.00     0.167 HD
BRANCH  22  24
HETATM   24  C   UNL     1      30.349   8.395  25.921  1.00  0.00     0.034 A 
HETATM   25  C   UNL     1      29.836   7.098  25.942  1.00  0.00     0.045 A 
HETATM   26  C   UNL     1      30.695   6.011  26.096  1.00  0.00     0.050 A 
HETATM   27  C   UNL     1      32.068   6.220  26.230  1.00  0.00     0.016 A 
HETATM   28  C   UNL     1      32.581   7.517  26.210  1.00  0.00     0.003 A 
HETATM   29  C   UNL     1      31.721   8.605  26.055  1.00  0.00     0.029 A 
BRANCH  26  30
HETATM   30  C   UNL     1      30.148   4.623  26.118  1.00  0.00     0.417 C 
HETATM   31  F   UNL     1      31.093   3.658  25.922  1.00  0.00    -0.166 F 
HETATM   32  F   UNL     1      29.542   4.294  27.297  1.00  0.00    -0.166 F 
HETATM   33  F   UNL     1      29.205   4.415  25.152  1.00  0.00    -0.166 F 
ENDBRANCH  26  30
ENDBRANCH  22  24
ENDBRANCH   5  22
TORSDOF 7
ENDMDL
MODEL 5
REMARK VINA RESULT:      -7.6      4.826      9.107
REMARK  7 active torsions:
REMARK  status: ('A' for Active; 'I' for Inactive)
REMARK       I    between atoms: N_5  and  C_13 
REMARK    1  A    between atoms: N_5  and  C_14 
REMARK    2  A    between atoms: N_6  and  C_17 
REMARK    3  A    between atoms: N_6  and  C_20 
REMARK    4  A    between atoms: N_7  and  C_21 
REMARK    5  A    between atoms: N_7  and  C_23 
REMARK    6  A    between atoms: C_10  and  C_13 
REMARK    7  A    between atoms: C_24  and  C_29 
ROOT
HETATM    1  N   UNL     1      27.794  13.161  27.971  1.00  0.00    -0.224 NA
HETATM    2  N   UNL     1      29.717  11.899  28.691  1.00  0.00    -0.224 NA
HETATM    3  C   UNL     1      27.455  12.122  27.180  1.00  0.00     0.133 A 
HETATM    4  C   UNL     1      28.185  10.955  27.092  1.00  0.00     0.100 A 
HETATM    5  C   UNL     1      29.323  10.892  27.877  1.00  0.00     0.133 A 
HETATM    6  C   UNL     1      28.921  12.985  28.688  1.00  0.00     0.237 A 
ENDROOT
BRANCH   3   7
HETATM    7  N   UNL     1      26.284  12.221  26.389  1.00  0.00    -0.341 N 
HETATM    8  H   UNL     1      26.445  12.646  25.480  1.00  0.00     0.167 HD
BRANCH   7   9
HETATM    9  C   UNL     1      24.951  11.840  26.616  1.00  0.00     0.035 A 
HETATM   10  C   UNL     1      24.593  11.211  27.812  1.00  0.00     0.059 A 
HETATM   11  C   UNL     1      23.270  10.834  28.037  1.00  0.00     0.036 A 
HETATM   12  C   UNL     1      22.298  11.085  27.068  1.00  0.00     0.029 A 
HETATM   13  C   UNL     1      22.650  11.713  25.874  1.00  0.00     0.004 A 
HETATM   14  C   UNL     1      23.975  12.089  25.648  1.00  0.00     0.029 A 
BRANCH  11  15
HETATM   15  N   UNL     1      22.916  10.206  29.232  1.00  0.00    -0.327 N 
HETATM   16  C   UNL     1      23.554   9.138  29.866  1.00  0.00     0.226 C 
HETATM   17  O   UNL     1      24.555   8.537  29.497  1.00  0.00    -0.273 OA
HETATM   18  H   UNL     1      22.086  10.578  29.688  1.00  0.00     0.169 HD
BRANCH  16  19
HETATM   19  C   UNL     1      22.901   8.713  31.144  1.00  0.00     0.078 A 
HETATM   20  C   UNL     1      23.768   8.423  32.317  1.00  0.00     0.015 A 
HETATM   21  C   UNL     1      23.079   7.305  31.592  1.00  0.00     0.015 A 
ENDBRANCH  16  19
ENDBRANCH  11  15
ENDBRANCH   7   9
ENDBRANCH   3   7
BRANCH   5  22
HETATM   22  N   UNL     1      30.096   9.717  27.816  1.00  0.00    -0.341 N 
HETATM   23  H   UNL     1      30.726   9.617  28.610  1.00  0.00     0.167 HD
BRANCH  22  24
HETATM   24  C   UNL     1      30.413   8.836  26.762  1.00  0.00     0.034 A 
HETATM   25  C   UNL     1      30.053   7.491  26.844  1.00  0.00     0.045 A 
HETATM   26  C   UNL     1      30.365   6.620  25.800  1.00  0.00     0.050 A 
HETATM   27  C   UNL     1      31.037   7.095  24.673  1.00  0.00     0.016 A 
HETATM   28  C   UNL     1      31.398   8.440  24.591  1.00  0.00     0.003 A 
HETATM   29  C   UNL     1      31.085   9.310  25.635  1.00  0.00     0.029 A 
BRANCH  26  30
HETATM   30  C   UNL     1      29.980   5.181  25.887  1.00  0.00     0.417 C 
HETATM   31  F   UNL     1      29.030   4.813  24.979  1.00  0.00    -0.166 F 
HETATM   32  F   UNL     1      31.023   4.324  25.680  1.00  0.00    -0.166 F 
HETATM   33  F   UNL     1      29.469   4.848  27.109  1.00  0.00    -0.166 F 
ENDBRANCH  26  30
ENDBRANCH  22  24
ENDBRANCH   5  22
TORSDOF 7
ENDMDL
MODEL 6
REMARK VINA RESULT:      -7.6      2.261      3.429
REMARK  7 active torsions:
REMARK  status: ('A' for Active; 'I' for Inactive)
REMARK       I    between atoms: N_5  and  C_13 
REMARK    1  A    between atoms: N_5  and  C_14 
REMARK    2  A    between atoms: N_6  and  C_17 
REMARK    3  A    between atoms: N_6  and  C_20 
REMARK    4  A    between atoms: N_7  and  C_21 
REMARK    5  A    between atoms: N_7  and  C_23 
REMARK    6  A    between atoms: C_10  and  C_13 
REMARK    7  A    between atoms: C_24  and  C_29 
ROOT
HETATM    1  N   UNL     1      29.098  13.192  29.567  1.00  0.00    -0.224 NA
HETATM    2  N   UNL     1      26.689  13.179  29.512  1.00  0.00    -0.224 NA
HETATM    3  C   UNL     1      29.082  12.009  28.918  1.00  0.00     0.133 A 
HETATM    4  C   UNL     1      27.926  11.359  28.538  1.00  0.00     0.100 A 
HETATM    5  C   UNL     1      26.740  11.993  28.863  1.00  0.00     0.133 A 
HETATM    6  C   UNL     1      27.884  13.713  29.829  1.00  0.00     0.237 A 
ENDROOT
BRANCH   3   7
HETATM    7  N   UNL     1      30.315  11.387  28.602  1.00  0.00    -0.341 N 
HETATM    8  H   UNL     1      30.964  11.354  29.384  1.00  0.00     0.167 HD
BRANCH   7   9
HETATM    9  C   UNL     1      30.808  10.804  27.423  1.00  0.00     0.035 A 
HETATM   10  C   UNL     1      30.653   9.434  27.197  1.00  0.00     0.059 A 
HETATM   11  C   UNL     1      31.142   8.856  26.026  1.00  0.00     0.036 A 
HETATM   12  C   UNL     1      31.787   9.647  25.074  1.00  0.00     0.029 A 
HETATM   13  C   UNL     1      31.943  11.015  25.295  1.00  0.00     0.004 A 
HETATM   14  C   UNL     1      31.455  11.592  26.467  1.00  0.00     0.029 A 
BRANCH  11  15
HETATM   15  N   UNL     1      30.985   7.487  25.804  1.00  0.00    -0.327 N 
HETATM   16  C   UNL     1      29.886   6.825  25.253  1.00  0.00     0.226 C 
HETATM   17  O   UNL     1      28.838   7.314  24.852  1.00  0.00    -0.273 OA
HETATM   18  H   UNL     1      31.772   6.909  26.089  1.00  0.00     0.169 HD
BRANCH  16  19
HETATM   19  C   UNL     1      30.058   5.340  25.161  1.00  0.00     0.078 A 
HETATM   20  C   UNL     1      29.811   4.524  26.380  1.00  0.00     0.015 A 
HETATM   21  C   UNL     1      31.209   4.719  25.871  1.00  0.00     0.015 A 
ENDBRANCH  16  19
ENDBRANCH  11  15
ENDBRANCH   7   9
ENDBRANCH   3   7
BRANCH   5  22
HETATM   22  N   UNL     1      25.537  11.362  28.493  1.00  0.00    -0.341 N 
HETATM   23  H   UNL     1      25.404  10.464  28.952  1.00  0.00     0.167 HD
BRANCH  22  24
HETATM   24  C   UNL     1      24.656  11.548  27.407  1.00  0.00     0.034 A 
HETATM   25  C   UNL     1      23.278  11.470  27.605  1.00  0.00     0.045 A 
HETATM   26  C   UNL     1      22.407  11.656  26.532  1.00  0.00     0.050 A 
HETATM   27  C   UNL     1      22.915  11.921  25.260  1.00  0.00     0.016 A 
HETATM   28  C   UNL     1      24.293  11.999  25.061  1.00  0.00     0.003 A 
HETATM   29  C   UNL     1      25.164  11.813  26.135  1.00  0.00     0.029 A 
BRANCH  26  30
HETATM   30  C   UNL     1      20.933  11.572  26.743  1.00  0.00     0.417 C 
HETATM   31  F   UNL     1      20.232  12.562  26.116  1.00  0.00    -0.166 F 
HETATM   32  F   UNL     1      20.382  10.406  26.292  1.00  0.00    -0.166 F 
HETATM   33  F   UNL     1      20.585  11.655  28.061  1.00  0.00    -0.166 F 
ENDBRANCH  26  30
ENDBRANCH  22  24
ENDBRANCH   5  22
TORSDOF 7
ENDMDL
MODEL 7
REMARK VINA RESULT:      -7.3      7.716     11.177
REMARK  7 active torsions:
REMARK  status: ('A' for Active; 'I' for Inactive)
REMARK       I    between atoms: N_5  and  C_13 
REMARK    1  A    between atoms: N_5  and  C_14 
REMARK    2  A    between atoms: N_6  and  C_17 
REMARK    3  A    between atoms: N_6  and  C_20 
REMARK    4  A    between atoms: N_7  and  C_21 
REMARK    5  A    between atoms: N_7  and  C_23 
REMARK    6  A    between atoms: C_10  and  C_13 
REMARK    7  A    between atoms: C_24  and  C_29 
ROOT
HETATM    1  N   UNL     1      29.983  10.778  31.178  1.00  0.00    -0.224 NA
HETATM    2  N   UNL     1      30.466  10.638  28.821  1.00  0.00    -0.224 NA
HETATM    3  C   UNL     1      30.934   9.845  31.390  1.00  0.00     0.133 A 
HETATM    4  C   UNL     1      31.683   9.270  30.384  1.00  0.00     0.100 A 
HETATM    5  C   UNL     1      31.407   9.706  29.100  1.00  0.00     0.133 A 
HETATM    6  C   UNL     1      29.803  11.123  29.888  1.00  0.00     0.237 A 
ENDROOT
BRANCH   3   7
HETATM    7  N   UNL     1      31.190   9.421  32.717  1.00  0.00    -0.341 N 
HETATM    8  H   UNL     1      32.107   9.696  33.060  1.00  0.00     0.167 HD
BRANCH   7   9
HETATM    9  C   UNL     1      30.421   8.704  33.648  1.00  0.00     0.035 A 
HETATM   10  C   UNL     1      30.316   9.151  34.968  1.00  0.00     0.059 A 
HETATM   11  C   UNL     1      29.551   8.439  35.891  1.00  0.00     0.036 A 
HETATM   12  C   UNL     1      28.887   7.276  35.499  1.00  0.00     0.029 A 
HETATM   13  C   UNL     1      28.989   6.826  34.183  1.00  0.00     0.004 A 
HETATM   14  C   UNL     1      29.755   7.538  33.260  1.00  0.00     0.029 A 
BRANCH  11  15
HETATM   15  N   UNL     1      29.448   8.889  37.208  1.00  0.00    -0.327 N 
HETATM   16  C   UNL     1      29.034  10.145  37.659  1.00  0.00     0.226 C 
HETATM   17  O   UNL     1      28.678  11.103  36.987  1.00  0.00    -0.273 OA
HETATM   18  H   UNL     1      29.715   8.213  37.920  1.00  0.00     0.169 HD
BRANCH  16  19
HETATM   19  C   UNL     1      29.044  10.286  39.150  1.00  0.00     0.078 A 
HETATM   20  C   UNL     1      30.243  10.886  39.794  1.00  0.00     0.015 A 
HETATM   21  C   UNL     1      29.965   9.419  39.934  1.00  0.00     0.015 A 
ENDBRANCH  16  19
ENDBRANCH  11  15
ENDBRANCH   7   9
ENDBRANCH   3   7
BRANCH   5  22
HETATM   22  N   UNL     1      32.149   9.144  28.044  1.00  0.00    -0.341 N 
HETATM   23  H   UNL     1      32.684   9.837  27.524  1.00  0.00     0.167 HD
BRANCH  22  24
HETATM   24  C   UNL     1      32.062   7.910  27.366  1.00  0.00     0.034 A 
HETATM   25  C   UNL     1      30.836   7.472  26.867  1.00  0.00     0.045 A 
HETATM   26  C   UNL     1      30.751   6.253  26.195  1.00  0.00     0.050 A 
HETATM   27  C   UNL     1      31.893   5.471  26.023  1.00  0.00     0.016 A 
HETATM   28  C   UNL     1      33.120   5.908  26.523  1.00  0.00     0.003 A 
HETATM   29  C   UNL     1      33.204   7.128  27.194  1.00  0.00     0.029 A 
BRANCH  26  30
HETATM   30  C   UNL     1      29.439   5.784  25.661  1.00  0.00     0.417 C 
HETATM   31  F   UNL     1      29.379   4.435  25.465  1.00  0.00    -0.166 F 
HETATM   32  F   UNL     1      28.383   6.074  26.476  1.00  0.00    -0.166 F 
HETATM   33  F   UNL     1      29.134   6.344  24.453  1.00  0.00    -0.166 F 
ENDBRANCH  26  30
ENDBRANCH  22  24
ENDBRANCH   5  22
TORSDOF 7
ENDMDL
MODEL 8
REMARK VINA RESULT:      -7.2      6.765      9.797
REMARK  7 active torsions:
REMARK  status: ('A' for Active; 'I' for Inactive)
REMARK       I    between atoms: N_5  and  C_13 
REMARK    1  A    between atoms: N_5  and  C_14 
REMARK    2  A    between atoms: N_6  and  C_17 
REMARK    3  A    between atoms: N_6  and  C_20 
REMARK    4  A    between atoms: N_7  and  C_21 
REMARK    5  A    between atoms: N_7  and  C_23 
REMARK    6  A    between atoms: C_10  and  C_13 
REMARK    7  A    between atoms: C_24  and  C_29 
ROOT
HETATM    1  N   UNL     1      26.983  11.577  29.408  1.00  0.00    -0.224 NA
HETATM    2  N   UNL     1      26.613  10.547  27.261  1.00  0.00    -0.224 NA
HETATM    3  C   UNL     1      28.301  11.328  29.259  1.00  0.00     0.133 A 
HETATM    4  C   UNL     1      28.843  10.703  28.154  1.00  0.00     0.100 A 
HETATM    5  C   UNL     1      27.945  10.326  27.171  1.00  0.00     0.133 A 
HETATM    6  C   UNL     1      26.208  11.164  28.387  1.00  0.00     0.237 A 
ENDROOT
BRANCH   3   7
HETATM    7  N   UNL     1      29.191  11.727  30.286  1.00  0.00    -0.341 N 
HETATM    8  H   UNL     1      29.444  12.710  30.243  1.00  0.00     0.167 HD
BRANCH   7   9
HETATM    9  C   UNL     1      29.783  11.029  31.351  1.00  0.00     0.035 A 
HETATM   10  C   UNL     1      29.442  11.337  32.671  1.00  0.00     0.059 A 
HETATM   11  C   UNL     1      30.030  10.642  33.727  1.00  0.00     0.036 A 
HETATM   12  C   UNL     1      30.960   9.635  33.469  1.00  0.00     0.029 A 
HETATM   13  C   UNL     1      31.303   9.323  32.154  1.00  0.00     0.004 A 
HETATM   14  C   UNL     1      30.716  10.019  31.097  1.00  0.00     0.029 A 
BRANCH  11  15
HETATM   15  N   UNL     1      29.686  10.952  35.044  1.00  0.00    -0.327 N 
HETATM   16  C   UNL     1      29.171  10.100  36.024  1.00  0.00     0.226 C 
HETATM   17  O   UNL     1      28.919   8.907  35.922  1.00  0.00    -0.273 OA
HETATM   18  H   UNL     1      29.827  11.924  35.311  1.00  0.00     0.169 HD
BRANCH  16  19
HETATM   19  C   UNL     1      28.916  10.772  37.337  1.00  0.00     0.078 A 
HETATM   20  C   UNL     1      30.085  11.243  38.127  1.00  0.00     0.015 A 
HETATM   21  C   UNL     1      29.295  10.051  38.582  1.00  0.00     0.015 A 
ENDBRANCH  16  19
ENDBRANCH  11  15
ENDBRANCH   7   9
ENDBRANCH   3   7
BRANCH   5  22
HETATM   22  N   UNL     1      28.458   9.685  26.027  1.00  0.00    -0.341 N 
HETATM   23  H   UNL     1      27.829   9.737  25.229  1.00  0.00     0.167 HD
BRANCH  22  24
HETATM   24  C   UNL     1      29.483   8.734  25.845  1.00  0.00     0.034 A 
HETATM   25  C   UNL     1      29.215   7.376  26.018  1.00  0.00     0.045 A 
HETATM   26  C   UNL     1      30.229   6.436  25.835  1.00  0.00     0.050 A 
HETATM   27  C   UNL     1      31.512   6.854  25.480  1.00  0.00     0.016 A 
HETATM   28  C   UNL     1      31.781   8.211  25.307  1.00  0.00     0.003 A 
HETATM   29  C   UNL     1      30.766   9.152  25.489  1.00  0.00     0.029 A 
BRANCH  26  30
HETATM   30  C   UNL     1      29.943   4.984  26.020  1.00  0.00     0.417 C 
HETATM   31  F   UNL     1      29.533   4.663  27.282  1.00  0.00    -0.166 F 
HETATM   32  F   UNL     1      28.962   4.511  25.196  1.00  0.00    -0.166 F 
HETATM   33  F   UNL     1      31.034   4.199  25.779  1.00  0.00    -0.166 F 
ENDBRANCH  26  30
ENDBRANCH  22  24
ENDBRANCH   5  22
TORSDOF 7
ENDMDL
MODEL 9
REMARK VINA RESULT:      -7.0      7.614     10.765
REMARK  7 active torsions:
REMARK  status: ('A' for Active; 'I' for Inactive)
REMARK       I    between atoms: N_5  and  C_13 
REMARK    1  A    between atoms: N_5  and  C_14 
REMARK    2  A    between atoms: N_6  and  C_17 
REMARK    3  A    between atoms: N_6  and  C_20 
REMARK    4  A    between atoms: N_7  and  C_21 
REMARK    5  A    between atoms: N_7  and  C_23 
REMARK    6  A    between atoms: C_10  and  C_13 
REMARK    7  A    between atoms: C_24  and  C_29 
ROOT
HETATM    1  N   UNL     1      29.517  11.340  29.113  1.00  0.00    -0.224 NA
HETATM    2  N   UNL     1      29.005  10.088  27.119  1.00  0.00    -0.224 NA
HETATM    3  C   UNL     1      30.720  10.730  29.142  1.00  0.00     0.133 A 
HETATM    4  C   UNL     1      31.133   9.802  28.207  1.00  0.00     0.100 A 
HETATM    5  C   UNL     1      30.227   9.511  27.203  1.00  0.00     0.133 A 
HETATM    6  C   UNL     1      28.720  10.976  28.090  1.00  0.00     0.237 A 
ENDROOT
BRANCH   3   7
HETATM    7  N   UNL     1      31.623  11.052  30.185  1.00  0.00    -0.341 N 
HETATM    8  H   UNL     1      32.213  11.853  29.977  1.00  0.00     0.167 HD
BRANCH   7   9
HETATM    9  C   UNL     1      31.853  10.482  31.448  1.00  0.00     0.035 A 
HETATM   10  C   UNL     1      31.140  10.930  32.563  1.00  0.00     0.059 A 
HETATM   11  C   UNL     1      31.368  10.363  33.816  1.00  0.00     0.036 A 
HETATM   12  C   UNL     1      32.311   9.345  33.961  1.00  0.00     0.029 A 
HETATM   13  C   UNL     1      33.026   8.895  32.851  1.00  0.00     0.004 A 
HETATM   14  C   UNL     1      32.798   9.463  31.597  1.00  0.00     0.029 A 
BRANCH  11  15
HETATM   15  N   UNL     1      30.653  10.813  34.927  1.00  0.00    -0.327 N 
HETATM   16  C   UNL     1      29.407  10.376  35.384  1.00  0.00     0.226 C 
HETATM   17  O   UNL     1      28.693   9.508  34.900  1.00  0.00    -0.273 OA
HETATM   18  H   UNL     1      31.101  11.555  35.460  1.00  0.00     0.169 HD
BRANCH  16  19
HETATM   19  C   UNL     1      28.932  11.082  36.616  1.00  0.00     0.078 A 
HETATM   20  C   UNL     1      29.943  11.493  37.627  1.00  0.00     0.015 A 
HETATM   21  C   UNL     1      29.004  10.359  37.914  1.00  0.00     0.015 A 
ENDBRANCH  16  19
ENDBRANCH  11  15
ENDBRANCH   7   9
ENDBRANCH   3   7
BRANCH   5  22
HETATM   22  N   UNL     1      30.609   8.569  26.229  1.00  0.00    -0.341 N 
HETATM   23  H   UNL     1      30.786   8.991  25.320  1.00  0.00     0.167 HD
BRANCH  22  24
HETATM   24  C   UNL     1      30.489   7.166  26.159  1.00  0.00     0.034 A 
HETATM   25  C   UNL     1      31.632   6.368  26.114  1.00  0.00     0.045 A 
HETATM   26  C   UNL     1      31.512   4.980  26.046  1.00  0.00     0.050 A 
HETATM   27  C   UNL     1      30.249   4.390  26.024  1.00  0.00     0.016 A 
HETATM   28  C   UNL     1      29.105   5.187  26.069  1.00  0.00     0.003 A 
HETATM   29  C   UNL     1      29.225   6.575  26.137  1.00  0.00     0.029 A 
BRANCH  26  30
HETATM   30  C   UNL     1      32.735   4.127  25.998  1.00  0.00     0.417 C 
HETATM   31  F   UNL     1      33.836   4.716  26.548  1.00  0.00    -0.166 F 
HETATM   32  F   UNL     1      32.598   2.939  26.658  1.00  0.00    -0.166 F 
HETATM   33  F   UNL     1      33.095   3.797  24.722  1.00  0.00    -0.166 F 
ENDBRANCH  26  30
ENDBRANCH  22  24
ENDBRANCH   5  22
TORSDOF 7
ENDMDL
