MODEL 1
REMARK VINA RESULT:      -8.6      0.000      0.000
REMARK  7 active torsions:
REMARK  status: ('A' for Active; 'I' for Inactive)
REMARK       I    between atoms: N_5  and  C_13 
REMARK    1  A    between atoms: N_5  and  C_14 
REMARK    2  A    between atoms: N_6  and  C_17 
REMARK    3  A    between atoms: N_6  and  C_20 
REMARK    4  A    between atoms: N_7  and  C_21 
REMARK    5  A    between atoms: N_7  and  C_23 
REMARK    6  A    between atoms: C_10  and  C_13 
REMARK    7  A    between atoms: C_24  and  C_29 
ROOT
HETATM    1  N   UNL     1      58.338  88.607  35.665  1.00  0.00    -0.224 NA
HETATM    2  N   UNL     1      56.783  88.870  33.843  1.00  0.00    -0.224 NA
HETATM    3  C   UNL     1      57.320  88.842  36.519  1.00  0.00     0.133 A 
HETATM    4  C   UNL     1      56.024  89.094  36.116  1.00  0.00     0.100 A 
HETATM    5  C   UNL     1      55.805  89.098  34.750  1.00  0.00     0.133 A 
HETATM    6  C   UNL     1      58.004  88.637  34.360  1.00  0.00     0.237 A 
ENDROOT
BRANCH   3   7
HETATM    7  N   UNL     1      57.581  88.831  37.911  1.00  0.00    -0.341 N 
HETATM    8  H   UNL     1      57.786  89.751  38.291  1.00  0.00     0.167 HD
BRANCH   7   9
HETATM    9  C   UNL     1      57.603  87.799  38.863  1.00  0.00     0.035 A 
HETATM   10  C   UNL     1      58.758  87.033  39.045  1.00  0.00     0.059 A 
HETATM   11  C   UNL     1      58.780  86.010  39.991  1.00  0.00     0.036 A 
HETATM   12  C   UNL     1      57.647  85.747  40.761  1.00  0.00     0.029 A 
HETATM   13  C   UNL     1      56.492  86.508  40.584  1.00  0.00     0.004 A 
HETATM   14  C   UNL     1      56.470  87.532  39.636  1.00  0.00     0.029 A 
BRANCH  11  15
HETATM   15  N   UNL     1      59.936  85.248  40.170  1.00  0.00    -0.327 N 
HETATM   16  C   UNL     1      60.695  85.094  41.332  1.00  0.00     0.226 C 
HETATM   17  O   UNL     1      60.496  85.597  42.430  1.00  0.00    -0.273 OA
HETATM   18  H   UNL     1      60.261  84.753  39.342  1.00  0.00     0.169 HD
BRANCH  16  19
HETATM   19  C   UNL     1      61.881  84.196  41.166  1.00  0.00     0.078 A 
HETATM   20  C   UNL     1      61.796  83.090  40.175  1.00  0.00     0.015 A 
HETATM   21  C   UNL     1      61.774  82.791  41.644  1.00  0.00     0.015 A 
ENDBRANCH  16  19
ENDBRANCH  11  15
ENDBRANCH   7   9
ENDBRANCH   3   7
BRANCH   5  22
HETATM   22  N   UNL     1      54.496  89.351  34.298  1.00  0.00    -0.341 N 
HETATM   23  H   UNL     1      53.988  88.502  34.060  1.00  0.00     0.167 HD
BRANCH  22  24
HETATM   24  C   UNL     1      53.862  90.513  33.809  1.00  0.00     0.034 A 
HETATM   25  C   UNL     1      52.896  91.159  34.579  1.00  0.00     0.045 A 
HETATM   26  C   UNL     1      52.272  92.308  34.095  1.00  0.00     0.050 A 
HETATM   27  C   UNL     1      52.614  92.811  32.840  1.00  0.00     0.016 A 
HETATM   28  C   UNL     1      53.580  92.166  32.069  1.00  0.00     0.003 A 
HETATM   29  C   UNL     1      54.204  91.016  32.553  1.00  0.00     0.029 A 
BRANCH  26  30
HETATM   30  C   UNL     1      51.238  92.999  34.919  1.00  0.00     0.417 C 
HETATM   31  F   UNL     1      51.668  94.174  35.465  1.00  0.00    -0.166 F 
HETATM   32  F   UNL     1      50.110  93.323  34.221  1.00  0.00    -0.166 F 
HETATM   33  F   UNL     1      50.812  92.241  35.972  1.00  0.00    -0.166 F 
ENDBRANCH  26  30
ENDBRANCH  22  24
ENDBRANCH   5  22
TORSDOF 7
ENDMDL
MODEL 2
REMARK VINA RESULT:      -8.6      3.863      5.367
REMARK  7 active torsions:
REMARK  status: ('A' for Active; 'I' for Inactive)
REMARK       I    between atoms: N_5  and  C_13 
REMARK    1  A    between atoms: N_5  and  C_14 
REMARK    2  A    between atoms: N_6  and  C_17 
REMARK    3  A    between atoms: N_6  and  C_20 
REMARK    4  A    between atoms: N_7  and  C_21 
REMARK    5  A    between atoms: N_7  and  C_23 
REMARK    6  A    between atoms: C_10  and  C_13 
REMARK    7  A    between atoms: C_24  and  C_29 
ROOT
HETATM    1  N   UNL     1      58.327  88.604  35.533  1.00  0.00    -0.224 NA
HETATM    2  N   UNL     1      55.974  88.861  35.988  1.00  0.00    -0.224 NA
HETATM    3  C   UNL     1      58.064  88.849  34.233  1.00  0.00     0.133 A 
HETATM    4  C   UNL     1      56.800  89.106  33.741  1.00  0.00     0.100 A 
HETATM    5  C   UNL     1      55.776  89.100  34.671  1.00  0.00     0.133 A 
HETATM    6  C   UNL     1      57.251  88.624  36.343  1.00  0.00     0.237 A 
ENDROOT
BRANCH   3   7
HETATM    7  N   UNL     1      59.137  88.846  33.308  1.00  0.00    -0.341 N 
HETATM    8  H   UNL     1      59.274  89.740  32.845  1.00  0.00     0.167 HD
BRANCH   7   9
HETATM    9  C   UNL     1      60.046  87.851  32.914  1.00  0.00     0.035 A 
HETATM   10  C   UNL     1      59.654  86.510  32.885  1.00  0.00     0.059 A 
HETATM   11  C   UNL     1      60.558  85.523  32.492  1.00  0.00     0.036 A 
HETATM   12  C   UNL     1      61.858  85.872  32.127  1.00  0.00     0.029 A 
HETATM   13  C   UNL     1      62.254  87.209  32.154  1.00  0.00     0.004 A 
HETATM   14  C   UNL     1      61.350  88.197  32.547  1.00  0.00     0.029 A 
BRANCH  11  15
HETATM   15  N   UNL     1      60.161  84.185  32.464  1.00  0.00    -0.327 N 
HETATM   16  C   UNL     1      60.259  83.236  33.484  1.00  0.00     0.226 C 
HETATM   17  O   UNL     1      60.712  83.390  34.611  1.00  0.00    -0.273 OA
HETATM   18  H   UNL     1      59.758  83.871  31.584  1.00  0.00     0.169 HD
BRANCH  16  19
HETATM   19  C   UNL     1      59.732  81.886  33.108  1.00  0.00     0.078 A 
HETATM   20  C   UNL     1      60.321  80.690  33.769  1.00  0.00     0.015 A 
HETATM   21  C   UNL     1      60.615  80.979  32.326  1.00  0.00     0.015 A 
ENDBRANCH  16  19
ENDBRANCH  11  15
ENDBRANCH   7   9
ENDBRANCH   3   7
BRANCH   5  22
HETATM   22  N   UNL     1      54.471  89.358  34.209  1.00  0.00    -0.341 N 
HETATM   23  H   UNL     1      53.976  88.513  33.932  1.00  0.00     0.167 HD
BRANCH  22  24
HETATM   24  C   UNL     1      53.833  90.531  33.756  1.00  0.00     0.034 A 
HETATM   25  C   UNL     1      52.871  91.154  34.550  1.00  0.00     0.045 A 
HETATM   26  C   UNL     1      52.242  92.315  34.102  1.00  0.00     0.050 A 
HETATM   27  C   UNL     1      52.575  92.854  32.859  1.00  0.00     0.016 A 
HETATM   28  C   UNL     1      53.537  92.231  32.065  1.00  0.00     0.003 A 
HETATM   29  C   UNL     1      54.167  91.070  32.513  1.00  0.00     0.029 A 
BRANCH  26  30
HETATM   30  C   UNL     1      51.212  92.982  34.951  1.00  0.00     0.417 C 
HETATM   31  F   UNL     1      51.672  94.092  35.600  1.00  0.00    -0.166 F 
HETATM   32  F   UNL     1      50.119  93.406  34.252  1.00  0.00    -0.166 F 
HETATM   33  F   UNL     1      50.726  92.161  35.928  1.00  0.00    -0.166 F 
ENDBRANCH  26  30
ENDBRANCH  22  24
ENDBRANCH   5  22
TORSDOF 7
ENDMDL
MODEL 3
REMARK VINA RESULT:      -8.4      5.816     11.066
REMARK  7 active torsions:
REMARK  status: ('A' for Active; 'I' for Inactive)
REMARK       I    between atoms: N_5  and  C_13 
REMARK    1  A    between atoms: N_5  and  C_14 
REMARK    2  A    between atoms: N_6  and  C_17 
REMARK    3  A    between atoms: N_6  and  C_20 
REMARK    4  A    between atoms: N_7  and  C_21 
REMARK    5  A    between atoms: N_7  and  C_23 
REMARK    6  A    between atoms: C_10  and  C_13 
REMARK    7  A    between atoms: C_24  and  C_29 
ROOT
HETATM    1  N   UNL     1      55.507  87.624  37.687  1.00  0.00    -0.224 NA
HETATM    2  N   UNL     1      57.403  87.263  39.130  1.00  0.00    -0.224 NA
HETATM    3  C   UNL     1      56.352  87.608  36.635  1.00  0.00     0.133 A 
HETATM    4  C   UNL     1      57.715  87.427  36.749  1.00  0.00     0.100 A 
HETATM    5  C   UNL     1      58.197  87.258  38.035  1.00  0.00     0.133 A 
HETATM    6  C   UNL     1      56.091  87.449  38.888  1.00  0.00     0.237 A 
ENDROOT
BRANCH   3   7
HETATM    7  N   UNL     1      55.824  87.786  35.333  1.00  0.00    -0.341 N 
HETATM    8  H   UNL     1      55.638  86.912  34.849  1.00  0.00     0.167 HD
BRANCH   7   9
HETATM    9  C   UNL     1      55.503  88.933  34.588  1.00  0.00     0.035 A 
HETATM   10  C   UNL     1      54.347  89.662  34.880  1.00  0.00     0.059 A 
HETATM   11  C   UNL     1      54.031  90.801  34.142  1.00  0.00     0.036 A 
HETATM   12  C   UNL     1      54.869  91.218  33.107  1.00  0.00     0.029 A 
HETATM   13  C   UNL     1      56.024  90.494  32.812  1.00  0.00     0.004 A 
HETATM   14  C   UNL     1      56.340  89.354  33.551  1.00  0.00     0.029 A 
BRANCH  11  15
HETATM   15  N   UNL     1      52.875  91.526  34.437  1.00  0.00    -0.327 N 
HETATM   16  C   UNL     1      52.168  92.396  33.605  1.00  0.00     0.226 C 
HETATM   17  O   UNL     1      52.420  92.696  32.445  1.00  0.00    -0.273 OA
HETATM   18  H   UNL     1      52.516  91.403  35.382  1.00  0.00     0.169 HD
BRANCH  16  19
HETATM   19  C   UNL     1      50.964  93.009  34.252  1.00  0.00     0.078 A 
HETATM   20  C   UNL     1      50.965  94.476  34.495  1.00  0.00     0.015 A 
HETATM   21  C   UNL     1      51.096  93.520  35.643  1.00  0.00     0.015 A 
ENDBRANCH  16  19
ENDBRANCH  11  15
ENDBRANCH   7   9
ENDBRANCH   3   7
BRANCH   5  22
HETATM   22  N   UNL     1      59.584  87.070  38.195  1.00  0.00    -0.341 N 
HETATM   23  H   UNL     1      60.110  87.939  38.134  1.00  0.00     0.167 HD
BRANCH  22  24
HETATM   24  C   UNL     1      60.410  85.931  38.100  1.00  0.00     0.034 A 
HETATM   25  C   UNL     1      60.756  85.221  39.250  1.00  0.00     0.045 A 
HETATM   26  C   UNL     1      61.572  84.094  39.154  1.00  0.00     0.050 A 
HETATM   27  C   UNL     1      62.042  83.677  37.909  1.00  0.00     0.016 A 
HETATM   28  C   UNL     1      61.697  84.386  36.759  1.00  0.00     0.003 A 
HETATM   29  C   UNL     1      60.880  85.513  36.855  1.00  0.00     0.029 A 
BRANCH  26  30
HETATM   30  C   UNL     1      61.942  83.334  40.384  1.00  0.00     0.417 C 
HETATM   31  F   UNL     1      62.805  84.005  41.202  1.00  0.00    -0.166 F 
HETATM   32  F   UNL     1      60.874  83.020  41.174  1.00  0.00    -0.166 F 
HETATM   33  F   UNL     1      62.552  82.146  40.103  1.00  0.00    -0.166 F 
ENDBRANCH  26  30
ENDBRANCH  22  24
ENDBRANCH   5  22
TORSDOF 7
ENDMDL
MODEL 4
REMARK VINA RESULT:      -8.3      3.543      4.906
REMARK  7 active torsions:
REMARK  status: ('A' for Active; 'I' for Inactive)
REMARK       I    between atoms: N_5  and  C_13 
REMARK    1  A    between atoms: N_5  and  C_14 
REMARK    2  A    between atoms: N_6  and  C_17 
REMARK    3  A    between atoms: N_6  and  C_20 
REMARK    4  A    between atoms: N_7  and  C_21 
REMARK    5  A    between atoms: N_7  and  C_23 
REMARK    6  A    between atoms: C_10  and  C_13 
REMARK    7  A    between atoms: C_24  and  C_29 
ROOT
HETATM    1  N   UNL     1      57.319  88.299  38.358  1.00  0.00    -0.224 NA
HETATM    2  N   UNL     1      55.171  88.155  37.276  1.00  0.00    -0.224 NA
HETATM    3  C   UNL     1      57.857  88.627  37.165  1.00  0.00     0.133 A 
HETATM    4  C   UNL     1      57.126  88.737  35.999  1.00  0.00     0.100 A 
HETATM    5  C   UNL     1      55.770  88.488  36.109  1.00  0.00     0.133 A 
HETATM    6  C   UNL     1      55.991  88.079  38.342  1.00  0.00     0.237 A 
ENDROOT
BRANCH   3   7
HETATM    7  N   UNL     1      59.249  88.875  37.088  1.00  0.00    -0.341 N 
HETATM    8  H   UNL     1      59.590  89.494  37.817  1.00  0.00     0.167 HD
BRANCH   7   9
HETATM    9  C   UNL     1      60.245  88.424  36.206  1.00  0.00     0.035 A 
HETATM   10  C   UNL     1      60.145  87.161  35.616  1.00  0.00     0.059 A 
HETATM   11  C   UNL     1      61.133  86.716  34.739  1.00  0.00     0.036 A 
HETATM   12  C   UNL     1      62.226  87.532  34.447  1.00  0.00     0.029 A 
HETATM   13  C   UNL     1      62.331  88.793  35.033  1.00  0.00     0.004 A 
HETATM   14  C   UNL     1      61.342  89.238  35.911  1.00  0.00     0.029 A 
BRANCH  11  15
HETATM   15  N   UNL     1      61.029  85.454  34.152  1.00  0.00    -0.327 N 
HETATM   16  C   UNL     1      60.347  85.101  32.985  1.00  0.00     0.226 C 
HETATM   17  O   UNL     1      59.705  85.830  32.241  1.00  0.00    -0.273 OA
HETATM   18  H   UNL     1      61.507  84.704  34.647  1.00  0.00     0.169 HD
BRANCH  16  19
HETATM   19  C   UNL     1      60.445  83.646  32.643  1.00  0.00     0.078 A 
HETATM   20  C   UNL     1      59.826  82.661  33.570  1.00  0.00     0.015 A 
HETATM   21  C   UNL     1      61.319  82.783  33.484  1.00  0.00     0.015 A 
ENDBRANCH  16  19
ENDBRANCH  11  15
ENDBRANCH   7   9
ENDBRANCH   3   7
BRANCH   5  22
HETATM   22  N   UNL     1      54.988  88.591  34.942  1.00  0.00    -0.341 N 
HETATM   23  H   UNL     1      54.917  87.711  34.436  1.00  0.00     0.167 HD
BRANCH  22  24
HETATM   24  C   UNL     1      54.562  89.693  34.172  1.00  0.00     0.034 A 
HETATM   25  C   UNL     1      53.510  90.493  34.620  1.00  0.00     0.045 A 
HETATM   26  C   UNL     1      53.091  91.583  33.859  1.00  0.00     0.050 A 
HETATM   27  C   UNL     1      53.723  91.874  32.649  1.00  0.00     0.016 A 
HETATM   28  C   UNL     1      54.774  91.075  32.201  1.00  0.00     0.003 A 
HETATM   29  C   UNL     1      55.194  89.984  32.963  1.00  0.00     0.029 A 
BRANCH  26  30
HETATM   30  C   UNL     1      51.966  92.439  34.337  1.00  0.00     0.417 C 
HETATM   31  F   UNL     1      51.024  91.756  35.052  1.00  0.00    -0.166 F 
HETATM   32  F   UNL     1      52.364  93.458  35.153  1.00  0.00    -0.166 F 
HETATM   33  F   UNL     1      51.287  93.034  33.312  1.00  0.00    -0.166 F 
ENDBRANCH  26  30
ENDBRANCH  22  24
ENDBRANCH   5  22
TORSDOF 7
ENDMDL
MODEL 5
REMARK VINA RESULT:      -8.2      4.083      9.418
REMARK  7 active torsions:
REMARK  status: ('A' for Active; 'I' for Inactive)
REMARK       I    between atoms: N_5  and  C_13 
REMARK    1  A    between atoms: N_5  and  C_14 
REMARK    2  A    between atoms: N_6  and  C_17 
REMARK    3  A    between atoms: N_6  and  C_20 
REMARK    4  A    between atoms: N_7  and  C_21 
REMARK    5  A    between atoms: N_7  and  C_23 
REMARK    6  A    between atoms: C_10  and  C_13 
REMARK    7  A    between atoms: C_24  and  C_29 
ROOT
HETATM    1  N   UNL     1      59.818  90.032  33.389  1.00  0.00    -0.224 NA
HETATM    2  N   UNL     1      60.679  87.967  34.285  1.00  0.00    -0.224 NA
HETATM    3  C   UNL     1      58.738  89.883  34.184  1.00  0.00     0.133 A 
HETATM    4  C   UNL     1      58.560  88.819  35.045  1.00  0.00     0.100 A 
HETATM    5  C   UNL     1      59.572  87.876  35.058  1.00  0.00     0.133 A 
HETATM    6  C   UNL     1      60.735  89.051  33.488  1.00  0.00     0.237 A 
ENDROOT
BRANCH   3   7
HETATM    7  N   UNL     1      57.720  90.868  34.145  1.00  0.00    -0.341 N 
HETATM    8  H   UNL     1      57.995  91.751  34.566  1.00  0.00     0.167 HD
BRANCH   7   9
HETATM    9  C   UNL     1      56.413  90.859  33.631  1.00  0.00     0.035 A 
HETATM   10  C   UNL     1      55.424  91.659  34.210  1.00  0.00     0.059 A 
HETATM   11  C   UNL     1      54.127  91.651  33.698  1.00  0.00     0.036 A 
HETATM   12  C   UNL     1      53.812  90.844  32.605  1.00  0.00     0.029 A 
HETATM   13  C   UNL     1      54.796  90.044  32.023  1.00  0.00     0.004 A 
HETATM   14  C   UNL     1      56.093  90.051  32.536  1.00  0.00     0.029 A 
BRANCH  11  15
HETATM   15  N   UNL     1      53.142  92.452  34.279  1.00  0.00    -0.327 N 
HETATM   16  C   UNL     1      51.914  92.057  34.812  1.00  0.00     0.226 C 
HETATM   17  O   UNL     1      51.454  90.924  34.878  1.00  0.00    -0.273 OA
HETATM   18  H   UNL     1      53.354  93.448  34.306  1.00  0.00     0.169 HD
BRANCH  16  19
HETATM   19  C   UNL     1      51.098  93.187  35.358  1.00  0.00     0.078 A 
HETATM   20  C   UNL     1      50.276  93.986  34.409  1.00  0.00     0.015 A 
HETATM   21  C   UNL     1      51.510  94.578  35.024  1.00  0.00     0.015 A 
ENDBRANCH  16  19
ENDBRANCH  11  15
ENDBRANCH   7   9
ENDBRANCH   3   7
BRANCH   5  22
HETATM   22  N   UNL     1      59.429  86.774  35.923  1.00  0.00    -0.341 N 
HETATM   23  H   UNL     1      59.343  85.890  35.426  1.00  0.00     0.167 HD
BRANCH  22  24
HETATM   24  C   UNL     1      59.064  86.667  37.281  1.00  0.00     0.034 A 
HETATM   25  C   UNL     1      57.838  87.172  37.717  1.00  0.00     0.045 A 
HETATM   26  C   UNL     1      57.477  87.064  39.059  1.00  0.00     0.050 A 
HETATM   27  C   UNL     1      58.342  86.453  39.967  1.00  0.00     0.016 A 
HETATM   28  C   UNL     1      59.567  85.949  39.533  1.00  0.00     0.003 A 
HETATM   29  C   UNL     1      59.928  86.056  38.189  1.00  0.00     0.029 A 
BRANCH  26  30
HETATM   30  C   UNL     1      56.167  87.604  39.526  1.00  0.00     0.417 C 
HETATM   31  F   UNL     1      55.766  87.104  40.731  1.00  0.00    -0.166 F 
HETATM   32  F   UNL     1      56.159  88.960  39.682  1.00  0.00    -0.166 F 
HETATM   33  F   UNL     1      55.148  87.330  38.659  1.00  0.00    -0.166 F 
ENDBRANCH  26  30
ENDBRANCH  22  24
ENDBRANCH   5  22
TORSDOF 7
ENDMDL
MODEL 6
REMARK VINA RESULT:      -8.1      3.217      5.533
REMARK  7 active torsions:
REMARK  status: ('A' for Active; 'I' for Inactive)
REMARK       I    between atoms: N_5  and  C_13 
REMARK    1  A    between atoms: N_5  and  C_14 
REMARK    2  A    between atoms: N_6  and  C_17 
REMARK    3  A    between atoms: N_6  and  C_20 
REMARK    4  A    between atoms: N_7  and  C_21 
REMARK    5  A    between atoms: N_7  and  C_23 
REMARK    6  A    between atoms: C_10  and  C_13 
REMARK    7  A    between atoms: C_24  and  C_29 
ROOT
HETATM    1  N   UNL     1      57.068  87.358  39.484  1.00  0.00    -0.224 NA
HETATM    2  N   UNL     1      55.225  88.063  38.101  1.00  0.00    -0.224 NA
HETATM    3  C   UNL     1      57.716  86.980  38.363  1.00  0.00     0.133 A 
HETATM    4  C   UNL     1      57.192  87.111  37.093  1.00  0.00     0.100 A 
HETATM    5  C   UNL     1      55.927  87.664  37.014  1.00  0.00     0.133 A 
HETATM    6  C   UNL     1      55.844  87.882  39.283  1.00  0.00     0.237 A 
ENDROOT
BRANCH   3   7
HETATM    7  N   UNL     1      59.010  86.416  38.480  1.00  0.00    -0.341 N 
HETATM    8  H   UNL     1      59.203  86.033  39.401  1.00  0.00     0.167 HD
BRANCH   7   9
HETATM    9  C   UNL     1      60.071  86.280  37.569  1.00  0.00     0.035 A 
HETATM   10  C   UNL     1      60.244  87.215  36.545  1.00  0.00     0.059 A 
HETATM   11  C   UNL     1      61.299  87.080  35.643  1.00  0.00     0.036 A 
HETATM   12  C   UNL     1      62.185  86.009  35.760  1.00  0.00     0.029 A 
HETATM   13  C   UNL     1      62.017  85.073  36.781  1.00  0.00     0.004 A 
HETATM   14  C   UNL     1      60.961  85.208  37.683  1.00  0.00     0.029 A 
BRANCH  11  15
HETATM   15  N   UNL     1      61.468  88.017  34.622  1.00  0.00    -0.327 N 
HETATM   16  C   UNL     1      60.700  88.181  33.467  1.00  0.00     0.226 C 
HETATM   17  O   UNL     1      59.721  87.535  33.120  1.00  0.00    -0.273 OA
HETATM   18  H   UNL     1      62.256  88.650  34.741  1.00  0.00     0.169 HD
BRANCH  16  19
HETATM   19  C   UNL     1      61.168  89.293  32.582  1.00  0.00     0.078 A 
HETATM   20  C   UNL     1      62.408  90.024  32.962  1.00  0.00     0.015 A 
HETATM   21  C   UNL     1      61.069  90.689  33.091  1.00  0.00     0.015 A 
ENDBRANCH  16  19
ENDBRANCH  11  15
ENDBRANCH   7   9
ENDBRANCH   3   7
BRANCH   5  22
HETATM   22  N   UNL     1      55.356  87.815  35.736  1.00  0.00    -0.341 N 
HETATM   23  H   UNL     1      55.030  86.935  35.343  1.00  0.00     0.167 HD
BRANCH  22  24
HETATM   24  C   UNL     1      55.429  88.843  34.773  1.00  0.00     0.034 A 
HETATM   25  C   UNL     1      54.358  89.720  34.604  1.00  0.00     0.045 A 
HETATM   26  C   UNL     1      54.432  90.737  33.653  1.00  0.00     0.050 A 
HETATM   27  C   UNL     1      55.578  90.877  32.870  1.00  0.00     0.016 A 
HETATM   28  C   UNL     1      56.649  90.000  33.038  1.00  0.00     0.003 A 
HETATM   29  C   UNL     1      56.575  88.983  33.990  1.00  0.00     0.029 A 
BRANCH  26  30
HETATM   30  C   UNL     1      53.286  91.675  33.473  1.00  0.00     0.417 C 
HETATM   31  F   UNL     1      52.071  91.055  33.438  1.00  0.00    -0.166 F 
HETATM   32  F   UNL     1      53.182  92.607  34.465  1.00  0.00    -0.166 F 
HETATM   33  F   UNL     1      53.368  92.386  32.309  1.00  0.00    -0.166 F 
ENDBRANCH  26  30
ENDBRANCH  22  24
ENDBRANCH   5  22
TORSDOF 7
ENDMDL
MODEL 7
REMARK VINA RESULT:      -7.9      3.329      4.028
REMARK  7 active torsions:
REMARK  status: ('A' for Active; 'I' for Inactive)
REMARK       I    between atoms: N_5  and  C_13 
REMARK    1  A    between atoms: N_5  and  C_14 
REMARK    2  A    between atoms: N_6  and  C_17 
REMARK    3  A    between atoms: N_6  and  C_20 
REMARK    4  A    between atoms: N_7  and  C_21 
REMARK    5  A    between atoms: N_7  and  C_23 
REMARK    6  A    between atoms: C_10  and  C_13 
REMARK    7  A    between atoms: C_24  and  C_29 
ROOT
HETATM    1  N   UNL     1      58.295  89.021  35.669  1.00  0.00    -0.224 NA
HETATM    2  N   UNL     1      56.651  90.326  34.484  1.00  0.00    -0.224 NA
HETATM    3  C   UNL     1      57.311  88.164  36.014  1.00  0.00     0.133 A 
HETATM    4  C   UNL     1      55.993  88.318  35.637  1.00  0.00     0.100 A 
HETATM    5  C   UNL     1      55.711  89.430  34.863  1.00  0.00     0.133 A 
HETATM    6  C   UNL     1      57.900  90.065  34.916  1.00  0.00     0.237 A 
ENDROOT
BRANCH   3   7
HETATM    7  N   UNL     1      57.635  87.037  36.808  1.00  0.00    -0.341 N 
HETATM    8  H   UNL     1      56.834  86.635  37.286  1.00  0.00     0.167 HD
BRANCH   7   9
HETATM    9  C   UNL     1      58.846  86.368  37.055  1.00  0.00     0.035 A 
HETATM   10  C   UNL     1      59.523  85.731  36.011  1.00  0.00     0.059 A 
HETATM   11  C   UNL     1      60.725  85.068  36.257  1.00  0.00     0.036 A 
HETATM   12  C   UNL     1      61.255  85.039  37.547  1.00  0.00     0.029 A 
HETATM   13  C   UNL     1      60.583  85.673  38.591  1.00  0.00     0.004 A 
HETATM   14  C   UNL     1      59.380  86.335  38.346  1.00  0.00     0.029 A 
BRANCH  11  15
HETATM   15  N   UNL     1      61.399  84.434  35.212  1.00  0.00    -0.327 N 
HETATM   16  C   UNL     1      62.154  85.020  34.193  1.00  0.00     0.226 C 
HETATM   17  O   UNL     1      62.376  86.210  34.013  1.00  0.00    -0.273 OA
HETATM   18  H   UNL     1      61.319  83.420  35.196  1.00  0.00     0.169 HD
BRANCH  16  19
HETATM   19  C   UNL     1      62.741  84.034  33.231  1.00  0.00     0.078 A 
HETATM   20  C   UNL     1      62.831  84.416  31.796  1.00  0.00     0.015 A 
HETATM   21  C   UNL     1      61.835  83.387  32.244  1.00  0.00     0.015 A 
ENDBRANCH  16  19
ENDBRANCH  11  15
ENDBRANCH   7   9
ENDBRANCH   3   7
BRANCH   5  22
HETATM   22  N   UNL     1      54.376  89.623  34.457  1.00  0.00    -0.341 N 
HETATM   23  H   UNL     1      53.879  88.749  34.304  1.00  0.00     0.167 HD
BRANCH  22  24
HETATM   24  C   UNL     1      53.694  90.734  33.917  1.00  0.00     0.034 A 
HETATM   25  C   UNL     1      52.745  91.410  34.683  1.00  0.00     0.045 A 
HETATM   26  C   UNL     1      52.072  92.509  34.149  1.00  0.00     0.050 A 
HETATM   27  C   UNL     1      52.348  92.931  32.849  1.00  0.00     0.016 A 
HETATM   28  C   UNL     1      53.297  92.255  32.082  1.00  0.00     0.003 A 
HETATM   29  C   UNL     1      53.970  91.156  32.617  1.00  0.00     0.029 A 
BRANCH  26  30
HETATM   30  C   UNL     1      51.057  93.232  34.968  1.00  0.00     0.417 C 
HETATM   31  F   UNL     1      51.511  94.410  35.489  1.00  0.00    -0.166 F 
HETATM   32  F   UNL     1      49.929  93.562  34.273  1.00  0.00    -0.166 F 
HETATM   33  F   UNL     1      50.627  92.501  36.038  1.00  0.00    -0.166 F 
ENDBRANCH  26  30
ENDBRANCH  22  24
ENDBRANCH   5  22
TORSDOF 7
ENDMDL
MODEL 8
REMARK VINA RESULT:      -7.7      5.705      7.007
REMARK  7 active torsions:
REMARK  status: ('A' for Active; 'I' for Inactive)
REMARK       I    between atoms: N_5  and  C_13 
REMARK    1  A    between atoms: N_5  and  C_14 
REMARK    2  A    between atoms: N_6  and  C_17 
REMARK    3  A    between atoms: N_6  and  C_20 
REMARK    4  A    between atoms: N_7  and  C_21 
REMARK    5  A    between atoms: N_7  and  C_23 
REMARK    6  A    between atoms: C_10  and  C_13 
REMARK    7  A    between atoms: C_24  and  C_29 
ROOT
HETATM    1  N   UNL     1      61.673  86.906  32.126  1.00  0.00    -0.224 NA
HETATM    2  N   UNL     1      61.151  89.048  33.099  1.00  0.00    -0.224 NA
HETATM    3  C   UNL     1      60.542  86.421  32.678  1.00  0.00     0.133 A 
HETATM    4  C   UNL     1      59.677  87.177  33.443  1.00  0.00     0.100 A 
HETATM    5  C   UNL     1      60.031  88.502  33.626  1.00  0.00     0.133 A 
HETATM    6  C   UNL     1      61.914  88.208  32.373  1.00  0.00     0.237 A 
ENDROOT
BRANCH   3   7
HETATM    7  N   UNL     1      60.211  85.060  32.471  1.00  0.00    -0.341 N 
HETATM    8  H   UNL     1      59.655  84.902  31.635  1.00  0.00     0.167 HD
BRANCH   7   9
HETATM    9  C   UNL     1      60.507  83.891  33.192  1.00  0.00     0.035 A 
HETATM   10  C   UNL     1      59.769  82.725  32.977  1.00  0.00     0.059 A 
HETATM   11  C   UNL     1      60.065  81.565  33.692  1.00  0.00     0.036 A 
HETATM   12  C   UNL     1      61.101  81.566  34.626  1.00  0.00     0.029 A 
HETATM   13  C   UNL     1      61.841  82.728  34.844  1.00  0.00     0.004 A 
HETATM   14  C   UNL     1      61.544  83.889  34.129  1.00  0.00     0.029 A 
BRANCH  11  15
HETATM   15  N   UNL     1      59.325  80.402  33.474  1.00  0.00    -0.327 N 
HETATM   16  C   UNL     1      59.682  79.284  32.717  1.00  0.00     0.226 C 
HETATM   17  O   UNL     1      60.719  79.100  32.093  1.00  0.00    -0.273 OA
HETATM   18  H   UNL     1      58.411  80.379  33.921  1.00  0.00     0.169 HD
BRANCH  16  19
HETATM   19  C   UNL     1      58.641  78.208  32.698  1.00  0.00     0.078 A 
HETATM   20  C   UNL     1      57.540  78.274  33.696  1.00  0.00     0.015 A 
HETATM   21  C   UNL     1      58.614  77.234  33.823  1.00  0.00     0.015 A 
ENDBRANCH  16  19
ENDBRANCH  11  15
ENDBRANCH   7   9
ENDBRANCH   3   7
BRANCH   5  22
HETATM   22  N   UNL     1      59.174  89.308  34.400  1.00  0.00    -0.341 N 
HETATM   23  H   UNL     1      59.662  89.804  35.142  1.00  0.00     0.167 HD
BRANCH  22  24
HETATM   24  C   UNL     1      57.774  89.324  34.570  1.00  0.00     0.034 A 
HETATM   25  C   UNL     1      56.954  89.822  33.557  1.00  0.00     0.045 A 
HETATM   26  C   UNL     1      55.570  89.837  33.725  1.00  0.00     0.050 A 
HETATM   27  C   UNL     1      55.005  89.354  34.906  1.00  0.00     0.016 A 
HETATM   28  C   UNL     1      55.824  88.857  35.918  1.00  0.00     0.003 A 
HETATM   29  C   UNL     1      57.209  88.842  35.750  1.00  0.00     0.029 A 
BRANCH  26  30
HETATM   30  C   UNL     1      54.692  90.369  32.642  1.00  0.00     0.417 C 
HETATM   31  F   UNL     1      54.338  91.676  32.817  1.00  0.00    -0.166 F 
HETATM   32  F   UNL     1      55.261  90.316  31.402  1.00  0.00    -0.166 F 
HETATM   33  F   UNL     1      53.516  89.683  32.535  1.00  0.00    -0.166 F 
ENDBRANCH  26  30
ENDBRANCH  22  24
ENDBRANCH   5  22
TORSDOF 7
ENDMDL
MODEL 9
REMARK VINA RESULT:      -7.5      5.670     11.273
REMARK  7 active torsions:
REMARK  status: ('A' for Active; 'I' for Inactive)
REMARK       I    between atoms: N_5  and  C_13 
REMARK    1  A    between atoms: N_5  and  C_14 
REMARK    2  A    between atoms: N_6  and  C_17 
REMARK    3  A    between atoms: N_6  and  C_20 
REMARK    4  A    between atoms: N_7  and  C_21 
REMARK    5  A    between atoms: N_7  and  C_23 
REMARK    6  A    between atoms: C_10  and  C_13 
REMARK    7  A    between atoms: C_24  and  C_29 
ROOT
HETATM    1  N   UNL     1      56.558  86.846  38.735  1.00  0.00    -0.224 NA
HETATM    2  N   UNL     1      58.141  86.250  40.452  1.00  0.00    -0.224 NA
HETATM    3  C   UNL     1      57.571  86.819  37.844  1.00  0.00     0.133 A 
HETATM    4  C   UNL     1      58.877  86.520  38.177  1.00  0.00     0.100 A 
HETATM    5  C   UNL     1      59.113  86.240  39.510  1.00  0.00     0.133 A 
HETATM    6  C   UNL     1      56.909  86.556  40.003  1.00  0.00     0.237 A 
ENDROOT
BRANCH   3   7
HETATM    7  N   UNL     1      57.294  87.112  36.487  1.00  0.00    -0.341 N 
HETATM    8  H   UNL     1      56.820  86.358  35.998  1.00  0.00     0.167 HD
BRANCH   7   9
HETATM    9  C   UNL     1      57.541  88.244  35.692  1.00  0.00     0.035 A 
HETATM   10  C   UNL     1      56.501  89.122  35.374  1.00  0.00     0.059 A 
HETATM   11  C   UNL     1      56.747  90.245  34.586  1.00  0.00     0.036 A 
HETATM   12  C   UNL     1      58.035  90.497  34.112  1.00  0.00     0.029 A 
HETATM   13  C   UNL     1      59.077  89.624  34.427  1.00  0.00     0.004 A 
HETATM   14  C   UNL     1      58.830  88.499  35.214  1.00  0.00     0.029 A 
BRANCH  11  15
HETATM   15  N   UNL     1      55.706  91.119  34.271  1.00  0.00    -0.327 N 
HETATM   16  C   UNL     1      54.345  90.830  34.153  1.00  0.00     0.226 C 
HETATM   17  O   UNL     1      53.791  89.749  34.303  1.00  0.00    -0.273 OA
HETATM   18  H   UNL     1      55.985  92.084  34.103  1.00  0.00     0.169 HD
BRANCH  16  19
HETATM   19  C   UNL     1      53.502  92.017  33.801  1.00  0.00     0.078 A 
HETATM   20  C   UNL     1      52.313  92.313  34.645  1.00  0.00     0.015 A 
HETATM   21  C   UNL     1      52.138  91.775  33.256  1.00  0.00     0.015 A 
ENDBRANCH  16  19
ENDBRANCH  11  15
ENDBRANCH   7   9
ENDBRANCH   3   7
BRANCH   5  22
HETATM   22  N   UNL     1      60.433  85.930  39.891  1.00  0.00    -0.341 N 
HETATM   23  H   UNL     1      61.128  86.326  39.263  1.00  0.00     0.167 HD
BRANCH  22  24
HETATM   24  C   UNL     1      60.974  84.946  40.744  1.00  0.00     0.034 A 
HETATM   25  C   UNL     1      61.067  85.185  42.115  1.00  0.00     0.045 A 
HETATM   26  C   UNL     1      61.601  84.211  42.959  1.00  0.00     0.050 A 
HETATM   27  C   UNL     1      62.042  82.998  42.431  1.00  0.00     0.016 A 
HETATM   28  C   UNL     1      61.950  82.758  41.060  1.00  0.00     0.003 A 
HETATM   29  C   UNL     1      61.415  83.733  40.217  1.00  0.00     0.029 A 
BRANCH  26  30
HETATM   30  C   UNL     1      61.701  84.467  44.425  1.00  0.00     0.417 C 
HETATM   31  F   UNL     1      62.160  83.397  45.138  1.00  0.00    -0.166 F 
HETATM   32  F   UNL     1      62.542  85.494  44.744  1.00  0.00    -0.166 F 
HETATM   33  F   UNL     1      60.498  84.791  44.985  1.00  0.00    -0.166 F 
ENDBRANCH  26  30
ENDBRANCH  22  24
ENDBRANCH   5  22
TORSDOF 7
ENDMDL
