MODEL 1
REMARK VINA RESULT:      -8.5      0.000      0.000
REMARK  7 active torsions:
REMARK  status: ('A' for Active; 'I' for Inactive)
REMARK       I    between atoms: N_5  and  C_13 
REMARK    1  A    between atoms: N_5  and  C_14 
REMARK    2  A    between atoms: N_6  and  C_17 
REMARK    3  A    between atoms: N_6  and  C_20 
REMARK    4  A    between atoms: N_7  and  C_21 
REMARK    5  A    between atoms: N_7  and  C_23 
REMARK    6  A    between atoms: C_10  and  C_13 
REMARK    7  A    between atoms: C_24  and  C_29 
ROOT
HETATM    1  N   UNL     1      58.159  88.656  35.737  1.00  0.00    -0.224 NA
HETATM    2  N   UNL     1      56.810  88.893  33.754  1.00  0.00    -0.224 NA
HETATM    3  C   UNL     1      57.053  88.893  36.473  1.00  0.00     0.133 A 
HETATM    4  C   UNL     1      55.808  89.134  35.929  1.00  0.00     0.100 A 
HETATM    5  C   UNL     1      55.738  89.124  34.547  1.00  0.00     0.133 A 
HETATM    6  C   UNL     1      57.969  88.671  34.404  1.00  0.00     0.237 A 
ENDROOT
BRANCH   3   7
HETATM    7  N   UNL     1      57.160  88.896  37.885  1.00  0.00    -0.341 N 
HETATM    8  H   UNL     1      57.095  89.824  38.293  1.00  0.00     0.167 HD
BRANCH   7   9
HETATM    9  C   UNL     1      57.333  87.867  38.825  1.00  0.00     0.035 A 
HETATM   10  C   UNL     1      58.534  87.154  38.877  1.00  0.00     0.059 A 
HETATM   11  C   UNL     1      58.704  86.134  39.811  1.00  0.00     0.036 A 
HETATM   12  C   UNL     1      57.675  85.821  40.699  1.00  0.00     0.029 A 
HETATM   13  C   UNL     1      56.474  86.530  40.652  1.00  0.00     0.004 A 
HETATM   14  C   UNL     1      56.304  87.550  39.716  1.00  0.00     0.029 A 
BRANCH  11  15
HETATM   15  N   UNL     1      59.906  85.425  39.860  1.00  0.00    -0.327 N 
HETATM   16  C   UNL     1      60.710  85.168  40.973  1.00  0.00     0.226 C 
HETATM   17  O   UNL     1      60.520  85.513  42.131  1.00  0.00    -0.273 OA
HETATM   18  H   UNL     1      60.230  85.059  38.967  1.00  0.00     0.169 HD
BRANCH  16  19
HETATM   19  C   UNL     1      61.938  84.370  40.661  1.00  0.00     0.078 A 
HETATM   20  C   UNL     1      62.008  83.665  39.353  1.00  0.00     0.015 A 
HETATM   21  C   UNL     1      61.823  82.887  40.622  1.00  0.00     0.015 A 
ENDBRANCH  16  19
ENDBRANCH  11  15
ENDBRANCH   7   9
ENDBRANCH   3   7
BRANCH   5  22
HETATM   22  N   UNL     1      54.485  89.366  33.953  1.00  0.00    -0.341 N 
HETATM   23  H   UNL     1      54.100  88.543  33.495  1.00  0.00     0.167 HD
BRANCH  22  24
HETATM   24  C   UNL     1      53.816  90.552  33.585  1.00  0.00     0.034 A 
HETATM   25  C   UNL     1      52.867  91.112  34.440  1.00  0.00     0.045 A 
HETATM   26  C   UNL     1      52.207  92.285  34.076  1.00  0.00     0.050 A 
HETATM   27  C   UNL     1      52.495  92.898  32.857  1.00  0.00     0.016 A 
HETATM   28  C   UNL     1      53.443  92.338  32.001  1.00  0.00     0.003 A 
HETATM   29  C   UNL     1      54.104  91.164  32.365  1.00  0.00     0.029 A 
BRANCH  26  30
HETATM   30  C   UNL     1      51.192  92.885  34.991  1.00  0.00     0.417 C 
HETATM   31  F   UNL     1      50.092  93.370  34.344  1.00  0.00    -0.166 F 
HETATM   32  F   UNL     1      50.704  92.008  35.916  1.00  0.00    -0.166 F 
HETATM   33  F   UNL     1      51.688  93.936  35.708  1.00  0.00    -0.166 F 
ENDBRANCH  26  30
ENDBRANCH  22  24
ENDBRANCH   5  22
TORSDOF 7
ENDMDL
MODEL 2
REMARK VINA RESULT:      -8.5      5.750     10.968
REMARK  7 active torsions:
REMARK  status: ('A' for Active; 'I' for Inactive)
REMARK       I    between atoms: N_5  and  C_13 
REMARK    1  A    between atoms: N_5  and  C_14 
REMARK    2  A    between atoms: N_6  and  C_17 
REMARK    3  A    between atoms: N_6  and  C_20 
REMARK    4  A    between atoms: N_7  and  C_21 
REMARK    5  A    between atoms: N_7  and  C_23 
REMARK    6  A    between atoms: C_10  and  C_13 
REMARK    7  A    between atoms: C_24  and  C_29 
ROOT
HETATM    1  N   UNL     1      55.442  87.697  37.667  1.00  0.00    -0.224 NA
HETATM    2  N   UNL     1      57.319  87.348  39.137  1.00  0.00    -0.224 NA
HETATM    3  C   UNL     1      56.300  87.665  36.626  1.00  0.00     0.133 A 
HETATM    4  C   UNL     1      57.661  87.480  36.759  1.00  0.00     0.100 A 
HETATM    5  C   UNL     1      58.127  87.325  38.052  1.00  0.00     0.133 A 
HETATM    6  C   UNL     1      56.011  87.536  38.877  1.00  0.00     0.237 A 
ENDROOT
BRANCH   3   7
HETATM    7  N   UNL     1      55.788  87.828  35.315  1.00  0.00    -0.341 N 
HETATM    8  H   UNL     1      55.612  86.949  34.837  1.00  0.00     0.167 HD
BRANCH   7   9
HETATM    9  C   UNL     1      55.472  88.966  34.556  1.00  0.00     0.035 A 
HETATM   10  C   UNL     1      54.327  89.713  34.848  1.00  0.00     0.059 A 
HETATM   11  C   UNL     1      54.015  90.843  34.095  1.00  0.00     0.036 A 
HETATM   12  C   UNL     1      54.847  91.234  33.045  1.00  0.00     0.029 A 
HETATM   13  C   UNL     1      55.991  90.493  32.749  1.00  0.00     0.004 A 
HETATM   14  C   UNL     1      56.302  89.361  33.502  1.00  0.00     0.029 A 
BRANCH  11  15
HETATM   15  N   UNL     1      52.871  91.586  34.391  1.00  0.00    -0.327 N 
HETATM   16  C   UNL     1      52.149  92.430  33.544  1.00  0.00     0.226 C 
HETATM   17  O   UNL     1      52.376  92.687  32.369  1.00  0.00    -0.273 OA
HETATM   18  H   UNL     1      52.533  91.499  35.347  1.00  0.00     0.169 HD
BRANCH  16  19
HETATM   19  C   UNL     1      50.965  93.073  34.196  1.00  0.00     0.078 A 
HETATM   20  C   UNL     1      51.089  94.486  34.647  1.00  0.00     0.015 A 
HETATM   21  C   UNL     1      51.039  93.373  35.652  1.00  0.00     0.015 A 
ENDBRANCH  16  19
ENDBRANCH  11  15
ENDBRANCH   7   9
ENDBRANCH   3   7
BRANCH   5  22
HETATM   22  N   UNL     1      59.510  87.134  38.231  1.00  0.00    -0.341 N 
HETATM   23  H   UNL     1      60.033  88.007  38.228  1.00  0.00     0.167 HD
BRANCH  22  24
HETATM   24  C   UNL     1      60.344  86.005  38.093  1.00  0.00     0.034 A 
HETATM   25  C   UNL     1      60.693  85.253  39.215  1.00  0.00     0.045 A 
HETATM   26  C   UNL     1      61.516  84.136  39.077  1.00  0.00     0.050 A 
HETATM   27  C   UNL     1      61.990  83.769  37.818  1.00  0.00     0.016 A 
HETATM   28  C   UNL     1      61.641  84.521  36.696  1.00  0.00     0.003 A 
HETATM   29  C   UNL     1      60.818  85.638  36.833  1.00  0.00     0.029 A 
BRANCH  26  30
HETATM   30  C   UNL     1      61.890  83.331  40.277  1.00  0.00     0.417 C 
HETATM   31  F   UNL     1      62.817  83.937  41.075  1.00  0.00    -0.166 F 
HETATM   32  F   UNL     1      60.836  83.058  41.101  1.00  0.00    -0.166 F 
HETATM   33  F   UNL     1      62.424  82.118  39.950  1.00  0.00    -0.166 F 
ENDBRANCH  26  30
ENDBRANCH  22  24
ENDBRANCH   5  22
TORSDOF 7
ENDMDL
MODEL 3
REMARK VINA RESULT:      -8.4      3.679      5.260
REMARK  7 active torsions:
REMARK  status: ('A' for Active; 'I' for Inactive)
REMARK       I    between atoms: N_5  and  C_13 
REMARK    1  A    between atoms: N_5  and  C_14 
REMARK    2  A    between atoms: N_6  and  C_17 
REMARK    3  A    between atoms: N_6  and  C_20 
REMARK    4  A    between atoms: N_7  and  C_21 
REMARK    5  A    between atoms: N_7  and  C_23 
REMARK    6  A    between atoms: C_10  and  C_13 
REMARK    7  A    between atoms: C_24  and  C_29 
ROOT
HETATM    1  N   UNL     1      58.498  88.467  35.356  1.00  0.00    -0.224 NA
HETATM    2  N   UNL     1      56.218  88.791  36.066  1.00  0.00    -0.224 NA
HETATM    3  C   UNL     1      58.099  88.709  34.090  1.00  0.00     0.133 A 
HETATM    4  C   UNL     1      56.796  88.997  33.738  1.00  0.00     0.100 A 
HETATM    5  C   UNL     1      55.881  89.025  34.776  1.00  0.00     0.133 A 
HETATM    6  C   UNL     1      57.520  88.522  36.280  1.00  0.00     0.237 A 
ENDROOT
BRANCH   3   7
HETATM    7  N   UNL     1      59.062  88.671  33.052  1.00  0.00    -0.341 N 
HETATM    8  H   UNL     1      58.961  89.425  32.378  1.00  0.00     0.167 HD
BRANCH   7   9
HETATM    9  C   UNL     1      60.128  87.798  32.780  1.00  0.00     0.035 A 
HETATM   10  C   UNL     1      59.902  86.424  32.662  1.00  0.00     0.059 A 
HETATM   11  C   UNL     1      60.961  85.559  32.391  1.00  0.00     0.036 A 
HETATM   12  C   UNL     1      62.252  86.064  32.236  1.00  0.00     0.029 A 
HETATM   13  C   UNL     1      62.484  87.434  32.353  1.00  0.00     0.004 A 
HETATM   14  C   UNL     1      61.424  88.299  32.625  1.00  0.00     0.029 A 
BRANCH  11  15
HETATM   15  N   UNL     1      60.730  84.187  32.274  1.00  0.00    -0.327 N 
HETATM   16  C   UNL     1      60.628  83.240  33.295  1.00  0.00     0.226 C 
HETATM   17  O   UNL     1      60.721  83.425  34.502  1.00  0.00    -0.273 OA
HETATM   18  H   UNL     1      60.630  83.845  31.321  1.00  0.00     0.169 HD
BRANCH  16  19
HETATM   19  C   UNL     1      60.373  81.848  32.807  1.00  0.00     0.078 A 
HETATM   20  C   UNL     1      59.287  81.062  33.452  1.00  0.00     0.015 A 
HETATM   21  C   UNL     1      60.724  80.713  33.703  1.00  0.00     0.015 A 
ENDBRANCH  16  19
ENDBRANCH  11  15
ENDBRANCH   7   9
ENDBRANCH   3   7
BRANCH   5  22
HETATM   22  N   UNL     1      54.540  89.315  34.460  1.00  0.00    -0.341 N 
HETATM   23  H   UNL     1      53.964  88.480  34.380  1.00  0.00     0.167 HD
BRANCH  22  24
HETATM   24  C   UNL     1      53.911  90.458  33.925  1.00  0.00     0.034 A 
HETATM   25  C   UNL     1      52.934  91.128  34.662  1.00  0.00     0.045 A 
HETATM   26  C   UNL     1      52.314  92.259  34.133  1.00  0.00     0.050 A 
HETATM   27  C   UNL     1      52.670  92.721  32.867  1.00  0.00     0.016 A 
HETATM   28  C   UNL     1      53.646  92.053  32.128  1.00  0.00     0.003 A 
HETATM   29  C   UNL     1      54.267  90.921  32.658  1.00  0.00     0.029 A 
BRANCH  26  30
HETATM   30  C   UNL     1      51.269  92.975  34.922  1.00  0.00     0.417 C 
HETATM   31  F   UNL     1      50.186  93.352  34.180  1.00  0.00    -0.166 F 
HETATM   32  F   UNL     1      50.757  92.234  35.949  1.00  0.00    -0.166 F 
HETATM   33  F   UNL     1      51.738  94.122  35.495  1.00  0.00    -0.166 F 
ENDBRANCH  26  30
ENDBRANCH  22  24
ENDBRANCH   5  22
TORSDOF 7
ENDMDL
MODEL 4
REMARK VINA RESULT:      -8.3      1.755      3.151
REMARK  7 active torsions:
REMARK  status: ('A' for Active; 'I' for Inactive)
REMARK       I    between atoms: N_5  and  C_13 
REMARK    1  A    between atoms: N_5  and  C_14 
REMARK    2  A    between atoms: N_6  and  C_17 
REMARK    3  A    between atoms: N_6  and  C_20 
REMARK    4  A    between atoms: N_7  and  C_21 
REMARK    5  A    between atoms: N_7  and  C_23 
REMARK    6  A    between atoms: C_10  and  C_13 
REMARK    7  A    between atoms: C_24  and  C_29 
ROOT
HETATM    1  N   UNL     1      58.642  89.294  35.343  1.00  0.00    -0.224 NA
HETATM    2  N   UNL     1      56.825  90.637  34.505  1.00  0.00    -0.224 NA
HETATM    3  C   UNL     1      57.761  88.291  35.539  1.00  0.00     0.133 A 
HETATM    4  C   UNL     1      56.415  88.384  35.245  1.00  0.00     0.100 A 
HETATM    5  C   UNL     1      55.992  89.593  34.724  1.00  0.00     0.133 A 
HETATM    6  C   UNL     1      58.113  90.422  34.832  1.00  0.00     0.237 A 
ENDROOT
BRANCH   3   7
HETATM    7  N   UNL     1      58.229  87.066  36.074  1.00  0.00    -0.341 N 
HETATM    8  H   UNL     1      58.116  86.278  35.443  1.00  0.00     0.167 HD
BRANCH   7   9
HETATM    9  C   UNL     1      58.823  86.735  37.304  1.00  0.00     0.035 A 
HETATM   10  C   UNL     1      58.027  86.431  38.411  1.00  0.00     0.059 A 
HETATM   11  C   UNL     1      58.617  86.101  39.630  1.00  0.00     0.036 A 
HETATM   12  C   UNL     1      60.007  86.073  39.748  1.00  0.00     0.029 A 
HETATM   13  C   UNL     1      60.806  86.375  38.645  1.00  0.00     0.004 A 
HETATM   14  C   UNL     1      60.215  86.706  37.426  1.00  0.00     0.029 A 
BRANCH  11  15
HETATM   15  N   UNL     1      57.818  85.797  40.734  1.00  0.00    -0.327 N 
HETATM   16  C   UNL     1      56.601  86.375  41.101  1.00  0.00     0.226 C 
HETATM   17  O   UNL     1      55.990  87.266  40.526  1.00  0.00    -0.273 OA
HETATM   18  H   UNL     1      58.180  85.066  41.343  1.00  0.00     0.169 HD
BRANCH  16  19
HETATM   19  C   UNL     1      56.012  85.803  42.353  1.00  0.00     0.078 A 
HETATM   20  C   UNL     1      55.326  86.727  43.296  1.00  0.00     0.015 A 
HETATM   21  C   UNL     1      56.659  86.137  43.651  1.00  0.00     0.015 A 
ENDBRANCH  16  19
ENDBRANCH  11  15
ENDBRANCH   7   9
ENDBRANCH   3   7
BRANCH   5  22
HETATM   22  N   UNL     1      54.626  89.729  34.411  1.00  0.00    -0.341 N 
HETATM   23  H   UNL     1      54.150  88.834  34.323  1.00  0.00     0.167 HD
BRANCH  22  24
HETATM   24  C   UNL     1      53.867  90.797  33.889  1.00  0.00     0.034 A 
HETATM   25  C   UNL     1      52.887  91.406  34.672  1.00  0.00     0.045 A 
HETATM   26  C   UNL     1      52.139  92.464  34.156  1.00  0.00     0.050 A 
HETATM   27  C   UNL     1      52.371  92.912  32.855  1.00  0.00     0.016 A 
HETATM   28  C   UNL     1      53.351  92.303  32.072  1.00  0.00     0.003 A 
HETATM   29  C   UNL     1      54.099  91.246  32.589  1.00  0.00     0.029 A 
BRANCH  26  30
HETATM   30  C   UNL     1      51.090  93.115  34.993  1.00  0.00     0.417 C 
HETATM   31  F   UNL     1      50.608  92.315  35.989  1.00  0.00    -0.166 F 
HETATM   32  F   UNL     1      51.520  94.248  35.623  1.00  0.00    -0.166 F 
HETATM   33  F   UNL     1      49.998  93.493  34.266  1.00  0.00    -0.166 F 
ENDBRANCH  26  30
ENDBRANCH  22  24
ENDBRANCH   5  22
TORSDOF 7
ENDMDL
MODEL 5
REMARK VINA RESULT:      -8.3      3.460      4.865
REMARK  7 active torsions:
REMARK  status: ('A' for Active; 'I' for Inactive)
REMARK       I    between atoms: N_5  and  C_13 
REMARK    1  A    between atoms: N_5  and  C_14 
REMARK    2  A    between atoms: N_6  and  C_17 
REMARK    3  A    between atoms: N_6  and  C_20 
REMARK    4  A    between atoms: N_7  and  C_21 
REMARK    5  A    between atoms: N_7  and  C_23 
REMARK    6  A    between atoms: C_10  and  C_13 
REMARK    7  A    between atoms: C_24  and  C_29 
ROOT
HETATM    1  N   UNL     1      57.394  88.260  38.309  1.00  0.00    -0.224 NA
HETATM    2  N   UNL     1      55.233  88.083  37.257  1.00  0.00    -0.224 NA
HETATM    3  C   UNL     1      57.904  88.624  37.115  1.00  0.00     0.133 A 
HETATM    4  C   UNL     1      57.153  88.739  35.963  1.00  0.00     0.100 A 
HETATM    5  C   UNL     1      55.805  88.453  36.088  1.00  0.00     0.133 A 
HETATM    6  C   UNL     1      56.071  88.007  38.309  1.00  0.00     0.237 A 
ENDROOT
BRANCH   3   7
HETATM    7  N   UNL     1      59.288  88.909  37.022  1.00  0.00    -0.341 N 
HETATM    8  H   UNL     1      59.656  89.397  37.834  1.00  0.00     0.167 HD
BRANCH   7   9
HETATM    9  C   UNL     1      60.247  88.640  36.031  1.00  0.00     0.035 A 
HETATM   10  C   UNL     1      60.389  87.347  35.520  1.00  0.00     0.059 A 
HETATM   11  C   UNL     1      61.340  87.082  34.536  1.00  0.00     0.036 A 
HETATM   12  C   UNL     1      62.154  88.109  34.057  1.00  0.00     0.029 A 
HETATM   13  C   UNL     1      62.017  89.401  34.564  1.00  0.00     0.004 A 
HETATM   14  C   UNL     1      61.066  89.666  35.550  1.00  0.00     0.029 A 
BRANCH  11  15
HETATM   15  N   UNL     1      61.477  85.790  34.027  1.00  0.00    -0.327 N 
HETATM   16  C   UNL     1      60.761  85.193  32.987  1.00  0.00     0.226 C 
HETATM   17  O   UNL     1      59.868  85.686  32.311  1.00  0.00    -0.273 OA
HETATM   18  H   UNL     1      62.185  85.218  34.482  1.00  0.00     0.169 HD
BRANCH  16  19
HETATM   19  C   UNL     1      61.171  83.782  32.701  1.00  0.00     0.078 A 
HETATM   20  C   UNL     1      60.135  82.830  32.217  1.00  0.00     0.015 A 
HETATM   21  C   UNL     1      60.683  82.708  33.609  1.00  0.00     0.015 A 
ENDBRANCH  16  19
ENDBRANCH  11  15
ENDBRANCH   7   9
ENDBRANCH   3   7
BRANCH   5  22
HETATM   22  N   UNL     1      55.003  88.558  34.935  1.00  0.00    -0.341 N 
HETATM   23  H   UNL     1      54.952  87.689  34.409  1.00  0.00     0.167 HD
BRANCH  22  24
HETATM   24  C   UNL     1      54.531  89.664  34.198  1.00  0.00     0.034 A 
HETATM   25  C   UNL     1      53.454  90.412  34.673  1.00  0.00     0.045 A 
HETATM   26  C   UNL     1      52.989  91.506  33.945  1.00  0.00     0.050 A 
HETATM   27  C   UNL     1      53.602  91.853  32.740  1.00  0.00     0.016 A 
HETATM   28  C   UNL     1      54.678  91.105  32.264  1.00  0.00     0.003 A 
HETATM   29  C   UNL     1      55.144  90.011  32.994  1.00  0.00     0.029 A 
BRANCH  26  30
HETATM   30  C   UNL     1      51.837  92.306  34.453  1.00  0.00     0.417 C 
HETATM   31  F   UNL     1      52.204  93.482  35.041  1.00  0.00    -0.166 F 
HETATM   32  F   UNL     1      50.945  92.657  33.480  1.00  0.00    -0.166 F 
HETATM   33  F   UNL     1      51.108  91.637  35.394  1.00  0.00    -0.166 F 
ENDBRANCH  26  30
ENDBRANCH  22  24
ENDBRANCH   5  22
TORSDOF 7
ENDMDL
MODEL 6
REMARK VINA RESULT:      -8.3      4.909      9.572
REMARK  7 active torsions:
REMARK  status: ('A' for Active; 'I' for Inactive)
REMARK       I    between atoms: N_5  and  C_13 
REMARK    1  A    between atoms: N_5  and  C_14 
REMARK    2  A    between atoms: N_6  and  C_17 
REMARK    3  A    between atoms: N_6  and  C_20 
REMARK    4  A    between atoms: N_7  and  C_21 
REMARK    5  A    between atoms: N_7  and  C_23 
REMARK    6  A    between atoms: C_10  and  C_13 
REMARK    7  A    between atoms: C_24  and  C_29 
ROOT
HETATM    1  N   UNL     1      56.010  87.040  37.592  1.00  0.00    -0.224 NA
HETATM    2  N   UNL     1      58.168  87.120  38.662  1.00  0.00    -0.224 NA
HETATM    3  C   UNL     1      56.584  87.546  36.481  1.00  0.00     0.133 A 
HETATM    4  C   UNL     1      57.924  87.860  36.385  1.00  0.00     0.100 A 
HETATM    5  C   UNL     1      58.683  87.626  37.517  1.00  0.00     0.133 A 
HETATM    6  C   UNL     1      56.848  86.856  38.630  1.00  0.00     0.237 A 
ENDROOT
BRANCH   3   7
HETATM    7  N   UNL     1      55.777  87.774  35.339  1.00  0.00    -0.341 N 
HETATM    8  H   UNL     1      55.321  86.935  34.991  1.00  0.00     0.167 HD
BRANCH   7   9
HETATM    9  C   UNL     1      55.481  88.934  34.604  1.00  0.00     0.035 A 
HETATM   10  C   UNL     1      54.328  89.672  34.885  1.00  0.00     0.059 A 
HETATM   11  C   UNL     1      54.036  90.823  34.155  1.00  0.00     0.036 A 
HETATM   12  C   UNL     1      54.897  91.243  33.140  1.00  0.00     0.029 A 
HETATM   13  C   UNL     1      56.049  90.510  32.855  1.00  0.00     0.004 A 
HETATM   14  C   UNL     1      56.340  89.357  33.585  1.00  0.00     0.029 A 
BRANCH  11  15
HETATM   15  N   UNL     1      52.884  91.557  34.440  1.00  0.00    -0.327 N 
HETATM   16  C   UNL     1      52.167  92.400  33.588  1.00  0.00     0.226 C 
HETATM   17  O   UNL     1      52.406  92.662  32.416  1.00  0.00    -0.273 OA
HETATM   18  H   UNL     1      52.535  91.465  35.392  1.00  0.00     0.169 HD
BRANCH  16  19
HETATM   19  C   UNL     1      50.971  93.033  34.228  1.00  0.00     0.078 A 
HETATM   20  C   UNL     1      51.018  94.489  34.527  1.00  0.00     0.015 A 
HETATM   21  C   UNL     1      51.086  93.487  35.641  1.00  0.00     0.015 A 
ENDBRANCH  16  19
ENDBRANCH  11  15
ENDBRANCH   7   9
ENDBRANCH   3   7
BRANCH   5  22
HETATM   22  N   UNL     1      60.056  87.932  37.461  1.00  0.00    -0.341 N 
HETATM   23  H   UNL     1      60.603  87.427  38.155  1.00  0.00     0.167 HD
BRANCH  22  24
HETATM   24  C   UNL     1      60.773  88.999  36.881  1.00  0.00     0.034 A 
HETATM   25  C   UNL     1      60.682  89.239  35.510  1.00  0.00     0.045 A 
HETATM   26  C   UNL     1      61.390  90.295  34.938  1.00  0.00     0.050 A 
HETATM   27  C   UNL     1      62.190  91.112  35.737  1.00  0.00     0.016 A 
HETATM   28  C   UNL     1      62.282  90.873  37.108  1.00  0.00     0.003 A 
HETATM   29  C   UNL     1      61.574  89.816  37.680  1.00  0.00     0.029 A 
BRANCH  26  30
HETATM   30  C   UNL     1      61.293  90.552  33.472  1.00  0.00     0.417 C 
HETATM   31  F   UNL     1      60.152  90.062  32.904  1.00  0.00    -0.166 F 
HETATM   32  F   UNL     1      61.311  91.878  33.147  1.00  0.00    -0.166 F 
HETATM   33  F   UNL     1      62.321  89.990  32.771  1.00  0.00    -0.166 F 
ENDBRANCH  26  30
ENDBRANCH  22  24
ENDBRANCH   5  22
TORSDOF 7
ENDMDL
MODEL 7
REMARK VINA RESULT:      -8.1      5.186     10.314
REMARK  7 active torsions:
REMARK  status: ('A' for Active; 'I' for Inactive)
REMARK       I    between atoms: N_5  and  C_13 
REMARK    1  A    between atoms: N_5  and  C_14 
REMARK    2  A    between atoms: N_6  and  C_17 
REMARK    3  A    between atoms: N_6  and  C_20 
REMARK    4  A    between atoms: N_7  and  C_21 
REMARK    5  A    between atoms: N_7  and  C_23 
REMARK    6  A    between atoms: C_10  and  C_13 
REMARK    7  A    between atoms: C_24  and  C_29 
ROOT
HETATM    1  N   UNL     1      55.364  87.641  38.040  1.00  0.00    -0.224 NA
HETATM    2  N   UNL     1      57.317  87.191  39.378  1.00  0.00    -0.224 NA
HETATM    3  C   UNL     1      56.147  87.577  36.943  1.00  0.00     0.133 A 
HETATM    4  C   UNL     1      57.504  87.327  36.983  1.00  0.00     0.100 A 
HETATM    5  C   UNL     1      58.048  87.139  38.241  1.00  0.00     0.133 A 
HETATM    6  C   UNL     1      56.005  87.443  39.208  1.00  0.00     0.237 A 
ENDROOT
BRANCH   3   7
HETATM    7  N   UNL     1      55.556  87.775  35.671  1.00  0.00    -0.341 N 
HETATM    8  H   UNL     1      54.998  86.987  35.357  1.00  0.00     0.167 HD
BRANCH   7   9
HETATM    9  C   UNL     1      55.589  88.851  34.768  1.00  0.00     0.035 A 
HETATM   10  C   UNL     1      54.725  89.936  34.934  1.00  0.00     0.059 A 
HETATM   11  C   UNL     1      54.759  91.004  34.037  1.00  0.00     0.036 A 
HETATM   12  C   UNL     1      55.659  90.991  32.971  1.00  0.00     0.029 A 
HETATM   13  C   UNL     1      56.524  89.911  32.802  1.00  0.00     0.004 A 
HETATM   14  C   UNL     1      56.489  88.842  33.698  1.00  0.00     0.029 A 
BRANCH  11  15
HETATM   15  N   UNL     1      53.894  92.086  34.207  1.00  0.00    -0.327 N 
HETATM   16  C   UNL     1      52.504  92.108  34.068  1.00  0.00     0.226 C 
HETATM   17  O   UNL     1      51.765  91.179  33.770  1.00  0.00    -0.273 OA
HETATM   18  H   UNL     1      54.343  92.964  34.457  1.00  0.00     0.169 HD
BRANCH  16  19
HETATM   19  C   UNL     1      51.891  93.449  34.326  1.00  0.00     0.078 A 
HETATM   20  C   UNL     1      51.217  93.677  35.633  1.00  0.00     0.015 A 
HETATM   21  C   UNL     1      50.407  93.547  34.377  1.00  0.00     0.015 A 
ENDBRANCH  16  19
ENDBRANCH  11  15
ENDBRANCH   7   9
ENDBRANCH   3   7
BRANCH   5  22
HETATM   22  N   UNL     1      59.429  86.881  38.324  1.00  0.00    -0.341 N 
HETATM   23  H   UNL     1      59.958  87.673  38.683  1.00  0.00     0.167 HD
BRANCH  22  24
HETATM   24  C   UNL     1      60.256  85.905  37.731  1.00  0.00     0.034 A 
HETATM   25  C   UNL     1      60.154  85.639  36.365  1.00  0.00     0.045 A 
HETATM   26  C   UNL     1      60.973  84.675  35.779  1.00  0.00     0.050 A 
HETATM   27  C   UNL     1      61.894  83.975  36.558  1.00  0.00     0.016 A 
HETATM   28  C   UNL     1      61.996  84.239  37.924  1.00  0.00     0.003 A 
HETATM   29  C   UNL     1      61.177  85.204  38.510  1.00  0.00     0.029 A 
BRANCH  26  30
HETATM   30  C   UNL     1      60.865  84.391  34.318  1.00  0.00     0.417 C 
HETATM   31  F   UNL     1      61.094  85.482  33.530  1.00  0.00    -0.166 F 
HETATM   32  F   UNL     1      61.744  83.443  33.880  1.00  0.00    -0.166 F 
HETATM   33  F   UNL     1      59.627  83.936  33.962  1.00  0.00    -0.166 F 
ENDBRANCH  26  30
ENDBRANCH  22  24
ENDBRANCH   5  22
TORSDOF 7
ENDMDL
MODEL 8
REMARK VINA RESULT:      -8.1      5.795     11.280
REMARK  7 active torsions:
REMARK  status: ('A' for Active; 'I' for Inactive)
REMARK       I    between atoms: N_5  and  C_13 
REMARK    1  A    between atoms: N_5  and  C_14 
REMARK    2  A    between atoms: N_6  and  C_17 
REMARK    3  A    between atoms: N_6  and  C_20 
REMARK    4  A    between atoms: N_7  and  C_21 
REMARK    5  A    between atoms: N_7  and  C_23 
REMARK    6  A    between atoms: C_10  and  C_13 
REMARK    7  A    between atoms: C_24  and  C_29 
ROOT
HETATM    1  N   UNL     1      56.428  86.830  38.712  1.00  0.00    -0.224 NA
HETATM    2  N   UNL     1      58.039  86.277  40.416  1.00  0.00    -0.224 NA
HETATM    3  C   UNL     1      57.434  86.835  37.814  1.00  0.00     0.133 A 
HETATM    4  C   UNL     1      58.751  86.575  38.137  1.00  0.00     0.100 A 
HETATM    5  C   UNL     1      59.004  86.298  39.468  1.00  0.00     0.133 A 
HETATM    6  C   UNL     1      56.796  86.548  39.977  1.00  0.00     0.237 A 
ENDROOT
BRANCH   3   7
HETATM    7  N   UNL     1      57.139  87.124  36.459  1.00  0.00    -0.341 N 
HETATM    8  H   UNL     1      56.814  86.316  35.935  1.00  0.00     0.167 HD
BRANCH   7   9
HETATM    9  C   UNL     1      57.202  88.308  35.707  1.00  0.00     0.035 A 
HETATM   10  C   UNL     1      56.034  89.010  35.398  1.00  0.00     0.059 A 
HETATM   11  C   UNL     1      56.098  90.186  34.652  1.00  0.00     0.036 A 
HETATM   12  C   UNL     1      57.331  90.666  34.211  1.00  0.00     0.029 A 
HETATM   13  C   UNL     1      58.500  89.969  34.516  1.00  0.00     0.004 A 
HETATM   14  C   UNL     1      58.436  88.792  35.262  1.00  0.00     0.029 A 
BRANCH  11  15
HETATM   15  N   UNL     1      54.928  90.884  34.348  1.00  0.00    -0.327 N 
HETATM   16  C   UNL     1      54.268  90.964  33.120  1.00  0.00     0.226 C 
HETATM   17  O   UNL     1      54.584  90.434  32.062  1.00  0.00    -0.273 OA
HETATM   18  H   UNL     1      54.517  91.401  35.122  1.00  0.00     0.169 HD
BRANCH  16  19
HETATM   19  C   UNL     1      53.031  91.807  33.151  1.00  0.00     0.078 A 
HETATM   20  C   UNL     1      52.700  92.527  34.410  1.00  0.00     0.015 A 
HETATM   21  C   UNL     1      51.884  91.344  33.978  1.00  0.00     0.015 A 
ENDBRANCH  16  19
ENDBRANCH  11  15
ENDBRANCH   7   9
ENDBRANCH   3   7
BRANCH   5  22
HETATM   22  N   UNL     1      60.335  86.026  39.838  1.00  0.00    -0.341 N 
HETATM   23  H   UNL     1      61.014  86.519  39.263  1.00  0.00     0.167 HD
BRANCH  22  24
HETATM   24  C   UNL     1      60.922  84.996  40.602  1.00  0.00     0.034 A 
HETATM   25  C   UNL     1      61.101  85.160  41.976  1.00  0.00     0.045 A 
HETATM   26  C   UNL     1      61.679  84.141  42.731  1.00  0.00     0.050 A 
HETATM   27  C   UNL     1      62.081  82.957  42.112  1.00  0.00     0.016 A 
HETATM   28  C   UNL     1      61.903  82.792  40.739  1.00  0.00     0.003 A 
HETATM   29  C   UNL     1      61.324  83.812  39.984  1.00  0.00     0.029 A 
BRANCH  26  30
HETATM   30  C   UNL     1      61.870  84.316  44.200  1.00  0.00     0.417 C 
HETATM   31  F   UNL     1      62.563  83.297  44.788  1.00  0.00    -0.166 F 
HETATM   32  F   UNL     1      62.556  85.450  44.530  1.00  0.00    -0.166 F 
HETATM   33  F   UNL     1      60.687  84.393  44.878  1.00  0.00    -0.166 F 
ENDBRANCH  26  30
ENDBRANCH  22  24
ENDBRANCH   5  22
TORSDOF 7
ENDMDL
MODEL 9
REMARK VINA RESULT:      -8.0      3.325      4.258
REMARK  7 active torsions:
REMARK  status: ('A' for Active; 'I' for Inactive)
REMARK       I    between atoms: N_5  and  C_13 
REMARK    1  A    between atoms: N_5  and  C_14 
REMARK    2  A    between atoms: N_6  and  C_17 
REMARK    3  A    between atoms: N_6  and  C_20 
REMARK    4  A    between atoms: N_7  and  C_21 
REMARK    5  A    between atoms: N_7  and  C_23 
REMARK    6  A    between atoms: C_10  and  C_13 
REMARK    7  A    between atoms: C_24  and  C_29 
ROOT
HETATM    1  N   UNL     1      57.203  87.835  38.759  1.00  0.00    -0.224 NA
HETATM    2  N   UNL     1      55.206  88.130  37.443  1.00  0.00    -0.224 NA
HETATM    3  C   UNL     1      57.911  87.811  37.610  1.00  0.00     0.133 A 
HETATM    4  C   UNL     1      57.346  87.940  36.358  1.00  0.00     0.100 A 
HETATM    5  C   UNL     1      55.972  88.098  36.328  1.00  0.00     0.133 A 
HETATM    6  C   UNL     1      55.875  87.994  38.604  1.00  0.00     0.237 A 
ENDROOT
BRANCH   3   7
HETATM    7  N   UNL     1      59.316  87.647  37.679  1.00  0.00    -0.341 N 
HETATM    8  H   UNL     1      59.822  88.522  37.778  1.00  0.00     0.167 HD
BRANCH   7   9
HETATM    9  C   UNL     1      60.140  86.510  37.642  1.00  0.00     0.035 A 
HETATM   10  C   UNL     1      60.476  85.922  36.419  1.00  0.00     0.059 A 
HETATM   11  C   UNL     1      61.295  84.794  36.385  1.00  0.00     0.036 A 
HETATM   12  C   UNL     1      61.783  84.249  37.572  1.00  0.00     0.029 A 
HETATM   13  C   UNL     1      61.451  84.831  38.795  1.00  0.00     0.004 A 
HETATM   14  C   UNL     1      60.630  85.959  38.830  1.00  0.00     0.029 A 
BRANCH  11  15
HETATM   15  N   UNL     1      61.629  84.211  35.161  1.00  0.00    -0.327 N 
HETATM   16  C   UNL     1      60.770  83.671  34.202  1.00  0.00     0.226 C 
HETATM   17  O   UNL     1      59.548  83.601  34.243  1.00  0.00    -0.273 OA
HETATM   18  H   UNL     1      62.625  84.176  34.955  1.00  0.00     0.169 HD
BRANCH  16  19
HETATM   19  C   UNL     1      61.473  83.125  32.998  1.00  0.00     0.078 A 
HETATM   20  C   UNL     1      60.904  81.922  32.333  1.00  0.00     0.015 A 
HETATM   21  C   UNL     1      62.175  81.819  33.124  1.00  0.00     0.015 A 
ENDBRANCH  16  19
ENDBRANCH  11  15
ENDBRANCH   7   9
ENDBRANCH   3   7
BRANCH   5  22
HETATM   22  N   UNL     1      55.356  88.233  35.069  1.00  0.00    -0.341 N 
HETATM   23  H   UNL     1      55.411  87.385  34.509  1.00  0.00     0.167 HD
BRANCH  22  24
HETATM   24  C   UNL     1      54.974  89.357  34.308  1.00  0.00     0.034 A 
HETATM   25  C   UNL     1      53.826  90.073  34.647  1.00  0.00     0.045 A 
HETATM   26  C   UNL     1      53.451  91.186  33.895  1.00  0.00     0.050 A 
HETATM   27  C   UNL     1      54.223  91.583  32.804  1.00  0.00     0.016 A 
HETATM   28  C   UNL     1      55.371  90.868  32.464  1.00  0.00     0.003 A 
HETATM   29  C   UNL     1      55.747  89.755  33.217  1.00  0.00     0.029 A 
BRANCH  26  30
HETATM   30  C   UNL     1      52.223  91.952  34.257  1.00  0.00     0.417 C 
HETATM   31  F   UNL     1      51.519  92.402  33.177  1.00  0.00    -0.166 F 
HETATM   32  F   UNL     1      51.326  91.230  34.991  1.00  0.00    -0.166 F 
HETATM   33  F   UNL     1      52.497  93.062  35.003  1.00  0.00    -0.166 F 
ENDBRANCH  26  30
ENDBRANCH  22  24
ENDBRANCH   5  22
TORSDOF 7
ENDMDL
