MODEL 1
REMARK VINA RESULT:      -8.6      0.000      0.000
REMARK  7 active torsions:
REMARK  status: ('A' for Active; 'I' for Inactive)
REMARK       I    between atoms: N_5  and  C_13 
REMARK    1  A    between atoms: N_5  and  C_14 
REMARK    2  A    between atoms: N_6  and  C_17 
REMARK    3  A    between atoms: N_6  and  C_20 
REMARK    4  A    between atoms: N_7  and  C_21 
REMARK    5  A    between atoms: N_7  and  C_23 
REMARK    6  A    between atoms: C_10  and  C_13 
REMARK    7  A    between atoms: C_24  and  C_29 
ROOT
HETATM    1  N   UNL     1      58.255  88.596  35.508  1.00  0.00    -0.224 NA
HETATM    2  N   UNL     1      55.900  88.844  35.959  1.00  0.00    -0.224 NA
HETATM    3  C   UNL     1      57.997  88.869  34.212  1.00  0.00     0.133 A 
HETATM    4  C   UNL     1      56.736  89.137  33.721  1.00  0.00     0.100 A 
HETATM    5  C   UNL     1      55.708  89.112  34.646  1.00  0.00     0.133 A 
HETATM    6  C   UNL     1      57.176  88.599  36.314  1.00  0.00     0.237 A 
ENDROOT
BRANCH   3   7
HETATM    7  N   UNL     1      59.074  88.886  33.292  1.00  0.00    -0.341 N 
HETATM    8  H   UNL     1      59.185  89.776  32.815  1.00  0.00     0.167 HD
BRANCH   7   9
HETATM    9  C   UNL     1      60.017  87.914  32.918  1.00  0.00     0.035 A 
HETATM   10  C   UNL     1      59.652  86.566  32.855  1.00  0.00     0.059 A 
HETATM   11  C   UNL     1      60.588  85.603  32.483  1.00  0.00     0.036 A 
HETATM   12  C   UNL     1      61.894  85.982  32.171  1.00  0.00     0.029 A 
HETATM   13  C   UNL     1      62.263  87.326  32.232  1.00  0.00     0.004 A 
HETATM   14  C   UNL     1      61.326  88.289  32.606  1.00  0.00     0.029 A 
BRANCH  11  15
HETATM   15  N   UNL     1      60.219  84.258  32.420  1.00  0.00    -0.327 N 
HETATM   16  C   UNL     1      60.089  83.351  33.474  1.00  0.00     0.226 C 
HETATM   17  O   UNL     1      60.272  83.555  34.667  1.00  0.00    -0.273 OA
HETATM   18  H   UNL     1      60.030  83.903  31.485  1.00  0.00     0.169 HD
BRANCH  16  19
HETATM   19  C   UNL     1      59.673  81.979  33.044  1.00  0.00     0.078 A 
HETATM   20  C   UNL     1      60.256  80.809  33.756  1.00  0.00     0.015 A 
HETATM   21  C   UNL     1      60.674  81.124  32.349  1.00  0.00     0.015 A 
ENDBRANCH  16  19
ENDBRANCH  11  15
ENDBRANCH   7   9
ENDBRANCH   3   7
BRANCH   5  22
HETATM   22  N   UNL     1      54.405  89.381  34.185  1.00  0.00    -0.341 N 
HETATM   23  H   UNL     1      53.910  88.542  33.889  1.00  0.00     0.167 HD
BRANCH  22  24
HETATM   24  C   UNL     1      53.770  90.563  33.753  1.00  0.00     0.034 A 
HETATM   25  C   UNL     1      52.812  91.177  34.560  1.00  0.00     0.045 A 
HETATM   26  C   UNL     1      52.187  92.348  34.132  1.00  0.00     0.050 A 
HETATM   27  C   UNL     1      52.518  92.905  32.897  1.00  0.00     0.016 A 
HETATM   28  C   UNL     1      53.475  92.291  32.089  1.00  0.00     0.003 A 
HETATM   29  C   UNL     1      54.102  91.120  32.518  1.00  0.00     0.029 A 
BRANCH  26  30
HETATM   30  C   UNL     1      51.162  93.005  34.995  1.00  0.00     0.417 C 
HETATM   31  F   UNL     1      51.622  94.116  35.642  1.00  0.00    -0.166 F 
HETATM   32  F   UNL     1      50.058  93.423  34.309  1.00  0.00    -0.166 F 
HETATM   33  F   UNL     1      50.693  92.178  35.975  1.00  0.00    -0.166 F 
ENDBRANCH  26  30
ENDBRANCH  22  24
ENDBRANCH   5  22
TORSDOF 7
ENDMDL
MODEL 2
REMARK VINA RESULT:      -8.2      6.261     10.576
REMARK  7 active torsions:
REMARK  status: ('A' for Active; 'I' for Inactive)
REMARK       I    between atoms: N_5  and  C_13 
REMARK    1  A    between atoms: N_5  and  C_14 
REMARK    2  A    between atoms: N_6  and  C_17 
REMARK    3  A    between atoms: N_6  and  C_20 
REMARK    4  A    between atoms: N_7  and  C_21 
REMARK    5  A    between atoms: N_7  and  C_23 
REMARK    6  A    between atoms: C_10  and  C_13 
REMARK    7  A    between atoms: C_24  and  C_29 
ROOT
HETATM    1  N   UNL     1      55.143  87.901  37.658  1.00  0.00    -0.224 NA
HETATM    2  N   UNL     1      56.878  87.609  39.305  1.00  0.00    -0.224 NA
HETATM    3  C   UNL     1      56.090  87.824  36.701  1.00  0.00     0.133 A 
HETATM    4  C   UNL     1      57.433  87.641  36.963  1.00  0.00     0.100 A 
HETATM    5  C   UNL     1      57.780  87.539  38.299  1.00  0.00     0.133 A 
HETATM    6  C   UNL     1      55.600  87.789  38.920  1.00  0.00     0.237 A 
ENDROOT
BRANCH   3   7
HETATM    7  N   UNL     1      55.700  87.933  35.344  1.00  0.00    -0.341 N 
HETATM    8  H   UNL     1      55.638  87.038  34.867  1.00  0.00     0.167 HD
BRANCH   7   9
HETATM    9  C   UNL     1      55.376  89.036  34.537  1.00  0.00     0.035 A 
HETATM   10  C   UNL     1      54.275  89.838  34.849  1.00  0.00     0.059 A 
HETATM   11  C   UNL     1      53.956  90.934  34.048  1.00  0.00     0.036 A 
HETATM   12  C   UNL     1      54.736  91.233  32.930  1.00  0.00     0.029 A 
HETATM   13  C   UNL     1      55.836  90.436  32.615  1.00  0.00     0.004 A 
HETATM   14  C   UNL     1      56.155  89.339  33.416  1.00  0.00     0.029 A 
BRANCH  11  15
HETATM   15  N   UNL     1      52.855  91.733  34.363  1.00  0.00    -0.327 N 
HETATM   16  C   UNL     1      52.138  92.584  33.519  1.00  0.00     0.226 C 
HETATM   17  O   UNL     1      52.331  92.798  32.330  1.00  0.00    -0.273 OA
HETATM   18  H   UNL     1      52.550  91.686  35.333  1.00  0.00     0.169 HD
BRANCH  16  19
HETATM   19  C   UNL     1      51.007  93.294  34.195  1.00  0.00     0.078 A 
HETATM   20  C   UNL     1      51.313  94.520  34.981  1.00  0.00     0.015 A 
HETATM   21  C   UNL     1      50.933  93.248  35.681  1.00  0.00     0.015 A 
ENDBRANCH  16  19
ENDBRANCH  11  15
ENDBRANCH   7   9
ENDBRANCH   3   7
BRANCH   5  22
HETATM   22  N   UNL     1      59.140  87.352  38.609  1.00  0.00    -0.341 N 
HETATM   23  H   UNL     1      59.597  88.209  38.913  1.00  0.00     0.167 HD
BRANCH  22  24
HETATM   24  C   UNL     1      60.061  86.333  38.290  1.00  0.00     0.034 A 
HETATM   25  C   UNL     1      60.424  85.393  39.254  1.00  0.00     0.045 A 
HETATM   26  C   UNL     1      61.334  84.384  38.938  1.00  0.00     0.050 A 
HETATM   27  C   UNL     1      61.881  84.316  37.656  1.00  0.00     0.016 A 
HETATM   28  C   UNL     1      61.519  85.256  36.692  1.00  0.00     0.003 A 
HETATM   29  C   UNL     1      60.608  86.265  37.009  1.00  0.00     0.029 A 
BRANCH  26  30
HETATM   30  C   UNL     1      61.722  83.378  39.969  1.00  0.00     0.417 C 
HETATM   31  F   UNL     1      60.754  83.150  40.904  1.00  0.00    -0.166 F 
HETATM   32  F   UNL     1      62.013  82.149  39.450  1.00  0.00    -0.166 F 
HETATM   33  F   UNL     1      62.831  83.750  40.673  1.00  0.00    -0.166 F 
ENDBRANCH  26  30
ENDBRANCH  22  24
ENDBRANCH   5  22
TORSDOF 7
ENDMDL
MODEL 3
REMARK VINA RESULT:      -8.2      1.847      2.389
REMARK  7 active torsions:
REMARK  status: ('A' for Active; 'I' for Inactive)
REMARK       I    between atoms: N_5  and  C_13 
REMARK    1  A    between atoms: N_5  and  C_14 
REMARK    2  A    between atoms: N_6  and  C_17 
REMARK    3  A    between atoms: N_6  and  C_20 
REMARK    4  A    between atoms: N_7  and  C_21 
REMARK    5  A    between atoms: N_7  and  C_23 
REMARK    6  A    between atoms: C_10  and  C_13 
REMARK    7  A    between atoms: C_24  and  C_29 
ROOT
HETATM    1  N   UNL     1      57.254  88.102  38.434  1.00  0.00    -0.224 NA
HETATM    2  N   UNL     1      55.133  88.097  37.290  1.00  0.00    -0.224 NA
HETATM    3  C   UNL     1      57.850  88.347  37.249  1.00  0.00     0.133 A 
HETATM    4  C   UNL     1      57.165  88.478  36.058  1.00  0.00     0.100 A 
HETATM    5  C   UNL     1      55.791  88.342  36.133  1.00  0.00     0.133 A 
HETATM    6  C   UNL     1      55.913  87.989  38.382  1.00  0.00     0.237 A 
ENDROOT
BRANCH   3   7
HETATM    7  N   UNL     1      59.260  88.479  37.209  1.00  0.00    -0.341 N 
HETATM    8  H   UNL     1      59.658  88.829  38.076  1.00  0.00     0.167 HD
BRANCH   7   9
HETATM    9  C   UNL     1      60.209  88.214  36.207  1.00  0.00     0.035 A 
HETATM   10  C   UNL     1      60.300  86.939  35.643  1.00  0.00     0.059 A 
HETATM   11  C   UNL     1      61.241  86.678  34.648  1.00  0.00     0.036 A 
HETATM   12  C   UNL     1      62.096  87.691  34.213  1.00  0.00     0.029 A 
HETATM   13  C   UNL     1      62.009  88.965  34.772  1.00  0.00     0.004 A 
HETATM   14  C   UNL     1      61.068  89.226  35.769  1.00  0.00     0.029 A 
BRANCH  11  15
HETATM   15  N   UNL     1      61.328  85.403  34.087  1.00  0.00    -0.327 N 
HETATM   16  C   UNL     1      60.690  84.921  32.942  1.00  0.00     0.226 C 
HETATM   17  O   UNL     1      59.925  85.523  32.199  1.00  0.00    -0.273 OA
HETATM   18  H   UNL     1      61.929  84.750  34.584  1.00  0.00     0.169 HD
BRANCH  16  19
HETATM   19  C   UNL     1      61.012  83.494  32.624  1.00  0.00     0.078 A 
HETATM   20  C   UNL     1      59.921  82.487  32.719  1.00  0.00     0.015 A 
HETATM   21  C   UNL     1      61.020  82.509  33.740  1.00  0.00     0.015 A 
ENDBRANCH  16  19
ENDBRANCH  11  15
ENDBRANCH   7   9
ENDBRANCH   3   7
BRANCH   5  22
HETATM   22  N   UNL     1      55.054  88.469  34.939  1.00  0.00    -0.341 N 
HETATM   23  H   UNL     1      55.046  87.615  34.387  1.00  0.00     0.167 HD
BRANCH  22  24
HETATM   24  C   UNL     1      54.609  89.589  34.207  1.00  0.00     0.034 A 
HETATM   25  C   UNL     1      53.525  90.338  34.666  1.00  0.00     0.045 A 
HETATM   26  C   UNL     1      53.087  91.447  33.942  1.00  0.00     0.050 A 
HETATM   27  C   UNL     1      53.732  91.806  32.759  1.00  0.00     0.016 A 
HETATM   28  C   UNL     1      54.815  91.058  32.299  1.00  0.00     0.003 A 
HETATM   29  C   UNL     1      55.254  89.949  33.024  1.00  0.00     0.029 A 
BRANCH  26  30
HETATM   30  C   UNL     1      51.927  92.248  34.432  1.00  0.00     0.417 C 
HETATM   31  F   UNL     1      51.092  92.668  33.437  1.00  0.00    -0.166 F 
HETATM   32  F   UNL     1      51.127  91.570  35.307  1.00  0.00    -0.166 F 
HETATM   33  F   UNL     1      52.313  93.381  35.090  1.00  0.00    -0.166 F 
ENDBRANCH  26  30
ENDBRANCH  22  24
ENDBRANCH   5  22
TORSDOF 7
ENDMDL
MODEL 4
REMARK VINA RESULT:      -8.2      5.374     10.184
REMARK  7 active torsions:
REMARK  status: ('A' for Active; 'I' for Inactive)
REMARK       I    between atoms: N_5  and  C_13 
REMARK    1  A    between atoms: N_5  and  C_14 
REMARK    2  A    between atoms: N_6  and  C_17 
REMARK    3  A    between atoms: N_6  and  C_20 
REMARK    4  A    between atoms: N_7  and  C_21 
REMARK    5  A    between atoms: N_7  and  C_23 
REMARK    6  A    between atoms: C_10  and  C_13 
REMARK    7  A    between atoms: C_24  and  C_29 
ROOT
HETATM    1  N   UNL     1      55.378  87.887  37.710  1.00  0.00    -0.224 NA
HETATM    2  N   UNL     1      57.198  87.452  39.228  1.00  0.00    -0.224 NA
HETATM    3  C   UNL     1      56.240  87.718  36.686  1.00  0.00     0.133 A 
HETATM    4  C   UNL     1      57.577  87.419  36.851  1.00  0.00     0.100 A 
HETATM    5  C   UNL     1      58.013  87.295  38.158  1.00  0.00     0.133 A 
HETATM    6  C   UNL     1      55.916  87.743  38.936  1.00  0.00     0.237 A 
ENDROOT
BRANCH   3   7
HETATM    7  N   UNL     1      55.760  87.853  35.361  1.00  0.00    -0.341 N 
HETATM    8  H   UNL     1      55.609  86.964  34.892  1.00  0.00     0.167 HD
BRANCH   7   9
HETATM    9  C   UNL     1      55.447  88.975  34.575  1.00  0.00     0.035 A 
HETATM   10  C   UNL     1      54.309  89.736  34.856  1.00  0.00     0.059 A 
HETATM   11  C   UNL     1      54.001  90.851  34.076  1.00  0.00     0.036 A 
HETATM   12  C   UNL     1      54.829  91.209  33.012  1.00  0.00     0.029 A 
HETATM   13  C   UNL     1      55.966  90.453  32.728  1.00  0.00     0.004 A 
HETATM   14  C   UNL     1      56.274  89.337  33.508  1.00  0.00     0.029 A 
BRANCH  11  15
HETATM   15  N   UNL     1      52.864  91.609  34.361  1.00  0.00    -0.327 N 
HETATM   16  C   UNL     1      52.149  92.444  33.500  1.00  0.00     0.226 C 
HETATM   17  O   UNL     1      52.377  92.679  32.321  1.00  0.00    -0.273 OA
HETATM   18  H   UNL     1      52.526  91.541  35.318  1.00  0.00     0.169 HD
BRANCH  16  19
HETATM   19  C   UNL     1      50.971  93.109  34.142  1.00  0.00     0.078 A 
HETATM   20  C   UNL     1      51.143  94.488  34.675  1.00  0.00     0.015 A 
HETATM   21  C   UNL     1      51.001  93.327  35.614  1.00  0.00     0.015 A 
ENDBRANCH  16  19
ENDBRANCH  11  15
ENDBRANCH   7   9
ENDBRANCH   3   7
BRANCH   5  22
HETATM   22  N   UNL     1      59.371  86.990  38.370  1.00  0.00    -0.341 N 
HETATM   23  H   UNL     1      59.896  87.772  38.754  1.00  0.00     0.167 HD
BRANCH  22  24
HETATM   24  C   UNL     1      60.208  85.968  37.876  1.00  0.00     0.034 A 
HETATM   25  C   UNL     1      60.194  85.648  36.518  1.00  0.00     0.045 A 
HETATM   26  C   UNL     1      61.023  84.639  36.031  1.00  0.00     0.050 A 
HETATM   27  C   UNL     1      61.866  83.947  36.901  1.00  0.00     0.016 A 
HETATM   28  C   UNL     1      61.880  84.266  38.259  1.00  0.00     0.003 A 
HETATM   29  C   UNL     1      61.051  85.276  38.746  1.00  0.00     0.029 A 
BRANCH  26  30
HETATM   30  C   UNL     1      61.009  84.297  34.579  1.00  0.00     0.417 C 
HETATM   31  F   UNL     1      61.036  82.955  34.332  1.00  0.00    -0.166 F 
HETATM   32  F   UNL     1      59.905  84.758  33.920  1.00  0.00    -0.166 F 
HETATM   33  F   UNL     1      62.079  84.815  33.907  1.00  0.00    -0.166 F 
ENDBRANCH  26  30
ENDBRANCH  22  24
ENDBRANCH   5  22
TORSDOF 7
ENDMDL
MODEL 5
REMARK VINA RESULT:      -7.7      4.555      9.052
REMARK  7 active torsions:
REMARK  status: ('A' for Active; 'I' for Inactive)
REMARK       I    between atoms: N_5  and  C_13 
REMARK    1  A    between atoms: N_5  and  C_14 
REMARK    2  A    between atoms: N_6  and  C_17 
REMARK    3  A    between atoms: N_6  and  C_20 
REMARK    4  A    between atoms: N_7  and  C_21 
REMARK    5  A    between atoms: N_7  and  C_23 
REMARK    6  A    between atoms: C_10  and  C_13 
REMARK    7  A    between atoms: C_24  and  C_29 
ROOT
HETATM    1  N   UNL     1      59.753  89.627  33.778  1.00  0.00    -0.224 NA
HETATM    2  N   UNL     1      60.865  87.724  34.753  1.00  0.00    -0.224 NA
HETATM    3  C   UNL     1      58.800  89.509  34.726  1.00  0.00     0.133 A 
HETATM    4  C   UNL     1      58.811  88.538  35.707  1.00  0.00     0.100 A 
HETATM    5  C   UNL     1      59.878  87.659  35.677  1.00  0.00     0.133 A 
HETATM    6  C   UNL     1      60.741  88.714  33.849  1.00  0.00     0.237 A 
ENDROOT
BRANCH   3   7
HETATM    7  N   UNL     1      57.721  90.426  34.727  1.00  0.00    -0.341 N 
HETATM    8  H   UNL     1      57.825  91.173  35.408  1.00  0.00     0.167 HD
BRANCH   7   9
HETATM    9  C   UNL     1      56.543  90.505  33.966  1.00  0.00     0.035 A 
HETATM   10  C   UNL     1      55.403  91.116  34.495  1.00  0.00     0.059 A 
HETATM   11  C   UNL     1      54.234  91.195  33.738  1.00  0.00     0.036 A 
HETATM   12  C   UNL     1      54.201  90.664  32.448  1.00  0.00     0.029 A 
HETATM   13  C   UNL     1      55.337  90.054  31.916  1.00  0.00     0.004 A 
HETATM   14  C   UNL     1      56.505  89.974  32.674  1.00  0.00     0.029 A 
BRANCH  11  15
HETATM   15  N   UNL     1      53.098  91.806  34.269  1.00  0.00    -0.327 N 
HETATM   16  C   UNL     1      52.100  92.509  33.590  1.00  0.00     0.226 C 
HETATM   17  O   UNL     1      52.023  92.729  32.388  1.00  0.00    -0.273 OA
HETATM   18  H   UNL     1      52.996  91.729  35.279  1.00  0.00     0.169 HD
BRANCH  16  19
HETATM   19  C   UNL     1      51.018  93.035  34.480  1.00  0.00     0.078 A 
HETATM   20  C   UNL     1      51.098  94.453  34.925  1.00  0.00     0.015 A 
HETATM   21  C   UNL     1      51.356  93.339  35.897  1.00  0.00     0.015 A 
ENDBRANCH  16  19
ENDBRANCH  11  15
ENDBRANCH   7   9
ENDBRANCH   3   7
BRANCH   5  22
HETATM   22  N   UNL     1      59.927  86.653  36.661  1.00  0.00    -0.341 N 
HETATM   23  H   UNL     1      60.258  85.762  36.299  1.00  0.00     0.167 HD
BRANCH  22  24
HETATM   24  C   UNL     1      59.325  86.530  37.931  1.00  0.00     0.034 A 
HETATM   25  C   UNL     1      58.077  87.104  38.171  1.00  0.00     0.045 A 
HETATM   26  C   UNL     1      57.482  86.981  39.426  1.00  0.00     0.050 A 
HETATM   27  C   UNL     1      58.136  86.284  40.442  1.00  0.00     0.016 A 
HETATM   28  C   UNL     1      59.384  85.710  40.203  1.00  0.00     0.003 A 
HETATM   29  C   UNL     1      59.979  85.833  38.947  1.00  0.00     0.029 A 
BRANCH  26  30
HETATM   30  C   UNL     1      56.147  87.595  39.683  1.00  0.00     0.417 C 
HETATM   31  F   UNL     1      55.598  87.231  40.879  1.00  0.00    -0.166 F 
HETATM   32  F   UNL     1      56.168  88.960  39.701  1.00  0.00    -0.166 F 
HETATM   33  F   UNL     1      55.222  87.255  38.738  1.00  0.00    -0.166 F 
ENDBRANCH  26  30
ENDBRANCH  22  24
ENDBRANCH   5  22
TORSDOF 7
ENDMDL
MODEL 6
REMARK VINA RESULT:      -7.7      2.698      4.924
REMARK  7 active torsions:
REMARK  status: ('A' for Active; 'I' for Inactive)
REMARK       I    between atoms: N_5  and  C_13 
REMARK    1  A    between atoms: N_5  and  C_14 
REMARK    2  A    between atoms: N_6  and  C_17 
REMARK    3  A    between atoms: N_6  and  C_20 
REMARK    4  A    between atoms: N_7  and  C_21 
REMARK    5  A    between atoms: N_7  and  C_23 
REMARK    6  A    between atoms: C_10  and  C_13 
REMARK    7  A    between atoms: C_24  and  C_29 
ROOT
HETATM    1  N   UNL     1      61.574  86.222  32.221  1.00  0.00    -0.224 NA
HETATM    2  N   UNL     1      61.274  88.533  32.835  1.00  0.00    -0.224 NA
HETATM    3  C   UNL     1      60.369  85.959  32.767  1.00  0.00     0.133 A 
HETATM    4  C   UNL     1      59.568  86.916  33.356  1.00  0.00     0.100 A 
HETATM    5  C   UNL     1      60.073  88.204  33.365  1.00  0.00     0.133 A 
HETATM    6  C   UNL     1      61.960  87.510  32.290  1.00  0.00     0.237 A 
ENDROOT
BRANCH   3   7
HETATM    7  N   UNL     1      59.884  84.628  32.741  1.00  0.00    -0.341 N 
HETATM    8  H   UNL     1      59.083  84.501  32.128  1.00  0.00     0.167 HD
BRANCH   7   9
HETATM    9  C   UNL     1      60.299  83.455  33.392  1.00  0.00     0.035 A 
HETATM   10  C   UNL     1      59.895  82.205  32.916  1.00  0.00     0.059 A 
HETATM   11  C   UNL     1      60.309  81.041  33.562  1.00  0.00     0.036 A 
HETATM   12  C   UNL     1      61.130  81.121  34.687  1.00  0.00     0.029 A 
HETATM   13  C   UNL     1      61.537  82.366  35.166  1.00  0.00     0.004 A 
HETATM   14  C   UNL     1      61.121  83.531  34.520  1.00  0.00     0.029 A 
BRANCH  11  15
HETATM   15  N   UNL     1      59.904  79.794  33.082  1.00  0.00    -0.327 N 
HETATM   16  C   UNL     1      58.693  79.136  33.310  1.00  0.00     0.226 C 
HETATM   17  O   UNL     1      57.743  79.523  33.977  1.00  0.00    -0.273 OA
HETATM   18  H   UNL     1      60.585  79.311  32.500  1.00  0.00     0.169 HD
BRANCH  16  19
HETATM   19  C   UNL     1      58.592  77.803  32.636  1.00  0.00     0.078 A 
HETATM   20  C   UNL     1      58.595  76.581  33.485  1.00  0.00     0.015 A 
HETATM   21  C   UNL     1      59.789  76.918  32.643  1.00  0.00     0.015 A 
ENDBRANCH  16  19
ENDBRANCH  11  15
ENDBRANCH   7   9
ENDBRANCH   3   7
BRANCH   5  22
HETATM   22  N   UNL     1      59.286  89.211  33.957  1.00  0.00    -0.341 N 
HETATM   23  H   UNL     1      59.841  89.903  34.456  1.00  0.00     0.167 HD
BRANCH  22  24
HETATM   24  C   UNL     1      57.914  89.289  34.273  1.00  0.00     0.034 A 
HETATM   25  C   UNL     1      57.009  89.790  33.337  1.00  0.00     0.045 A 
HETATM   26  C   UNL     1      55.652  89.865  33.650  1.00  0.00     0.050 A 
HETATM   27  C   UNL     1      55.200  89.439  34.899  1.00  0.00     0.016 A 
HETATM   28  C   UNL     1      56.104  88.938  35.835  1.00  0.00     0.003 A 
HETATM   29  C   UNL     1      57.462  88.863  35.522  1.00  0.00     0.029 A 
BRANCH  26  30
HETATM   30  C   UNL     1      54.684  90.401  32.650  1.00  0.00     0.417 C 
HETATM   31  F   UNL     1      54.366  91.715  32.845  1.00  0.00    -0.166 F 
HETATM   32  F   UNL     1      55.133  90.331  31.362  1.00  0.00    -0.166 F 
HETATM   33  F   UNL     1      53.494  89.731  32.659  1.00  0.00    -0.166 F 
ENDBRANCH  26  30
ENDBRANCH  22  24
ENDBRANCH   5  22
TORSDOF 7
ENDMDL
MODEL 7
REMARK VINA RESULT:      -7.5      5.457     10.389
REMARK  7 active torsions:
REMARK  status: ('A' for Active; 'I' for Inactive)
REMARK       I    between atoms: N_5  and  C_13 
REMARK    1  A    between atoms: N_5  and  C_14 
REMARK    2  A    between atoms: N_6  and  C_17 
REMARK    3  A    between atoms: N_6  and  C_20 
REMARK    4  A    between atoms: N_7  and  C_21 
REMARK    5  A    between atoms: N_7  and  C_23 
REMARK    6  A    between atoms: C_10  and  C_13 
REMARK    7  A    between atoms: C_24  and  C_29 
ROOT
HETATM    1  N   UNL     1      60.564  87.282  35.246  1.00  0.00    -0.224 NA
HETATM    2  N   UNL     1      61.101  85.870  33.369  1.00  0.00    -0.224 NA
HETATM    3  C   UNL     1      59.892  86.244  35.787  1.00  0.00     0.133 A 
HETATM    4  C   UNL     1      59.783  85.006  35.187  1.00  0.00     0.100 A 
HETATM    5  C   UNL     1      60.413  84.868  33.963  1.00  0.00     0.133 A 
HETATM    6  C   UNL     1      61.135  87.029  34.053  1.00  0.00     0.237 A 
ENDROOT
BRANCH   3   7
HETATM    7  N   UNL     1      59.259  86.420  37.041  1.00  0.00    -0.341 N 
HETATM    8  H   UNL     1      59.826  86.116  37.828  1.00  0.00     0.167 HD
BRANCH   7   9
HETATM    9  C   UNL     1      58.005  86.939  37.405  1.00  0.00     0.035 A 
HETATM   10  C   UNL     1      57.152  87.466  36.432  1.00  0.00     0.059 A 
HETATM   11  C   UNL     1      55.907  87.980  36.795  1.00  0.00     0.036 A 
HETATM   12  C   UNL     1      55.509  87.968  38.132  1.00  0.00     0.029 A 
HETATM   13  C   UNL     1      56.357  87.442  39.107  1.00  0.00     0.004 A 
HETATM   14  C   UNL     1      57.603  86.930  38.744  1.00  0.00     0.029 A 
BRANCH  11  15
HETATM   15  N   UNL     1      55.058  88.505  35.820  1.00  0.00    -0.327 N 
HETATM   16  C   UNL     1      55.284  89.595  34.976  1.00  0.00     0.226 C 
HETATM   17  O   UNL     1      56.277  90.309  34.923  1.00  0.00    -0.273 OA
HETATM   18  H   UNL     1      54.162  88.031  35.724  1.00  0.00     0.169 HD
BRANCH  16  19
HETATM   19  C   UNL     1      54.150  89.884  34.043  1.00  0.00     0.078 A 
HETATM   20  C   UNL     1      54.450  90.586  32.765  1.00  0.00     0.015 A 
HETATM   21  C   UNL     1      53.726  91.300  33.868  1.00  0.00     0.015 A 
ENDBRANCH  16  19
ENDBRANCH  11  15
ENDBRANCH   7   9
ENDBRANCH   3   7
BRANCH   5  22
HETATM   22  N   UNL     1      60.325  83.620  33.318  1.00  0.00    -0.341 N 
HETATM   23  H   UNL     1      59.858  83.673  32.416  1.00  0.00     0.167 HD
BRANCH  22  24
HETATM   24  C   UNL     1      60.451  82.294  33.783  1.00  0.00     0.034 A 
HETATM   25  C   UNL     1      59.457  81.357  33.501  1.00  0.00     0.045 A 
HETATM   26  C   UNL     1      59.584  80.046  33.959  1.00  0.00     0.050 A 
HETATM   27  C   UNL     1      60.705  79.672  34.700  1.00  0.00     0.016 A 
HETATM   28  C   UNL     1      61.699  80.608  34.983  1.00  0.00     0.003 A 
HETATM   29  C   UNL     1      61.572  81.920  34.524  1.00  0.00     0.029 A 
BRANCH  26  30
HETATM   30  C   UNL     1      58.521  79.044  33.657  1.00  0.00     0.417 C 
HETATM   31  F   UNL     1      57.254  79.544  33.751  1.00  0.00    -0.166 F 
HETATM   32  F   UNL     1      58.606  78.520  32.399  1.00  0.00    -0.166 F 
HETATM   33  F   UNL     1      58.555  77.972  34.504  1.00  0.00    -0.166 F 
ENDBRANCH  26  30
ENDBRANCH  22  24
ENDBRANCH   5  22
TORSDOF 7
ENDMDL
MODEL 8
REMARK VINA RESULT:      -7.5      6.686     10.478
REMARK  7 active torsions:
REMARK  status: ('A' for Active; 'I' for Inactive)
REMARK       I    between atoms: N_5  and  C_13 
REMARK    1  A    between atoms: N_5  and  C_14 
REMARK    2  A    between atoms: N_6  and  C_17 
REMARK    3  A    between atoms: N_6  and  C_20 
REMARK    4  A    between atoms: N_7  and  C_21 
REMARK    5  A    between atoms: N_7  and  C_23 
REMARK    6  A    between atoms: C_10  and  C_13 
REMARK    7  A    between atoms: C_24  and  C_29 
ROOT
HETATM    1  N   UNL     1      55.788  88.215  38.309  1.00  0.00    -0.224 NA
HETATM    2  N   UNL     1      56.434  87.243  40.418  1.00  0.00    -0.224 NA
HETATM    3  C   UNL     1      56.707  87.431  37.709  1.00  0.00     0.133 A 
HETATM    4  C   UNL     1      57.515  86.539  38.386  1.00  0.00     0.100 A 
HETATM    5  C   UNL     1      57.338  86.483  39.756  1.00  0.00     0.133 A 
HETATM    6  C   UNL     1      55.707  88.073  39.646  1.00  0.00     0.237 A 
ENDROOT
BRANCH   3   7
HETATM    7  N   UNL     1      56.863  87.515  36.303  1.00  0.00    -0.341 N 
HETATM    8  H   UNL     1      56.902  86.609  35.845  1.00  0.00     0.167 HD
BRANCH   7   9
HETATM    9  C   UNL     1      56.965  88.606  35.425  1.00  0.00     0.035 A 
HETATM   10  C   UNL     1      55.863  89.436  35.201  1.00  0.00     0.059 A 
HETATM   11  C   UNL     1      55.966  90.520  34.330  1.00  0.00     0.036 A 
HETATM   12  C   UNL     1      57.172  90.779  33.678  1.00  0.00     0.029 A 
HETATM   13  C   UNL     1      58.275  89.954  33.898  1.00  0.00     0.004 A 
HETATM   14  C   UNL     1      58.171  88.869  34.769  1.00  0.00     0.029 A 
BRANCH  11  15
HETATM   15  N   UNL     1      54.863  91.346  34.110  1.00  0.00    -0.327 N 
HETATM   16  C   UNL     1      53.727  91.081  33.342  1.00  0.00     0.226 C 
HETATM   17  O   UNL     1      53.472  90.067  32.706  1.00  0.00    -0.273 OA
HETATM   18  H   UNL     1      54.904  92.255  34.567  1.00  0.00     0.169 HD
BRANCH  16  19
HETATM   19  C   UNL     1      52.733  92.200  33.325  1.00  0.00     0.078 A 
HETATM   20  C   UNL     1      52.300  92.778  34.626  1.00  0.00     0.015 A 
HETATM   21  C   UNL     1      51.358  91.927  33.826  1.00  0.00     0.015 A 
ENDBRANCH  16  19
ENDBRANCH  11  15
ENDBRANCH   7   9
ENDBRANCH   3   7
BRANCH   5  22
HETATM   22  N   UNL     1      58.143  85.586  40.484  1.00  0.00    -0.341 N 
HETATM   23  H   UNL     1      57.613  85.040  41.160  1.00  0.00     0.167 HD
BRANCH  22  24
HETATM   24  C   UNL     1      59.534  85.512  40.701  1.00  0.00     0.034 A 
HETATM   25  C   UNL     1      60.029  85.256  41.980  1.00  0.00     0.045 A 
HETATM   26  C   UNL     1      61.405  85.181  42.193  1.00  0.00     0.050 A 
HETATM   27  C   UNL     1      62.287  85.363  41.128  1.00  0.00     0.016 A 
HETATM   28  C   UNL     1      61.793  85.619  39.849  1.00  0.00     0.003 A 
HETATM   29  C   UNL     1      60.416  85.694  39.636  1.00  0.00     0.029 A 
BRANCH  26  30
HETATM   30  C   UNL     1      61.935  84.907  43.561  1.00  0.00     0.417 C 
HETATM   31  F   UNL     1      62.831  83.878  43.605  1.00  0.00    -0.166 F 
HETATM   32  F   UNL     1      62.585  85.971  44.118  1.00  0.00    -0.166 F 
HETATM   33  F   UNL     1      60.951  84.574  44.448  1.00  0.00    -0.166 F 
ENDBRANCH  26  30
ENDBRANCH  22  24
ENDBRANCH   5  22
TORSDOF 7
ENDMDL
MODEL 9
REMARK VINA RESULT:      -7.5      6.108     11.038
REMARK  7 active torsions:
REMARK  status: ('A' for Active; 'I' for Inactive)
REMARK       I    between atoms: N_5  and  C_13 
REMARK    1  A    between atoms: N_5  and  C_14 
REMARK    2  A    between atoms: N_6  and  C_17 
REMARK    3  A    between atoms: N_6  and  C_20 
REMARK    4  A    between atoms: N_7  and  C_21 
REMARK    5  A    between atoms: N_7  and  C_23 
REMARK    6  A    between atoms: C_10  and  C_13 
REMARK    7  A    between atoms: C_24  and  C_29 
ROOT
HETATM    1  N   UNL     1      61.596  85.400  33.274  1.00  0.00    -0.224 NA
HETATM    2  N   UNL     1      61.514  83.125  32.485  1.00  0.00    -0.224 NA
HETATM    3  C   UNL     1      60.467  85.160  33.973  1.00  0.00     0.133 A 
HETATM    4  C   UNL     1      59.813  83.944  33.978  1.00  0.00     0.100 A 
HETATM    5  C   UNL     1      60.384  82.947  33.208  1.00  0.00     0.133 A 
HETATM    6  C   UNL     1      62.057  84.355  32.561  1.00  0.00     0.237 A 
ENDROOT
BRANCH   3   7
HETATM    7  N   UNL     1      59.910  86.204  34.751  1.00  0.00    -0.341 N 
HETATM    8  H   UNL     1      59.655  85.916  35.691  1.00  0.00     0.167 HD
BRANCH   7   9
HETATM    9  C   UNL     1      59.651  87.557  34.475  1.00  0.00     0.035 A 
HETATM   10  C   UNL     1      58.447  87.934  33.873  1.00  0.00     0.059 A 
HETATM   11  C   UNL     1      58.190  89.277  33.601  1.00  0.00     0.036 A 
HETATM   12  C   UNL     1      59.136  90.250  33.929  1.00  0.00     0.029 A 
HETATM   13  C   UNL     1      60.338  89.878  34.530  1.00  0.00     0.004 A 
HETATM   14  C   UNL     1      60.595  88.534  34.801  1.00  0.00     0.029 A 
BRANCH  11  15
HETATM   15  N   UNL     1      56.986  89.650  33.001  1.00  0.00    -0.327 N 
HETATM   16  C   UNL     1      55.696  89.557  33.527  1.00  0.00     0.226 C 
HETATM   17  O   UNL     1      55.363  89.129  34.625  1.00  0.00    -0.273 OA
HETATM   18  H   UNL     1      57.070  90.031  32.060  1.00  0.00     0.169 HD
BRANCH  16  19
HETATM   19  C   UNL     1      54.628  90.053  32.604  1.00  0.00     0.078 A 
HETATM   20  C   UNL     1      54.334  91.511  32.583  1.00  0.00     0.015 A 
HETATM   21  C   UNL     1      53.358  90.552  33.199  1.00  0.00     0.015 A 
ENDBRANCH  16  19
ENDBRANCH  11  15
ENDBRANCH   7   9
ENDBRANCH   3   7
BRANCH   5  22
HETATM   22  N   UNL     1      59.747  81.691  33.186  1.00  0.00    -0.341 N 
HETATM   23  H   UNL     1      58.788  81.740  32.850  1.00  0.00     0.167 HD
BRANCH  22  24
HETATM   24  C   UNL     1      60.035  80.464  33.818  1.00  0.00     0.034 A 
HETATM   25  C   UNL     1      59.363  79.304  33.432  1.00  0.00     0.045 A 
HETATM   26  C   UNL     1      59.649  78.091  34.056  1.00  0.00     0.050 A 
HETATM   27  C   UNL     1      60.609  78.036  35.067  1.00  0.00     0.016 A 
HETATM   28  C   UNL     1      61.282  79.195  35.454  1.00  0.00     0.003 A 
HETATM   29  C   UNL     1      60.995  80.409  34.829  1.00  0.00     0.029 A 
BRANCH  26  30
HETATM   30  C   UNL     1      58.930  76.851  33.643  1.00  0.00     0.417 C 
HETATM   31  F   UNL     1      57.574  76.997  33.587  1.00  0.00    -0.166 F 
HETATM   32  F   UNL     1      59.290  76.396  32.407  1.00  0.00    -0.166 F 
HETATM   33  F   UNL     1      59.151  75.807  34.496  1.00  0.00    -0.166 F 
ENDBRANCH  26  30
ENDBRANCH  22  24
ENDBRANCH   5  22
TORSDOF 7
ENDMDL
