MODEL 1
REMARK VINA RESULT:      -8.4      0.000      0.000
REMARK  7 active torsions:
REMARK  status: ('A' for Active; 'I' for Inactive)
REMARK       I    between atoms: N_5  and  C_13 
REMARK    1  A    between atoms: N_5  and  C_14 
REMARK    2  A    between atoms: N_6  and  C_17 
REMARK    3  A    between atoms: N_6  and  C_20 
REMARK    4  A    between atoms: N_7  and  C_21 
REMARK    5  A    between atoms: N_7  and  C_23 
REMARK    6  A    between atoms: C_10  and  C_13 
REMARK    7  A    between atoms: C_24  and  C_29 
ROOT
HETATM    1  N   UNL     1      57.675  88.573  36.663  1.00  0.00    -0.224 NA
HETATM    2  N   UNL     1      55.276  88.471  36.454  1.00  0.00    -0.224 NA
HETATM    3  C   UNL     1      57.719  89.150  35.444  1.00  0.00     0.133 A 
HETATM    4  C   UNL     1      56.601  89.416  34.681  1.00  0.00     0.100 A 
HETATM    5  C   UNL     1      55.388  89.052  35.237  1.00  0.00     0.133 A 
HETATM    6  C   UNL     1      56.439  88.263  37.100  1.00  0.00     0.237 A 
ENDROOT
BRANCH   3   7
HETATM    7  N   UNL     1      58.979  89.509  34.904  1.00  0.00    -0.341 N 
HETATM    8  H   UNL     1      59.309  90.417  35.218  1.00  0.00     0.167 HD
BRANCH   7   9
HETATM    9  C   UNL     1      59.857  88.850  34.028  1.00  0.00     0.035 A 
HETATM   10  C   UNL     1      59.614  87.526  33.651  1.00  0.00     0.059 A 
HETATM   11  C   UNL     1      60.486  86.874  32.780  1.00  0.00     0.036 A 
HETATM   12  C   UNL     1      61.605  87.542  32.282  1.00  0.00     0.029 A 
HETATM   13  C   UNL     1      61.852  88.862  32.656  1.00  0.00     0.004 A 
HETATM   14  C   UNL     1      60.980  89.515  33.528  1.00  0.00     0.029 A 
BRANCH  11  15
HETATM   15  N   UNL     1      60.238  85.552  32.405  1.00  0.00    -0.327 N 
HETATM   16  C   UNL     1      60.522  84.386  33.121  1.00  0.00     0.226 C 
HETATM   17  O   UNL     1      61.045  84.291  34.223  1.00  0.00    -0.273 OA
HETATM   18  H   UNL     1      59.802  85.435  31.493  1.00  0.00     0.169 HD
BRANCH  16  19
HETATM   19  C   UNL     1      60.119  83.130  32.414  1.00  0.00     0.078 A 
HETATM   20  C   UNL     1      59.594  82.001  33.229  1.00  0.00     0.015 A 
HETATM   21  C   UNL     1      60.956  81.914  32.607  1.00  0.00     0.015 A 
ENDBRANCH  16  19
ENDBRANCH  11  15
ENDBRANCH   7   9
ENDBRANCH   3   7
BRANCH   5  22
HETATM   22  N   UNL     1      54.222  89.307  34.490  1.00  0.00    -0.341 N 
HETATM   23  H   UNL     1      53.836  88.469  34.061  1.00  0.00     0.167 HD
BRANCH  22  24
HETATM   24  C   UNL     1      53.670  90.490  33.955  1.00  0.00     0.034 A 
HETATM   25  C   UNL     1      52.720  91.208  34.681  1.00  0.00     0.045 A 
HETATM   26  C   UNL     1      52.176  92.378  34.152  1.00  0.00     0.050 A 
HETATM   27  C   UNL     1      52.582  92.830  32.896  1.00  0.00     0.016 A 
HETATM   28  C   UNL     1      53.532  92.112  32.169  1.00  0.00     0.003 A 
HETATM   29  C   UNL     1      54.076  90.942  32.699  1.00  0.00     0.029 A 
BRANCH  26  30
HETATM   30  C   UNL     1      51.160  93.147  34.928  1.00  0.00     0.417 C 
HETATM   31  F   UNL     1      51.636  94.317  35.444  1.00  0.00    -0.166 F 
HETATM   32  F   UNL     1      50.065  93.501  34.193  1.00  0.00    -0.166 F 
HETATM   33  F   UNL     1      50.674  92.446  35.995  1.00  0.00    -0.166 F 
ENDBRANCH  26  30
ENDBRANCH  22  24
ENDBRANCH   5  22
TORSDOF 7
ENDMDL
MODEL 2
REMARK VINA RESULT:      -8.2      4.950      8.833
REMARK  7 active torsions:
REMARK  status: ('A' for Active; 'I' for Inactive)
REMARK       I    between atoms: N_5  and  C_13 
REMARK    1  A    between atoms: N_5  and  C_14 
REMARK    2  A    between atoms: N_6  and  C_17 
REMARK    3  A    between atoms: N_6  and  C_20 
REMARK    4  A    between atoms: N_7  and  C_21 
REMARK    5  A    between atoms: N_7  and  C_23 
REMARK    6  A    between atoms: C_10  and  C_13 
REMARK    7  A    between atoms: C_24  and  C_29 
ROOT
HETATM    1  N   UNL     1      55.957  86.953  37.624  1.00  0.00    -0.224 NA
HETATM    2  N   UNL     1      58.108  87.023  38.708  1.00  0.00    -0.224 NA
HETATM    3  C   UNL     1      56.530  87.505  36.533  1.00  0.00     0.133 A 
HETATM    4  C   UNL     1      57.867  87.838  36.456  1.00  0.00     0.100 A 
HETATM    5  C   UNL     1      58.623  87.574  37.584  1.00  0.00     0.133 A 
HETATM    6  C   UNL     1      56.792  86.744  38.660  1.00  0.00     0.237 A 
ENDROOT
BRANCH   3   7
HETATM    7  N   UNL     1      55.726  87.762  35.396  1.00  0.00    -0.341 N 
HETATM    8  H   UNL     1      55.224  86.944  35.062  1.00  0.00     0.167 HD
BRANCH   7   9
HETATM    9  C   UNL     1      55.486  88.926  34.649  1.00  0.00     0.035 A 
HETATM   10  C   UNL     1      54.357  89.709  34.908  1.00  0.00     0.059 A 
HETATM   11  C   UNL     1      54.120  90.866  34.167  1.00  0.00     0.036 A 
HETATM   12  C   UNL     1      55.011  91.246  33.162  1.00  0.00     0.029 A 
HETATM   13  C   UNL     1      56.138  90.469  32.900  1.00  0.00     0.004 A 
HETATM   14  C   UNL     1      56.375  89.311  33.641  1.00  0.00     0.029 A 
BRANCH  11  15
HETATM   15  N   UNL     1      52.992  91.645  34.430  1.00  0.00    -0.327 N 
HETATM   16  C   UNL     1      52.270  92.443  33.540  1.00  0.00     0.226 C 
HETATM   17  O   UNL     1      52.483  92.619  32.347  1.00  0.00    -0.273 OA
HETATM   18  H   UNL     1      52.667  91.626  35.394  1.00  0.00     0.169 HD
BRANCH  16  19
HETATM   19  C   UNL     1      51.106  93.146  34.165  1.00  0.00     0.078 A 
HETATM   20  C   UNL     1      51.357  94.425  34.883  1.00  0.00     0.015 A 
HETATM   21  C   UNL     1      51.019  93.181  35.651  1.00  0.00     0.015 A 
ENDBRANCH  16  19
ENDBRANCH  11  15
ENDBRANCH   7   9
ENDBRANCH   3   7
BRANCH   5  22
HETATM   22  N   UNL     1      59.992  87.899  37.545  1.00  0.00    -0.341 N 
HETATM   23  H   UNL     1      60.529  87.436  38.276  1.00  0.00     0.167 HD
BRANCH  22  24
HETATM   24  C   UNL     1      60.708  88.950  36.934  1.00  0.00     0.034 A 
HETATM   25  C   UNL     1      60.576  89.179  35.564  1.00  0.00     0.045 A 
HETATM   26  C   UNL     1      61.282  90.219  34.960  1.00  0.00     0.050 A 
HETATM   27  C   UNL     1      62.121  91.030  35.726  1.00  0.00     0.016 A 
HETATM   28  C   UNL     1      62.253  90.800  37.095  1.00  0.00     0.003 A 
HETATM   29  C   UNL     1      61.546  89.760  37.699  1.00  0.00     0.029 A 
BRANCH  26  30
HETATM   30  C   UNL     1      61.142  90.465  33.495  1.00  0.00     0.417 C 
HETATM   31  F   UNL     1      59.910  90.145  33.002  1.00  0.00    -0.166 F 
HETATM   32  F   UNL     1      61.341  91.768  33.139  1.00  0.00    -0.166 F 
HETATM   33  F   UNL     1      62.033  89.743  32.754  1.00  0.00    -0.166 F 
ENDBRANCH  26  30
ENDBRANCH  22  24
ENDBRANCH   5  22
TORSDOF 7
ENDMDL
MODEL 3
REMARK VINA RESULT:      -8.2      6.275     10.374
REMARK  7 active torsions:
REMARK  status: ('A' for Active; 'I' for Inactive)
REMARK       I    between atoms: N_5  and  C_13 
REMARK    1  A    between atoms: N_5  and  C_14 
REMARK    2  A    between atoms: N_6  and  C_17 
REMARK    3  A    between atoms: N_6  and  C_20 
REMARK    4  A    between atoms: N_7  and  C_21 
REMARK    5  A    between atoms: N_7  and  C_23 
REMARK    6  A    between atoms: C_10  and  C_13 
REMARK    7  A    between atoms: C_24  and  C_29 
ROOT
HETATM    1  N   UNL     1      55.460  87.616  37.732  1.00  0.00    -0.224 NA
HETATM    2  N   UNL     1      57.404  87.283  39.117  1.00  0.00    -0.224 NA
HETATM    3  C   UNL     1      56.275  87.627  36.657  1.00  0.00     0.133 A 
HETATM    4  C   UNL     1      57.644  87.473  36.730  1.00  0.00     0.100 A 
HETATM    5  C   UNL     1      58.167  87.303  38.000  1.00  0.00     0.133 A 
HETATM    6  C   UNL     1      56.082  87.443  38.914  1.00  0.00     0.237 A 
ENDROOT
BRANCH   3   7
HETATM    7  N   UNL     1      55.706  87.805  35.372  1.00  0.00    -0.341 N 
HETATM    8  H   UNL     1      55.438  86.933  34.923  1.00  0.00     0.167 HD
BRANCH   7   9
HETATM    9  C   UNL     1      55.436  88.950  34.605  1.00  0.00     0.035 A 
HETATM   10  C   UNL     1      54.318  89.740  34.887  1.00  0.00     0.059 A 
HETATM   11  C   UNL     1      54.052  90.877  34.126  1.00  0.00     0.036 A 
HETATM   12  C   UNL     1      54.903  91.231  33.079  1.00  0.00     0.029 A 
HETATM   13  C   UNL     1      56.021  90.447  32.793  1.00  0.00     0.004 A 
HETATM   14  C   UNL     1      56.286  89.308  33.554  1.00  0.00     0.029 A 
BRANCH  11  15
HETATM   15  N   UNL     1      52.935  91.663  34.413  1.00  0.00    -0.327 N 
HETATM   16  C   UNL     1      52.201  92.468  33.538  1.00  0.00     0.226 C 
HETATM   17  O   UNL     1      52.392  92.645  32.342  1.00  0.00    -0.273 OA
HETATM   18  H   UNL     1      52.629  91.644  35.383  1.00  0.00     0.169 HD
BRANCH  16  19
HETATM   19  C   UNL     1      51.054  93.178  34.187  1.00  0.00     0.078 A 
HETATM   20  C   UNL     1      51.354  94.298  35.119  1.00  0.00     0.015 A 
HETATM   21  C   UNL     1      50.846  92.990  35.649  1.00  0.00     0.015 A 
ENDBRANCH  16  19
ENDBRANCH  11  15
ENDBRANCH   7   9
ENDBRANCH   3   7
BRANCH   5  22
HETATM   22  N   UNL     1      59.561  87.143  38.119  1.00  0.00    -0.341 N 
HETATM   23  H   UNL     1      60.077  87.985  37.875  1.00  0.00     0.167 HD
BRANCH  22  24
HETATM   24  C   UNL     1      60.388  86.003  38.187  1.00  0.00     0.034 A 
HETATM   25  C   UNL     1      60.622  85.382  39.414  1.00  0.00     0.045 A 
HETATM   26  C   UNL     1      61.439  84.254  39.480  1.00  0.00     0.050 A 
HETATM   27  C   UNL     1      62.023  83.746  38.320  1.00  0.00     0.016 A 
HETATM   28  C   UNL     1      61.790  84.366  37.093  1.00  0.00     0.003 A 
HETATM   29  C   UNL     1      60.972  85.495  37.026  1.00  0.00     0.029 A 
BRANCH  26  30
HETATM   30  C   UNL     1      61.689  83.589  40.793  1.00  0.00     0.417 C 
HETATM   31  F   UNL     1      60.600  82.935  41.292  1.00  0.00    -0.166 F 
HETATM   32  F   UNL     1      62.680  82.650  40.749  1.00  0.00    -0.166 F 
HETATM   33  F   UNL     1      62.064  84.472  41.765  1.00  0.00    -0.166 F 
ENDBRANCH  26  30
ENDBRANCH  22  24
ENDBRANCH   5  22
TORSDOF 7
ENDMDL
MODEL 4
REMARK VINA RESULT:      -8.1      7.108     10.726
REMARK  7 active torsions:
REMARK  status: ('A' for Active; 'I' for Inactive)
REMARK       I    between atoms: N_5  and  C_13 
REMARK    1  A    between atoms: N_5  and  C_14 
REMARK    2  A    between atoms: N_6  and  C_17 
REMARK    3  A    between atoms: N_6  and  C_20 
REMARK    4  A    between atoms: N_7  and  C_21 
REMARK    5  A    between atoms: N_7  and  C_23 
REMARK    6  A    between atoms: C_10  and  C_13 
REMARK    7  A    between atoms: C_24  and  C_29 
ROOT
HETATM    1  N   UNL     1      56.694  86.669  38.584  1.00  0.00    -0.224 NA
HETATM    2  N   UNL     1      58.175  86.150  40.413  1.00  0.00    -0.224 NA
HETATM    3  C   UNL     1      57.773  86.721  37.774  1.00  0.00     0.133 A 
HETATM    4  C   UNL     1      59.066  86.502  38.204  1.00  0.00     0.100 A 
HETATM    5  C   UNL     1      59.216  86.217  39.550  1.00  0.00     0.133 A 
HETATM    6  C   UNL     1      56.964  86.384  39.872  1.00  0.00     0.237 A 
ENDROOT
BRANCH   3   7
HETATM    7  N   UNL     1      57.582  87.016  36.402  1.00  0.00    -0.341 N 
HETATM    8  H   UNL     1      57.542  86.190  35.812  1.00  0.00     0.167 HD
BRANCH   7   9
HETATM    9  C   UNL     1      57.432  88.227  35.705  1.00  0.00     0.035 A 
HETATM   10  C   UNL     1      56.162  88.776  35.513  1.00  0.00     0.059 A 
HETATM   11  C   UNL     1      56.014  89.978  34.822  1.00  0.00     0.036 A 
HETATM   12  C   UNL     1      57.137  90.637  34.320  1.00  0.00     0.029 A 
HETATM   13  C   UNL     1      58.407  90.093  34.509  1.00  0.00     0.004 A 
HETATM   14  C   UNL     1      58.554  88.890  35.199  1.00  0.00     0.029 A 
BRANCH  11  15
HETATM   15  N   UNL     1      54.743  90.524  34.633  1.00  0.00    -0.327 N 
HETATM   16  C   UNL     1      53.937  90.455  33.495  1.00  0.00     0.226 C 
HETATM   17  O   UNL     1      54.185  89.900  32.432  1.00  0.00    -0.273 OA
HETATM   18  H   UNL     1      54.370  91.038  35.428  1.00  0.00     0.169 HD
BRANCH  16  19
HETATM   19  C   UNL     1      52.623  91.157  33.641  1.00  0.00     0.078 A 
HETATM   20  C   UNL     1      52.416  92.429  32.896  1.00  0.00     0.015 A 
HETATM   21  C   UNL     1      52.592  92.446  34.386  1.00  0.00     0.015 A 
ENDBRANCH  16  19
ENDBRANCH  11  15
ENDBRANCH   7   9
ENDBRANCH   3   7
BRANCH   5  22
HETATM   22  N   UNL     1      60.519  85.987  40.029  1.00  0.00    -0.341 N 
HETATM   23  H   UNL     1      61.215  86.582  39.584  1.00  0.00     0.167 HD
BRANCH  22  24
HETATM   24  C   UNL     1      61.100  84.916  40.739  1.00  0.00     0.034 A 
HETATM   25  C   UNL     1      61.210  84.976  42.128  1.00  0.00     0.045 A 
HETATM   26  C   UNL     1      61.783  83.916  42.829  1.00  0.00     0.050 A 
HETATM   27  C   UNL     1      62.247  82.795  42.141  1.00  0.00     0.016 A 
HETATM   28  C   UNL     1      62.139  82.734  40.752  1.00  0.00     0.003 A 
HETATM   29  C   UNL     1      61.565  83.795  40.051  1.00  0.00     0.029 A 
BRANCH  26  30
HETATM   30  C   UNL     1      61.900  83.980  44.315  1.00  0.00     0.417 C 
HETATM   31  F   UNL     1      62.817  84.892  44.753  1.00  0.00    -0.166 F 
HETATM   32  F   UNL     1      60.734  84.317  44.941  1.00  0.00    -0.166 F 
HETATM   33  F   UNL     1      62.278  82.788  44.864  1.00  0.00    -0.166 F 
ENDBRANCH  26  30
ENDBRANCH  22  24
ENDBRANCH   5  22
TORSDOF 7
ENDMDL
MODEL 5
REMARK VINA RESULT:      -8.0      1.806      2.282
REMARK  7 active torsions:
REMARK  status: ('A' for Active; 'I' for Inactive)
REMARK       I    between atoms: N_5  and  C_13 
REMARK    1  A    between atoms: N_5  and  C_14 
REMARK    2  A    between atoms: N_6  and  C_17 
REMARK    3  A    between atoms: N_6  and  C_20 
REMARK    4  A    between atoms: N_7  and  C_21 
REMARK    5  A    between atoms: N_7  and  C_23 
REMARK    6  A    between atoms: C_10  and  C_13 
REMARK    7  A    between atoms: C_24  and  C_29 
ROOT
HETATM    1  N   UNL     1      57.203  87.715  39.081  1.00  0.00    -0.224 NA
HETATM    2  N   UNL     1      55.059  87.973  38.012  1.00  0.00    -0.224 NA
HETATM    3  C   UNL     1      57.780  87.822  37.866  1.00  0.00     0.133 A 
HETATM    4  C   UNL     1      57.073  88.004  36.695  1.00  0.00     0.100 A 
HETATM    5  C   UNL     1      55.697  88.073  36.823  1.00  0.00     0.133 A 
HETATM    6  C   UNL     1      55.859  87.797  39.081  1.00  0.00     0.237 A 
ENDROOT
BRANCH   3   7
HETATM    7  N   UNL     1      59.191  87.746  37.771  1.00  0.00    -0.341 N 
HETATM    8  H   UNL     1      59.658  87.739  38.673  1.00  0.00     0.167 HD
BRANCH   7   9
HETATM    9  C   UNL     1      60.065  87.671  36.673  1.00  0.00     0.035 A 
HETATM   10  C   UNL     1      60.195  86.477  35.958  1.00  0.00     0.059 A 
HETATM   11  C   UNL     1      61.062  86.404  34.867  1.00  0.00     0.036 A 
HETATM   12  C   UNL     1      61.801  87.525  34.487  1.00  0.00     0.029 A 
HETATM   13  C   UNL     1      61.674  88.718  35.198  1.00  0.00     0.004 A 
HETATM   14  C   UNL     1      60.808  88.790  36.289  1.00  0.00     0.029 A 
BRANCH  11  15
HETATM   15  N   UNL     1      61.189  85.211  34.155  1.00  0.00    -0.327 N 
HETATM   16  C   UNL     1      60.590  84.864  32.942  1.00  0.00     0.226 C 
HETATM   17  O   UNL     1      59.833  85.541  32.258  1.00  0.00    -0.273 OA
HETATM   18  H   UNL     1      61.790  84.511  34.585  1.00  0.00     0.169 HD
BRANCH  16  19
HETATM   19  C   UNL     1      60.949  83.493  32.460  1.00  0.00     0.078 A 
HETATM   20  C   UNL     1      59.881  82.457  32.421  1.00  0.00     0.015 A 
HETATM   21  C   UNL     1      60.970  82.381  33.450  1.00  0.00     0.015 A 
ENDBRANCH  16  19
ENDBRANCH  11  15
ENDBRANCH   7   9
ENDBRANCH   3   7
BRANCH   5  22
HETATM   22  N   UNL     1      54.938  88.259  35.652  1.00  0.00    -0.341 N 
HETATM   23  H   UNL     1      54.525  87.395  35.308  1.00  0.00     0.167 HD
BRANCH  22  24
HETATM   24  C   UNL     1      54.895  89.295  34.697  1.00  0.00     0.034 A 
HETATM   25  C   UNL     1      53.790  90.145  34.638  1.00  0.00     0.045 A 
HETATM   26  C   UNL     1      53.749  91.171  33.694  1.00  0.00     0.050 A 
HETATM   27  C   UNL     1      54.812  91.347  32.809  1.00  0.00     0.016 A 
HETATM   28  C   UNL     1      55.917  90.498  32.866  1.00  0.00     0.003 A 
HETATM   29  C   UNL     1      55.958  89.472  33.811  1.00  0.00     0.029 A 
BRANCH  26  30
HETATM   30  C   UNL     1      52.568  92.080  33.631  1.00  0.00     0.417 C 
HETATM   31  F   UNL     1      52.544  93.018  34.623  1.00  0.00    -0.166 F 
HETATM   32  F   UNL     1      52.487  92.790  32.467  1.00  0.00    -0.166 F 
HETATM   33  F   UNL     1      51.383  91.409  33.733  1.00  0.00    -0.166 F 
ENDBRANCH  26  30
ENDBRANCH  22  24
ENDBRANCH   5  22
TORSDOF 7
ENDMDL
MODEL 6
REMARK VINA RESULT:      -7.8      2.975      3.251
REMARK  7 active torsions:
REMARK  status: ('A' for Active; 'I' for Inactive)
REMARK       I    between atoms: N_5  and  C_13 
REMARK    1  A    between atoms: N_5  and  C_14 
REMARK    2  A    between atoms: N_6  and  C_17 
REMARK    3  A    between atoms: N_6  and  C_20 
REMARK    4  A    between atoms: N_7  and  C_21 
REMARK    5  A    between atoms: N_7  and  C_23 
REMARK    6  A    between atoms: C_10  and  C_13 
REMARK    7  A    between atoms: C_24  and  C_29 
ROOT
HETATM    1  N   UNL     1      57.276  88.295  38.450  1.00  0.00    -0.224 NA
HETATM    2  N   UNL     1      55.247  87.904  37.211  1.00  0.00    -0.224 NA
HETATM    3  C   UNL     1      57.815  88.820  37.330  1.00  0.00     0.133 A 
HETATM    4  C   UNL     1      57.141  88.921  36.130  1.00  0.00     0.100 A 
HETATM    5  C   UNL     1      55.843  88.442  36.122  1.00  0.00     0.133 A 
HETATM    6  C   UNL     1      56.008  87.861  38.321  1.00  0.00     0.237 A 
ENDROOT
BRANCH   3   7
HETATM    7  N   UNL     1      59.146  89.300  37.373  1.00  0.00    -0.341 N 
HETATM    8  H   UNL     1      59.221  90.259  37.703  1.00  0.00     0.167 HD
BRANCH   7   9
HETATM    9  C   UNL     1      60.379  88.706  37.056  1.00  0.00     0.035 A 
HETATM   10  C   UNL     1      60.749  87.494  37.645  1.00  0.00     0.059 A 
HETATM   11  C   UNL     1      61.972  86.904  37.329  1.00  0.00     0.036 A 
HETATM   12  C   UNL     1      62.831  87.524  36.421  1.00  0.00     0.029 A 
HETATM   13  C   UNL     1      62.467  88.733  35.830  1.00  0.00     0.004 A 
HETATM   14  C   UNL     1      61.243  89.324  36.148  1.00  0.00     0.029 A 
BRANCH  11  15
HETATM   15  N   UNL     1      62.337  85.693  37.919  1.00  0.00    -0.327 N 
HETATM   16  C   UNL     1      62.141  84.401  37.426  1.00  0.00     0.226 C 
HETATM   17  O   UNL     1      61.609  84.072  36.373  1.00  0.00    -0.273 OA
HETATM   18  H   UNL     1      62.797  85.772  38.823  1.00  0.00     0.169 HD
BRANCH  16  19
HETATM   19  C   UNL     1      62.661  83.324  38.325  1.00  0.00     0.078 A 
HETATM   20  C   UNL     1      62.182  81.932  38.110  1.00  0.00     0.015 A 
HETATM   21  C   UNL     1      61.724  82.712  39.307  1.00  0.00     0.015 A 
ENDBRANCH  16  19
ENDBRANCH  11  15
ENDBRANCH   7   9
ENDBRANCH   3   7
BRANCH   5  22
HETATM   22  N   UNL     1      55.121  88.526  34.916  1.00  0.00    -0.341 N 
HETATM   23  H   UNL     1      55.160  87.668  34.372  1.00  0.00     0.167 HD
BRANCH  22  24
HETATM   24  C   UNL     1      54.637  89.619  34.168  1.00  0.00     0.034 A 
HETATM   25  C   UNL     1      53.565  90.373  34.645  1.00  0.00     0.045 A 
HETATM   26  C   UNL     1      53.089  91.455  33.905  1.00  0.00     0.050 A 
HETATM   27  C   UNL     1      53.684  91.783  32.687  1.00  0.00     0.016 A 
HETATM   28  C   UNL     1      54.756  91.029  32.209  1.00  0.00     0.003 A 
HETATM   29  C   UNL     1      55.233  89.947  32.950  1.00  0.00     0.029 A 
BRANCH  26  30
HETATM   30  C   UNL     1      51.942  92.261  34.415  1.00  0.00     0.417 C 
HETATM   31  F   UNL     1      51.165  92.794  33.427  1.00  0.00    -0.166 F 
HETATM   32  F   UNL     1      51.081  91.550  35.201  1.00  0.00    -0.166 F 
HETATM   33  F   UNL     1      52.343  93.321  35.177  1.00  0.00    -0.166 F 
ENDBRANCH  26  30
ENDBRANCH  22  24
ENDBRANCH   5  22
TORSDOF 7
ENDMDL
MODEL 7
REMARK VINA RESULT:      -7.8      3.079      4.626
REMARK  7 active torsions:
REMARK  status: ('A' for Active; 'I' for Inactive)
REMARK       I    between atoms: N_5  and  C_13 
REMARK    1  A    between atoms: N_5  and  C_14 
REMARK    2  A    between atoms: N_6  and  C_17 
REMARK    3  A    between atoms: N_6  and  C_20 
REMARK    4  A    between atoms: N_7  and  C_21 
REMARK    5  A    between atoms: N_7  and  C_23 
REMARK    6  A    between atoms: C_10  and  C_13 
REMARK    7  A    between atoms: C_24  and  C_29 
ROOT
HETATM    1  N   UNL     1      56.953  87.372  39.589  1.00  0.00    -0.224 NA
HETATM    2  N   UNL     1      55.275  88.125  38.032  1.00  0.00    -0.224 NA
HETATM    3  C   UNL     1      57.648  86.878  38.544  1.00  0.00     0.133 A 
HETATM    4  C   UNL     1      57.228  86.969  37.232  1.00  0.00     0.100 A 
HETATM    5  C   UNL     1      56.019  87.609  37.027  1.00  0.00     0.133 A 
HETATM    6  C   UNL     1      55.792  87.972  39.266  1.00  0.00     0.237 A 
ENDROOT
BRANCH   3   7
HETATM    7  N   UNL     1      58.882  86.228  38.790  1.00  0.00    -0.341 N 
HETATM    8  H   UNL     1      58.851  85.586  39.577  1.00  0.00     0.167 HD
BRANCH   7   9
HETATM    9  C   UNL     1      60.133  86.295  38.155  1.00  0.00     0.035 A 
HETATM   10  C   UNL     1      60.452  87.386  37.342  1.00  0.00     0.059 A 
HETATM   11  C   UNL     1      61.694  87.453  36.713  1.00  0.00     0.036 A 
HETATM   12  C   UNL     1      62.624  86.428  36.893  1.00  0.00     0.029 A 
HETATM   13  C   UNL     1      62.311  85.337  37.703  1.00  0.00     0.004 A 
HETATM   14  C   UNL     1      61.067  85.270  38.332  1.00  0.00     0.029 A 
BRANCH  11  15
HETATM   15  N   UNL     1      62.009  88.545  35.902  1.00  0.00    -0.327 N 
HETATM   16  C   UNL     1      61.591  88.795  34.594  1.00  0.00     0.226 C 
HETATM   17  O   UNL     1      60.861  88.105  33.894  1.00  0.00    -0.273 OA
HETATM   18  H   UNL     1      62.625  89.235  36.326  1.00  0.00     0.169 HD
BRANCH  16  19
HETATM   19  C   UNL     1      62.123  90.073  34.022  1.00  0.00     0.078 A 
HETATM   20  C   UNL     1      61.803  91.346  34.722  1.00  0.00     0.015 A 
HETATM   21  C   UNL     1      61.158  91.024  33.407  1.00  0.00     0.015 A 
ENDBRANCH  16  19
ENDBRANCH  11  15
ENDBRANCH   7   9
ENDBRANCH   3   7
BRANCH   5  22
HETATM   22  N   UNL     1      55.555  87.723  35.702  1.00  0.00    -0.341 N 
HETATM   23  H   UNL     1      55.372  86.821  35.269  1.00  0.00     0.167 HD
BRANCH  22  24
HETATM   24  C   UNL     1      55.596  88.774  34.763  1.00  0.00     0.034 A 
HETATM   25  C   UNL     1      54.494  89.615  34.607  1.00  0.00     0.045 A 
HETATM   26  C   UNL     1      54.536  90.655  33.679  1.00  0.00     0.050 A 
HETATM   27  C   UNL     1      55.681  90.855  32.907  1.00  0.00     0.016 A 
HETATM   28  C   UNL     1      56.783  90.015  33.063  1.00  0.00     0.003 A 
HETATM   29  C   UNL     1      56.741  88.974  33.991  1.00  0.00     0.029 A 
BRANCH  26  30
HETATM   30  C   UNL     1      53.358  91.554  33.511  1.00  0.00     0.417 C 
HETATM   31  F   UNL     1      53.301  92.561  34.432  1.00  0.00    -0.166 F 
HETATM   32  F   UNL     1      53.315  92.178  32.298  1.00  0.00    -0.166 F 
HETATM   33  F   UNL     1      52.170  90.889  33.623  1.00  0.00    -0.166 F 
ENDBRANCH  26  30
ENDBRANCH  22  24
ENDBRANCH   5  22
TORSDOF 7
ENDMDL
MODEL 8
REMARK VINA RESULT:      -7.6      3.074      5.787
REMARK  7 active torsions:
REMARK  status: ('A' for Active; 'I' for Inactive)
REMARK       I    between atoms: N_5  and  C_13 
REMARK    1  A    between atoms: N_5  and  C_14 
REMARK    2  A    between atoms: N_6  and  C_17 
REMARK    3  A    between atoms: N_6  and  C_20 
REMARK    4  A    between atoms: N_7  and  C_21 
REMARK    5  A    between atoms: N_7  and  C_23 
REMARK    6  A    between atoms: C_10  and  C_13 
REMARK    7  A    between atoms: C_24  and  C_29 
ROOT
HETATM    1  N   UNL     1      61.883  85.857  32.196  1.00  0.00    -0.224 NA
HETATM    2  N   UNL     1      61.449  88.200  32.558  1.00  0.00    -0.224 NA
HETATM    3  C   UNL     1      60.578  85.616  32.443  1.00  0.00     0.133 A 
HETATM    4  C   UNL     1      59.661  86.600  32.750  1.00  0.00     0.100 A 
HETATM    5  C   UNL     1      60.153  87.892  32.796  1.00  0.00     0.133 A 
HETATM    6  C   UNL     1      62.245  87.152  32.270  1.00  0.00     0.237 A 
ENDROOT
BRANCH   3   7
HETATM    7  N   UNL     1      60.109  84.280  32.388  1.00  0.00    -0.341 N 
HETATM    8  H   UNL     1      59.426  84.121  31.653  1.00  0.00     0.167 HD
BRANCH   7   9
HETATM    9  C   UNL     1      60.411  83.138  33.147  1.00  0.00     0.035 A 
HETATM   10  C   UNL     1      59.924  81.886  32.760  1.00  0.00     0.059 A 
HETATM   11  C   UNL     1      60.226  80.752  33.513  1.00  0.00     0.036 A 
HETATM   12  C   UNL     1      61.015  80.864  34.658  1.00  0.00     0.029 A 
HETATM   13  C   UNL     1      61.504  82.111  35.049  1.00  0.00     0.004 A 
HETATM   14  C   UNL     1      61.201  83.245  34.295  1.00  0.00     0.029 A 
BRANCH  11  15
HETATM   15  N   UNL     1      59.738  79.504  33.122  1.00  0.00    -0.327 N 
HETATM   16  C   UNL     1      58.478  78.955  33.371  1.00  0.00     0.226 C 
HETATM   17  O   UNL     1      57.547  79.461  33.983  1.00  0.00    -0.273 OA
HETATM   18  H   UNL     1      60.392  78.929  32.596  1.00  0.00     0.169 HD
BRANCH  16  19
HETATM   19  C   UNL     1      58.292  77.584  32.800  1.00  0.00     0.078 A 
HETATM   20  C   UNL     1      58.607  76.412  33.661  1.00  0.00     0.015 A 
HETATM   21  C   UNL     1      59.504  76.770  32.514  1.00  0.00     0.015 A 
ENDBRANCH  16  19
ENDBRANCH  11  15
ENDBRANCH   7   9
ENDBRANCH   3   7
BRANCH   5  22
HETATM   22  N   UNL     1      59.249  88.926  33.105  1.00  0.00    -0.341 N 
HETATM   23  H   UNL     1      59.638  89.853  32.944  1.00  0.00     0.167 HD
BRANCH  22  24
HETATM   24  C   UNL     1      58.068  88.963  33.875  1.00  0.00     0.034 A 
HETATM   25  C   UNL     1      56.904  89.518  33.343  1.00  0.00     0.045 A 
HETATM   26  C   UNL     1      55.736  89.552  34.104  1.00  0.00     0.050 A 
HETATM   27  C   UNL     1      55.732  89.033  35.398  1.00  0.00     0.016 A 
HETATM   28  C   UNL     1      56.895  88.479  35.932  1.00  0.00     0.003 A 
HETATM   29  C   UNL     1      58.063  88.444  35.170  1.00  0.00     0.029 A 
BRANCH  26  30
HETATM   30  C   UNL     1      54.491  90.145  33.534  1.00  0.00     0.417 C 
HETATM   31  F   UNL     1      54.550  91.501  33.381  1.00  0.00    -0.166 F 
HETATM   32  F   UNL     1      54.171  89.661  32.299  1.00  0.00    -0.166 F 
HETATM   33  F   UNL     1      53.394  89.912  34.314  1.00  0.00    -0.166 F 
ENDBRANCH  26  30
ENDBRANCH  22  24
ENDBRANCH   5  22
TORSDOF 7
ENDMDL
MODEL 9
REMARK VINA RESULT:      -7.6      2.478      3.280
REMARK  7 active torsions:
REMARK  status: ('A' for Active; 'I' for Inactive)
REMARK       I    between atoms: N_5  and  C_13 
REMARK    1  A    between atoms: N_5  and  C_14 
REMARK    2  A    between atoms: N_6  and  C_17 
REMARK    3  A    between atoms: N_6  and  C_20 
REMARK    4  A    between atoms: N_7  and  C_21 
REMARK    5  A    between atoms: N_7  and  C_23 
REMARK    6  A    between atoms: C_10  and  C_13 
REMARK    7  A    between atoms: C_24  and  C_29 
ROOT
HETATM    1  N   UNL     1      56.234  86.633  38.110  1.00  0.00    -0.224 NA
HETATM    2  N   UNL     1      55.147  88.172  36.608  1.00  0.00    -0.224 NA
HETATM    3  C   UNL     1      57.401  87.256  37.845  1.00  0.00     0.133 A 
HETATM    4  C   UNL     1      57.519  88.329  36.985  1.00  0.00     0.100 A 
HETATM    5  C   UNL     1      56.348  88.754  36.383  1.00  0.00     0.133 A 
HETATM    6  C   UNL     1      55.163  87.135  37.466  1.00  0.00     0.237 A 
ENDROOT
BRANCH   3   7
HETATM    7  N   UNL     1      58.581  86.794  38.478  1.00  0.00    -0.341 N 
HETATM    8  H   UNL     1      58.614  87.000  39.472  1.00  0.00     0.167 HD
BRANCH   7   9
HETATM    9  C   UNL     1      59.705  86.103  37.998  1.00  0.00     0.035 A 
HETATM   10  C   UNL     1      59.901  85.944  36.623  1.00  0.00     0.059 A 
HETATM   11  C   UNL     1      61.018  85.259  36.148  1.00  0.00     0.036 A 
HETATM   12  C   UNL     1      61.946  84.729  37.045  1.00  0.00     0.029 A 
HETATM   13  C   UNL     1      61.756  84.885  38.418  1.00  0.00     0.004 A 
HETATM   14  C   UNL     1      60.637  85.570  38.893  1.00  0.00     0.029 A 
BRANCH  11  15
HETATM   15  N   UNL     1      61.210  85.104  34.774  1.00  0.00    -0.327 N 
HETATM   16  C   UNL     1      60.505  84.280  33.893  1.00  0.00     0.226 C 
HETATM   17  O   UNL     1      59.574  83.528  34.152  1.00  0.00    -0.273 OA
HETATM   18  H   UNL     1      61.963  85.660  34.375  1.00  0.00     0.169 HD
BRANCH  16  19
HETATM   19  C   UNL     1      60.979  84.362  32.476  1.00  0.00     0.078 A 
HETATM   20  C   UNL     1      62.391  83.998  32.182  1.00  0.00     0.015 A 
HETATM   21  C   UNL     1      61.951  85.431  32.120  1.00  0.00     0.015 A 
ENDBRANCH  16  19
ENDBRANCH  11  15
ENDBRANCH   7   9
ENDBRANCH   3   7
BRANCH   5  22
HETATM   22  N   UNL     1      56.425  89.847  35.498  1.00  0.00    -0.341 N 
HETATM   23  H   UNL     1      56.997  90.608  35.859  1.00  0.00     0.167 HD
BRANCH  22  24
HETATM   24  C   UNL     1      55.641  90.238  34.393  1.00  0.00     0.034 A 
HETATM   25  C   UNL     1      54.467  90.965  34.592  1.00  0.00     0.045 A 
HETATM   26  C   UNL     1      53.693  91.353  33.499  1.00  0.00     0.050 A 
HETATM   27  C   UNL     1      54.093  91.014  32.206  1.00  0.00     0.016 A 
HETATM   28  C   UNL     1      55.267  90.287  32.007  1.00  0.00     0.003 A 
HETATM   29  C   UNL     1      56.041  89.900  33.101  1.00  0.00     0.029 A 
BRANCH  26  30
HETATM   30  C   UNL     1      52.437  92.129  33.711  1.00  0.00     0.417 C 
HETATM   31  F   UNL     1      52.102  92.927  32.655  1.00  0.00    -0.166 F 
HETATM   32  F   UNL     1      51.341  91.345  33.928  1.00  0.00    -0.166 F 
HETATM   33  F   UNL     1      52.512  92.963  34.791  1.00  0.00    -0.166 F 
ENDBRANCH  26  30
ENDBRANCH  22  24
ENDBRANCH   5  22
TORSDOF 7
ENDMDL
