MODEL 1
REMARK VINA RESULT:      -8.6      0.000      0.000
REMARK  7 active torsions:
REMARK  status: ('A' for Active; 'I' for Inactive)
REMARK       I    between atoms: N_5  and  C_13 
REMARK    1  A    between atoms: N_5  and  C_14 
REMARK    2  A    between atoms: N_6  and  C_17 
REMARK    3  A    between atoms: N_6  and  C_20 
REMARK    4  A    between atoms: N_7  and  C_21 
REMARK    5  A    between atoms: N_7  and  C_23 
REMARK    6  A    between atoms: C_10  and  C_13 
REMARK    7  A    between atoms: C_24  and  C_29 
ROOT
HETATM    1  N   UNL     1      58.240  88.629  35.592  1.00  0.00    -0.224 NA
HETATM    2  N   UNL     1      55.874  88.869  35.981  1.00  0.00    -0.224 NA
HETATM    3  C   UNL     1      58.015  88.896  34.289  1.00  0.00     0.133 A 
HETATM    4  C   UNL     1      56.766  89.156  33.764  1.00  0.00     0.100 A 
HETATM    5  C   UNL     1      55.715  89.130  34.663  1.00  0.00     0.133 A 
HETATM    6  C   UNL     1      57.141  88.631  36.370  1.00  0.00     0.237 A 
ENDROOT
BRANCH   3   7
HETATM    7  N   UNL     1      59.115  88.914  33.396  1.00  0.00    -0.341 N 
HETATM    8  H   UNL     1      59.286  89.827  32.983  1.00  0.00     0.167 HD
BRANCH   7   9
HETATM    9  C   UNL     1      60.015  87.919  32.981  1.00  0.00     0.035 A 
HETATM   10  C   UNL     1      59.622  86.578  32.963  1.00  0.00     0.059 A 
HETATM   11  C   UNL     1      60.516  85.591  32.549  1.00  0.00     0.036 A 
HETATM   12  C   UNL     1      61.807  85.940  32.150  1.00  0.00     0.029 A 
HETATM   13  C   UNL     1      62.203  87.277  32.165  1.00  0.00     0.004 A 
HETATM   14  C   UNL     1      61.309  88.265  32.581  1.00  0.00     0.029 A 
BRANCH  11  15
HETATM   15  N   UNL     1      60.120  84.253  32.532  1.00  0.00    -0.327 N 
HETATM   16  C   UNL     1      60.188  83.321  33.570  1.00  0.00     0.226 C 
HETATM   17  O   UNL     1      60.610  83.493  34.706  1.00  0.00    -0.273 OA
HETATM   18  H   UNL     1      59.740  83.924  31.646  1.00  0.00     0.169 HD
BRANCH  16  19
HETATM   19  C   UNL     1      59.671  81.965  33.202  1.00  0.00     0.078 A 
HETATM   20  C   UNL     1      60.399  80.771  33.709  1.00  0.00     0.015 A 
HETATM   21  C   UNL     1      60.470  81.139  32.256  1.00  0.00     0.015 A 
ENDBRANCH  16  19
ENDBRANCH  11  15
ENDBRANCH   7   9
ENDBRANCH   3   7
BRANCH   5  22
HETATM   22  N   UNL     1      54.423  89.390  34.167  1.00  0.00    -0.341 N 
HETATM   23  H   UNL     1      53.947  88.551  33.844  1.00  0.00     0.167 HD
BRANCH  22  24
HETATM   24  C   UNL     1      53.787  90.572  33.734  1.00  0.00     0.034 A 
HETATM   25  C   UNL     1      52.818  91.179  34.534  1.00  0.00     0.045 A 
HETATM   26  C   UNL     1      52.192  92.348  34.105  1.00  0.00     0.050 A 
HETATM   27  C   UNL     1      52.533  92.911  32.875  1.00  0.00     0.016 A 
HETATM   28  C   UNL     1      53.500  92.305  32.074  1.00  0.00     0.003 A 
HETATM   29  C   UNL     1      54.128  91.136  32.504  1.00  0.00     0.029 A 
BRANCH  26  30
HETATM   30  C   UNL     1      51.156  92.997  34.960  1.00  0.00     0.417 C 
HETATM   31  F   UNL     1      50.057  93.417  34.266  1.00  0.00    -0.166 F 
HETATM   32  F   UNL     1      50.667  92.181  35.940  1.00  0.00    -0.166 F 
HETATM   33  F   UNL     1      51.626  94.104  35.606  1.00  0.00    -0.166 F 
ENDBRANCH  26  30
ENDBRANCH  22  24
ENDBRANCH   5  22
TORSDOF 7
ENDMDL
MODEL 2
REMARK VINA RESULT:      -8.3      6.304     10.705
REMARK  7 active torsions:
REMARK  status: ('A' for Active; 'I' for Inactive)
REMARK       I    between atoms: N_5  and  C_13 
REMARK    1  A    between atoms: N_5  and  C_14 
REMARK    2  A    between atoms: N_6  and  C_17 
REMARK    3  A    between atoms: N_6  and  C_20 
REMARK    4  A    between atoms: N_7  and  C_21 
REMARK    5  A    between atoms: N_7  and  C_23 
REMARK    6  A    between atoms: C_10  and  C_13 
REMARK    7  A    between atoms: C_24  and  C_29 
ROOT
HETATM    1  N   UNL     1      55.430  87.586  37.725  1.00  0.00    -0.224 NA
HETATM    2  N   UNL     1      57.326  87.224  39.167  1.00  0.00    -0.224 NA
HETATM    3  C   UNL     1      56.279  87.605  36.676  1.00  0.00     0.133 A 
HETATM    4  C   UNL     1      57.644  87.441  36.792  1.00  0.00     0.100 A 
HETATM    5  C   UNL     1      58.125  87.252  38.075  1.00  0.00     0.133 A 
HETATM    6  C   UNL     1      56.013  87.395  38.924  1.00  0.00     0.237 A 
ENDROOT
BRANCH   3   7
HETATM    7  N   UNL     1      55.753  87.801  35.376  1.00  0.00    -0.341 N 
HETATM    8  H   UNL     1      55.532  86.935  34.893  1.00  0.00     0.167 HD
BRANCH   7   9
HETATM    9  C   UNL     1      55.473  88.960  34.631  1.00  0.00     0.035 A 
HETATM   10  C   UNL     1      54.317  89.701  34.891  1.00  0.00     0.059 A 
HETATM   11  C   UNL     1      54.041  90.851  34.152  1.00  0.00     0.036 A 
HETATM   12  C   UNL     1      54.920  91.266  33.151  1.00  0.00     0.029 A 
HETATM   13  C   UNL     1      56.075  90.529  32.889  1.00  0.00     0.004 A 
HETATM   14  C   UNL     1      56.351  89.378  33.627  1.00  0.00     0.029 A 
BRANCH  11  15
HETATM   15  N   UNL     1      52.886  91.589  34.415  1.00  0.00    -0.327 N 
HETATM   16  C   UNL     1      52.165  92.402  33.538  1.00  0.00     0.226 C 
HETATM   17  O   UNL     1      52.402  92.629  32.358  1.00  0.00    -0.273 OA
HETATM   18  H   UNL     1      52.538  91.524  35.369  1.00  0.00     0.169 HD
BRANCH  16  19
HETATM   19  C   UNL     1      50.966  93.049  34.158  1.00  0.00     0.078 A 
HETATM   20  C   UNL     1      51.072  94.472  34.579  1.00  0.00     0.015 A 
HETATM   21  C   UNL     1      51.017  93.382  35.608  1.00  0.00     0.015 A 
ENDBRANCH  16  19
ENDBRANCH  11  15
ENDBRANCH   7   9
ENDBRANCH   3   7
BRANCH   5  22
HETATM   22  N   UNL     1      59.513  87.082  38.237  1.00  0.00    -0.341 N 
HETATM   23  H   UNL     1      60.029  87.956  38.168  1.00  0.00     0.167 HD
BRANCH  22  24
HETATM   24  C   UNL     1      60.352  85.951  38.152  1.00  0.00     0.034 A 
HETATM   25  C   UNL     1      60.684  85.240  39.304  1.00  0.00     0.045 A 
HETATM   26  C   UNL     1      61.513  84.121  39.219  1.00  0.00     0.050 A 
HETATM   27  C   UNL     1      62.009  83.714  37.981  1.00  0.00     0.016 A 
HETATM   28  C   UNL     1      61.678  84.425  36.828  1.00  0.00     0.003 A 
HETATM   29  C   UNL     1      60.849  85.544  36.913  1.00  0.00     0.029 A 
BRANCH  26  30
HETATM   30  C   UNL     1      61.869  83.360  40.452  1.00  0.00     0.417 C 
HETATM   31  F   UNL     1      62.668  84.055  41.313  1.00  0.00    -0.166 F 
HETATM   32  F   UNL     1      60.786  82.987  41.195  1.00  0.00    -0.166 F 
HETATM   33  F   UNL     1      62.542  82.204  40.179  1.00  0.00    -0.166 F 
ENDBRANCH  26  30
ENDBRANCH  22  24
ENDBRANCH   5  22
TORSDOF 7
ENDMDL
MODEL 3
REMARK VINA RESULT:      -8.2      4.506      9.013
REMARK  7 active torsions:
REMARK  status: ('A' for Active; 'I' for Inactive)
REMARK       I    between atoms: N_5  and  C_13 
REMARK    1  A    between atoms: N_5  and  C_14 
REMARK    2  A    between atoms: N_6  and  C_17 
REMARK    3  A    between atoms: N_6  and  C_20 
REMARK    4  A    between atoms: N_7  and  C_21 
REMARK    5  A    between atoms: N_7  and  C_23 
REMARK    6  A    between atoms: C_10  and  C_13 
REMARK    7  A    between atoms: C_24  and  C_29 
ROOT
HETATM    1  N   UNL     1      59.783  90.026  33.361  1.00  0.00    -0.224 NA
HETATM    2  N   UNL     1      60.588  87.945  34.270  1.00  0.00    -0.224 NA
HETATM    3  C   UNL     1      58.679  89.890  34.124  1.00  0.00     0.133 A 
HETATM    4  C   UNL     1      58.461  88.824  34.974  1.00  0.00     0.100 A 
HETATM    5  C   UNL     1      59.458  87.866  35.010  1.00  0.00     0.133 A 
HETATM    6  C   UNL     1      60.683  89.032  33.481  1.00  0.00     0.237 A 
ENDROOT
BRANCH   3   7
HETATM    7  N   UNL     1      57.678  90.890  34.061  1.00  0.00    -0.341 N 
HETATM    8  H   UNL     1      57.973  91.783  34.445  1.00  0.00     0.167 HD
BRANCH   7   9
HETATM    9  C   UNL     1      56.364  90.885  33.565  1.00  0.00     0.035 A 
HETATM   10  C   UNL     1      55.385  91.689  34.155  1.00  0.00     0.059 A 
HETATM   11  C   UNL     1      54.081  91.685  33.661  1.00  0.00     0.036 A 
HETATM   12  C   UNL     1      53.750  90.876  32.574  1.00  0.00     0.029 A 
HETATM   13  C   UNL     1      54.722  90.072  31.981  1.00  0.00     0.004 A 
HETATM   14  C   UNL     1      56.027  90.075  32.476  1.00  0.00     0.029 A 
BRANCH  11  15
HETATM   15  N   UNL     1      53.108  92.491  34.254  1.00  0.00    -0.327 N 
HETATM   16  C   UNL     1      51.902  92.096  34.839  1.00  0.00     0.226 C 
HETATM   17  O   UNL     1      51.459  90.960  34.951  1.00  0.00    -0.273 OA
HETATM   18  H   UNL     1      53.308  93.488  34.248  1.00  0.00     0.169 HD
BRANCH  16  19
HETATM   19  C   UNL     1      51.092  93.232  35.382  1.00  0.00     0.078 A 
HETATM   20  C   UNL     1      50.315  94.064  34.425  1.00  0.00     0.015 A 
HETATM   21  C   UNL     1      51.541  94.620  35.088  1.00  0.00     0.015 A 
ENDBRANCH  16  19
ENDBRANCH  11  15
ENDBRANCH   7   9
ENDBRANCH   3   7
BRANCH   5  22
HETATM   22  N   UNL     1      59.274  86.762  35.865  1.00  0.00    -0.341 N 
HETATM   23  H   UNL     1      59.117  85.893  35.360  1.00  0.00     0.167 HD
BRANCH  22  24
HETATM   24  C   UNL     1      58.948  86.658  37.233  1.00  0.00     0.034 A 
HETATM   25  C   UNL     1      57.730  87.153  37.700  1.00  0.00     0.045 A 
HETATM   26  C   UNL     1      57.407  87.048  39.053  1.00  0.00     0.050 A 
HETATM   27  C   UNL     1      58.302  86.448  39.939  1.00  0.00     0.016 A 
HETATM   28  C   UNL     1      59.519  85.953  39.472  1.00  0.00     0.003 A 
HETATM   29  C   UNL     1      59.842  86.058  38.119  1.00  0.00     0.029 A 
BRANCH  26  30
HETATM   30  C   UNL     1      56.105  87.577  39.553  1.00  0.00     0.417 C 
HETATM   31  F   UNL     1      55.061  87.356  38.701  1.00  0.00    -0.166 F 
HETATM   32  F   UNL     1      55.715  87.033  40.743  1.00  0.00    -0.166 F 
HETATM   33  F   UNL     1      56.131  88.927  39.758  1.00  0.00    -0.166 F 
ENDBRANCH  26  30
ENDBRANCH  22  24
ENDBRANCH   5  22
TORSDOF 7
ENDMDL
MODEL 4
REMARK VINA RESULT:      -8.2      1.493      2.136
REMARK  7 active torsions:
REMARK  status: ('A' for Active; 'I' for Inactive)
REMARK       I    between atoms: N_5  and  C_13 
REMARK    1  A    between atoms: N_5  and  C_14 
REMARK    2  A    between atoms: N_6  and  C_17 
REMARK    3  A    between atoms: N_6  and  C_20 
REMARK    4  A    between atoms: N_7  and  C_21 
REMARK    5  A    between atoms: N_7  and  C_23 
REMARK    6  A    between atoms: C_10  and  C_13 
REMARK    7  A    between atoms: C_24  and  C_29 
ROOT
HETATM    1  N   UNL     1      57.673  88.445  37.579  1.00  0.00    -0.224 NA
HETATM    2  N   UNL     1      55.364  88.172  36.947  1.00  0.00    -0.224 NA
HETATM    3  C   UNL     1      57.895  89.018  36.377  1.00  0.00     0.133 A 
HETATM    4  C   UNL     1      56.915  89.201  35.423  1.00  0.00     0.100 A 
HETATM    5  C   UNL     1      55.650  88.755  35.760  1.00  0.00     0.133 A 
HETATM    6  C   UNL     1      56.404  88.050  37.794  1.00  0.00     0.237 A 
ENDROOT
BRANCH   3   7
HETATM    7  N   UNL     1      59.203  89.463  36.065  1.00  0.00    -0.341 N 
HETATM    8  H   UNL     1      59.611  90.056  36.782  1.00  0.00     0.167 HD
BRANCH   7   9
HETATM    9  C   UNL     1      60.042  89.238  34.961  1.00  0.00     0.035 A 
HETATM   10  C   UNL     1      60.436  87.939  34.630  1.00  0.00     0.059 A 
HETATM   11  C   UNL     1      61.268  87.716  33.533  1.00  0.00     0.036 A 
HETATM   12  C   UNL     1      61.710  88.792  32.762  1.00  0.00     0.029 A 
HETATM   13  C   UNL     1      61.319  90.090  33.088  1.00  0.00     0.004 A 
HETATM   14  C   UNL     1      60.487  90.313  34.186  1.00  0.00     0.029 A 
BRANCH  11  15
HETATM   15  N   UNL     1      61.659  86.417  33.205  1.00  0.00    -0.327 N 
HETATM   16  C   UNL     1      60.938  85.454  32.496  1.00  0.00     0.226 C 
HETATM   17  O   UNL     1      59.816  85.558  32.018  1.00  0.00    -0.273 OA
HETATM   18  H   UNL     1      62.583  86.146  33.534  1.00  0.00     0.169 HD
BRANCH  16  19
HETATM   19  C   UNL     1      61.666  84.157  32.325  1.00  0.00     0.078 A 
HETATM   20  C   UNL     1      60.890  82.893  32.435  1.00  0.00     0.015 A 
HETATM   21  C   UNL     1      61.848  83.288  33.519  1.00  0.00     0.015 A 
ENDBRANCH  16  19
ENDBRANCH  11  15
ENDBRANCH   7   9
ENDBRANCH   3   7
BRANCH   5  22
HETATM   22  N   UNL     1      54.622  88.923  34.813  1.00  0.00    -0.341 N 
HETATM   23  H   UNL     1      54.367  88.055  34.349  1.00  0.00     0.167 HD
BRANCH  22  24
HETATM   24  C   UNL     1      54.107  90.059  34.155  1.00  0.00     0.034 A 
HETATM   25  C   UNL     1      53.090  90.808  34.746  1.00  0.00     0.045 A 
HETATM   26  C   UNL     1      52.582  91.932  34.095  1.00  0.00     0.050 A 
HETATM   27  C   UNL     1      53.092  92.307  32.852  1.00  0.00     0.016 A 
HETATM   28  C   UNL     1      54.109  91.559  32.260  1.00  0.00     0.003 A 
HETATM   29  C   UNL     1      54.617  90.435  32.912  1.00  0.00     0.029 A 
BRANCH  26  30
HETATM   30  C   UNL     1      51.494  92.733  34.727  1.00  0.00     0.417 C 
HETATM   31  F   UNL     1      51.934  93.879  35.326  1.00  0.00    -0.166 F 
HETATM   32  F   UNL     1      50.532  93.138  33.847  1.00  0.00    -0.166 F 
HETATM   33  F   UNL     1      50.832  92.042  35.701  1.00  0.00    -0.166 F 
ENDBRANCH  26  30
ENDBRANCH  22  24
ENDBRANCH   5  22
TORSDOF 7
ENDMDL
MODEL 5
REMARK VINA RESULT:      -8.2      2.469      3.411
REMARK  7 active torsions:
REMARK  status: ('A' for Active; 'I' for Inactive)
REMARK       I    between atoms: N_5  and  C_13 
REMARK    1  A    between atoms: N_5  and  C_14 
REMARK    2  A    between atoms: N_6  and  C_17 
REMARK    3  A    between atoms: N_6  and  C_20 
REMARK    4  A    between atoms: N_7  and  C_21 
REMARK    5  A    between atoms: N_7  and  C_23 
REMARK    6  A    between atoms: C_10  and  C_13 
REMARK    7  A    between atoms: C_24  and  C_29 
ROOT
HETATM    1  N   UNL     1      56.744  87.634  39.027  1.00  0.00    -0.224 NA
HETATM    2  N   UNL     1      54.890  87.954  37.520  1.00  0.00    -0.224 NA
HETATM    3  C   UNL     1      57.567  87.646  37.958  1.00  0.00     0.133 A 
HETATM    4  C   UNL     1      57.132  87.806  36.658  1.00  0.00     0.100 A 
HETATM    5  C   UNL     1      55.768  87.957  36.490  1.00  0.00     0.133 A 
HETATM    6  C   UNL     1      55.437  87.790  38.740  1.00  0.00     0.237 A 
ENDROOT
BRANCH   3   7
HETATM    7  N   UNL     1      58.959  87.488  38.166  1.00  0.00    -0.341 N 
HETATM    8  H   UNL     1      59.382  88.258  38.676  1.00  0.00     0.167 HD
BRANCH   7   9
HETATM    9  C   UNL     1      59.861  86.472  37.810  1.00  0.00     0.035 A 
HETATM   10  C   UNL     1      60.128  86.207  36.464  1.00  0.00     0.059 A 
HETATM   11  C   UNL     1      61.025  85.199  36.112  1.00  0.00     0.036 A 
HETATM   12  C   UNL     1      61.659  84.451  37.104  1.00  0.00     0.029 A 
HETATM   13  C   UNL     1      61.395  84.711  38.449  1.00  0.00     0.004 A 
HETATM   14  C   UNL     1      60.497  85.719  38.801  1.00  0.00     0.029 A 
BRANCH  11  15
HETATM   15  N   UNL     1      61.290  84.939  34.767  1.00  0.00    -0.327 N 
HETATM   16  C   UNL     1      60.566  84.131  33.887  1.00  0.00     0.226 C 
HETATM   17  O   UNL     1      59.551  83.489  34.121  1.00  0.00    -0.273 OA
HETATM   18  H   UNL     1      62.119  85.395  34.392  1.00  0.00     0.169 HD
BRANCH  16  19
HETATM   19  C   UNL     1      61.138  84.078  32.504  1.00  0.00     0.078 A 
HETATM   20  C   UNL     1      62.574  83.720  32.348  1.00  0.00     0.015 A 
HETATM   21  C   UNL     1      62.115  85.128  32.105  1.00  0.00     0.015 A 
ENDBRANCH  16  19
ENDBRANCH  11  15
ENDBRANCH   7   9
ENDBRANCH   3   7
BRANCH   5  22
HETATM   22  N   UNL     1      55.283  88.123  35.178  1.00  0.00    -0.341 N 
HETATM   23  H   UNL     1      55.381  87.284  34.612  1.00  0.00     0.167 HD
BRANCH  22  24
HETATM   24  C   UNL     1      54.997  89.267  34.404  1.00  0.00     0.034 A 
HETATM   25  C   UNL     1      53.854  90.021  34.667  1.00  0.00     0.045 A 
HETATM   26  C   UNL     1      53.573  91.152  33.901  1.00  0.00     0.050 A 
HETATM   27  C   UNL     1      54.435  91.530  32.872  1.00  0.00     0.016 A 
HETATM   28  C   UNL     1      55.579  90.776  32.608  1.00  0.00     0.003 A 
HETATM   29  C   UNL     1      55.860  89.644  33.374  1.00  0.00     0.029 A 
BRANCH  26  30
HETATM   30  C   UNL     1      52.350  91.959  34.183  1.00  0.00     0.417 C 
HETATM   31  F   UNL     1      51.806  92.535  33.071  1.00  0.00    -0.166 F 
HETATM   32  F   UNL     1      51.335  91.235  34.741  1.00  0.00    -0.166 F 
HETATM   33  F   UNL     1      52.586  92.987  35.050  1.00  0.00    -0.166 F 
ENDBRANCH  26  30
ENDBRANCH  22  24
ENDBRANCH   5  22
TORSDOF 7
ENDMDL
MODEL 6
REMARK VINA RESULT:      -8.1      7.114     10.989
REMARK  7 active torsions:
REMARK  status: ('A' for Active; 'I' for Inactive)
REMARK       I    between atoms: N_5  and  C_13 
REMARK    1  A    between atoms: N_5  and  C_14 
REMARK    2  A    between atoms: N_6  and  C_17 
REMARK    3  A    between atoms: N_6  and  C_20 
REMARK    4  A    between atoms: N_7  and  C_21 
REMARK    5  A    between atoms: N_7  and  C_23 
REMARK    6  A    between atoms: C_10  and  C_13 
REMARK    7  A    between atoms: C_24  and  C_29 
ROOT
HETATM    1  N   UNL     1      56.517  86.715  38.713  1.00  0.00    -0.224 NA
HETATM    2  N   UNL     1      58.071  86.193  40.479  1.00  0.00    -0.224 NA
HETATM    3  C   UNL     1      57.558  86.743  37.855  1.00  0.00     0.133 A 
HETATM    4  C   UNL     1      58.866  86.508  38.229  1.00  0.00     0.100 A 
HETATM    5  C   UNL     1      59.072  86.235  39.569  1.00  0.00     0.133 A 
HETATM    6  C   UNL     1      56.840  86.439  39.991  1.00  0.00     0.237 A 
ENDROOT
BRANCH   3   7
HETATM    7  N   UNL     1      57.310  87.027  36.490  1.00  0.00    -0.341 N 
HETATM    8  H   UNL     1      57.171  86.196  35.922  1.00  0.00     0.167 HD
BRANCH   7   9
HETATM    9  C   UNL     1      57.214  88.233  35.775  1.00  0.00     0.035 A 
HETATM   10  C   UNL     1      55.966  88.821  35.552  1.00  0.00     0.059 A 
HETATM   11  C   UNL     1      55.871  90.018  34.843  1.00  0.00     0.036 A 
HETATM   12  C   UNL     1      57.025  90.633  34.355  1.00  0.00     0.029 A 
HETATM   13  C   UNL     1      58.272  90.050  34.575  1.00  0.00     0.004 A 
HETATM   14  C   UNL     1      58.366  88.851  35.283  1.00  0.00     0.029 A 
BRANCH  11  15
HETATM   15  N   UNL     1      54.623  90.603  34.624  1.00  0.00    -0.327 N 
HETATM   16  C   UNL     1      53.780  90.444  33.522  1.00  0.00     0.226 C 
HETATM   17  O   UNL     1      53.967  89.757  32.526  1.00  0.00    -0.273 OA
HETATM   18  H   UNL     1      54.300  91.225  35.362  1.00  0.00     0.169 HD
BRANCH  16  19
HETATM   19  C   UNL     1      52.506  91.225  33.617  1.00  0.00     0.078 A 
HETATM   20  C   UNL     1      52.447  92.559  32.961  1.00  0.00     0.015 A 
HETATM   21  C   UNL     1      52.495  92.454  34.457  1.00  0.00     0.015 A 
ENDBRANCH  16  19
ENDBRANCH  11  15
ENDBRANCH   7   9
ENDBRANCH   3   7
BRANCH   5  22
HETATM   22  N   UNL     1      60.392  85.990  39.992  1.00  0.00    -0.341 N 
HETATM   23  H   UNL     1      61.085  86.470  39.422  1.00  0.00     0.167 HD
BRANCH  22  24
HETATM   24  C   UNL     1      60.964  84.992  40.809  1.00  0.00     0.034 A 
HETATM   25  C   UNL     1      61.112  85.212  42.179  1.00  0.00     0.045 A 
HETATM   26  C   UNL     1      61.675  84.224  42.986  1.00  0.00     0.050 A 
HETATM   27  C   UNL     1      62.091  83.017  42.425  1.00  0.00     0.016 A 
HETATM   28  C   UNL     1      61.943  82.797  41.056  1.00  0.00     0.003 A 
HETATM   29  C   UNL     1      61.379  83.785  40.248  1.00  0.00     0.029 A 
BRANCH  26  30
HETATM   30  C   UNL     1      61.834  84.459  44.451  1.00  0.00     0.417 C 
HETATM   31  F   UNL     1      62.761  83.646  45.038  1.00  0.00    -0.166 F 
HETATM   32  F   UNL     1      62.228  85.729  44.761  1.00  0.00    -0.166 F 
HETATM   33  F   UNL     1      60.676  84.255  45.144  1.00  0.00    -0.166 F 
ENDBRANCH  26  30
ENDBRANCH  22  24
ENDBRANCH   5  22
TORSDOF 7
ENDMDL
MODEL 7
REMARK VINA RESULT:      -8.1      5.330     10.165
REMARK  7 active torsions:
REMARK  status: ('A' for Active; 'I' for Inactive)
REMARK       I    between atoms: N_5  and  C_13 
REMARK    1  A    between atoms: N_5  and  C_14 
REMARK    2  A    between atoms: N_6  and  C_17 
REMARK    3  A    between atoms: N_6  and  C_20 
REMARK    4  A    between atoms: N_7  and  C_21 
REMARK    5  A    between atoms: N_7  and  C_23 
REMARK    6  A    between atoms: C_10  and  C_13 
REMARK    7  A    between atoms: C_24  and  C_29 
ROOT
HETATM    1  N   UNL     1      55.344  87.777  37.672  1.00  0.00    -0.224 NA
HETATM    2  N   UNL     1      57.180  87.306  39.160  1.00  0.00    -0.224 NA
HETATM    3  C   UNL     1      56.201  87.658  36.637  1.00  0.00     0.133 A 
HETATM    4  C   UNL     1      57.542  87.367  36.781  1.00  0.00     0.100 A 
HETATM    5  C   UNL     1      57.988  87.199  38.080  1.00  0.00     0.133 A 
HETATM    6  C   UNL     1      55.892  87.593  38.888  1.00  0.00     0.237 A 
ENDROOT
BRANCH   3   7
HETATM    7  N   UNL     1      55.710  87.837  35.320  1.00  0.00    -0.341 N 
HETATM    8  H   UNL     1      55.535  86.964  34.831  1.00  0.00     0.167 HD
BRANCH   7   9
HETATM    9  C   UNL     1      55.414  88.985  34.567  1.00  0.00     0.035 A 
HETATM   10  C   UNL     1      54.273  89.740  34.852  1.00  0.00     0.059 A 
HETATM   11  C   UNL     1      53.981  90.880  34.105  1.00  0.00     0.036 A 
HETATM   12  C   UNL     1      54.830  91.272  33.069  1.00  0.00     0.029 A 
HETATM   13  C   UNL     1      55.970  90.522  32.780  1.00  0.00     0.004 A 
HETATM   14  C   UNL     1      56.261  89.381  33.528  1.00  0.00     0.029 A 
BRANCH  11  15
HETATM   15  N   UNL     1      52.841  91.631  34.394  1.00  0.00    -0.327 N 
HETATM   16  C   UNL     1      52.126  92.474  33.540  1.00  0.00     0.226 C 
HETATM   17  O   UNL     1      52.357  92.722  32.364  1.00  0.00    -0.273 OA
HETATM   18  H   UNL     1      52.500  91.552  35.350  1.00  0.00     0.169 HD
BRANCH  16  19
HETATM   19  C   UNL     1      50.944  93.128  34.185  1.00  0.00     0.078 A 
HETATM   20  C   UNL     1      51.067  94.549  34.607  1.00  0.00     0.015 A 
HETATM   21  C   UNL     1      51.025  93.457  35.635  1.00  0.00     0.015 A 
ENDBRANCH  16  19
ENDBRANCH  11  15
ENDBRANCH   7   9
ENDBRANCH   3   7
BRANCH   5  22
HETATM   22  N   UNL     1      59.351  86.901  38.271  1.00  0.00    -0.341 N 
HETATM   23  H   UNL     1      59.865  87.665  38.705  1.00  0.00     0.167 HD
BRANCH  22  24
HETATM   24  C   UNL     1      60.203  85.926  37.712  1.00  0.00     0.034 A 
HETATM   25  C   UNL     1      60.100  85.602  36.359  1.00  0.00     0.045 A 
HETATM   26  C   UNL     1      60.944  84.639  35.807  1.00  0.00     0.050 A 
HETATM   27  C   UNL     1      61.890  83.999  36.607  1.00  0.00     0.016 A 
HETATM   28  C   UNL     1      61.993  84.323  37.960  1.00  0.00     0.003 A 
HETATM   29  C   UNL     1      61.149  85.287  38.512  1.00  0.00     0.029 A 
BRANCH  26  30
HETATM   30  C   UNL     1      60.834  84.291  34.360  1.00  0.00     0.417 C 
HETATM   31  F   UNL     1      59.908  83.323  34.098  1.00  0.00    -0.166 F 
HETATM   32  F   UNL     1      60.479  85.347  33.571  1.00  0.00    -0.166 F 
HETATM   33  F   UNL     1      62.008  83.824  33.842  1.00  0.00    -0.166 F 
ENDBRANCH  26  30
ENDBRANCH  22  24
ENDBRANCH   5  22
TORSDOF 7
ENDMDL
MODEL 8
REMARK VINA RESULT:      -7.8      5.330      9.827
REMARK  7 active torsions:
REMARK  status: ('A' for Active; 'I' for Inactive)
REMARK       I    between atoms: N_5  and  C_13 
REMARK    1  A    between atoms: N_5  and  C_14 
REMARK    2  A    between atoms: N_6  and  C_17 
REMARK    3  A    between atoms: N_6  and  C_20 
REMARK    4  A    between atoms: N_7  and  C_21 
REMARK    5  A    between atoms: N_7  and  C_23 
REMARK    6  A    between atoms: C_10  and  C_13 
REMARK    7  A    between atoms: C_24  and  C_29 
ROOT
HETATM    1  N   UNL     1      58.600  89.485  35.573  1.00  0.00    -0.224 NA
HETATM    2  N   UNL     1      60.302  88.519  36.980  1.00  0.00    -0.224 NA
HETATM    3  C   UNL     1      57.868  88.366  35.754  1.00  0.00     0.133 A 
HETATM    4  C   UNL     1      58.279  87.297  36.524  1.00  0.00     0.100 A 
HETATM    5  C   UNL     1      59.519  87.424  37.123  1.00  0.00     0.133 A 
HETATM    6  C   UNL     1      59.790  89.494  36.204  1.00  0.00     0.237 A 
ENDROOT
BRANCH   3   7
HETATM    7  N   UNL     1      56.602  88.270  35.126  1.00  0.00    -0.341 N 
HETATM    8  H   UNL     1      56.115  87.401  35.328  1.00  0.00     0.167 HD
BRANCH   7   9
HETATM    9  C   UNL     1      55.892  89.143  34.285  1.00  0.00     0.035 A 
HETATM   10  C   UNL     1      54.759  89.810  34.758  1.00  0.00     0.059 A 
HETATM   11  C   UNL     1      54.056  90.677  33.924  1.00  0.00     0.036 A 
HETATM   12  C   UNL     1      54.483  90.883  32.611  1.00  0.00     0.029 A 
HETATM   13  C   UNL     1      55.613  90.220  32.134  1.00  0.00     0.004 A 
HETATM   14  C   UNL     1      56.316  89.351  32.970  1.00  0.00     0.029 A 
BRANCH  11  15
HETATM   15  N   UNL     1      52.925  91.342  34.401  1.00  0.00    -0.327 N 
HETATM   16  C   UNL     1      52.144  92.294  33.742  1.00  0.00     0.226 C 
HETATM   17  O   UNL     1      52.295  92.736  32.611  1.00  0.00    -0.273 OA
HETATM   18  H   UNL     1      52.647  91.099  35.349  1.00  0.00     0.169 HD
BRANCH  16  19
HETATM   19  C   UNL     1      50.996  92.804  34.557  1.00  0.00     0.078 A 
HETATM   20  C   UNL     1      50.578  94.221  34.379  1.00  0.00     0.015 A 
HETATM   21  C   UNL     1      51.279  93.791  35.634  1.00  0.00     0.015 A 
ENDBRANCH  16  19
ENDBRANCH  11  15
ENDBRANCH   7   9
ENDBRANCH   3   7
BRANCH   5  22
HETATM   22  N   UNL     1      59.976  86.355  37.918  1.00  0.00    -0.341 N 
HETATM   23  H   UNL     1      60.296  85.562  37.367  1.00  0.00     0.167 HD
BRANCH  22  24
HETATM   24  C   UNL     1      59.788  86.028  39.277  1.00  0.00     0.034 A 
HETATM   25  C   UNL     1      58.515  86.095  39.843  1.00  0.00     0.045 A 
HETATM   26  C   UNL     1      58.331  85.770  41.186  1.00  0.00     0.050 A 
HETATM   27  C   UNL     1      59.420  85.377  41.964  1.00  0.00     0.016 A 
HETATM   28  C   UNL     1      60.693  85.310  41.399  1.00  0.00     0.003 A 
HETATM   29  C   UNL     1      60.877  85.636  40.055  1.00  0.00     0.029 A 
BRANCH  26  30
HETATM   30  C   UNL     1      56.969  85.842  41.791  1.00  0.00     0.417 C 
HETATM   31  F   UNL     1      56.145  86.743  41.181  1.00  0.00    -0.166 F 
HETATM   32  F   UNL     1      56.291  84.657  41.753  1.00  0.00    -0.166 F 
HETATM   33  F   UNL     1      56.998  86.205  43.107  1.00  0.00    -0.166 F 
ENDBRANCH  26  30
ENDBRANCH  22  24
ENDBRANCH   5  22
TORSDOF 7
ENDMDL
MODEL 9
REMARK VINA RESULT:      -7.8      3.650      5.188
REMARK  7 active torsions:
REMARK  status: ('A' for Active; 'I' for Inactive)
REMARK       I    between atoms: N_5  and  C_13 
REMARK    1  A    between atoms: N_5  and  C_14 
REMARK    2  A    between atoms: N_6  and  C_17 
REMARK    3  A    between atoms: N_6  and  C_20 
REMARK    4  A    between atoms: N_7  and  C_21 
REMARK    5  A    between atoms: N_7  and  C_23 
REMARK    6  A    between atoms: C_10  and  C_13 
REMARK    7  A    between atoms: C_24  and  C_29 
ROOT
HETATM    1  N   UNL     1      56.921  87.289  39.660  1.00  0.00    -0.224 NA
HETATM    2  N   UNL     1      55.192  87.958  38.121  1.00  0.00    -0.224 NA
HETATM    3  C   UNL     1      57.677  86.937  38.599  1.00  0.00     0.133 A 
HETATM    4  C   UNL     1      57.265  87.064  37.288  1.00  0.00     0.100 A 
HETATM    5  C   UNL     1      55.998  87.586  37.100  1.00  0.00     0.133 A 
HETATM    6  C   UNL     1      55.707  87.784  39.353  1.00  0.00     0.237 A 
ENDROOT
BRANCH   3   7
HETATM    7  N   UNL     1      58.970  86.405  38.828  1.00  0.00    -0.341 N 
HETATM    8  H   UNL     1      58.962  85.539  39.359  1.00  0.00     0.167 HD
BRANCH   7   9
HETATM    9  C   UNL     1      60.253  86.840  38.459  1.00  0.00     0.035 A 
HETATM   10  C   UNL     1      60.420  87.687  37.360  1.00  0.00     0.059 A 
HETATM   11  C   UNL     1      61.694  88.119  36.994  1.00  0.00     0.036 A 
HETATM   12  C   UNL     1      62.808  87.707  37.727  1.00  0.00     0.029 A 
HETATM   13  C   UNL     1      62.647  86.862  38.824  1.00  0.00     0.004 A 
HETATM   14  C   UNL     1      61.371  86.429  39.189  1.00  0.00     0.029 A 
BRANCH  11  15
HETATM   15  N   UNL     1      61.856  88.966  35.896  1.00  0.00    -0.327 N 
HETATM   16  C   UNL     1      61.932  88.619  34.546  1.00  0.00     0.226 C 
HETATM   17  O   UNL     1      61.870  87.500  34.053  1.00  0.00    -0.273 OA
HETATM   18  H   UNL     1      61.934  89.956  36.120  1.00  0.00     0.169 HD
BRANCH  16  19
HETATM   19  C   UNL     1      62.108  89.790  33.629  1.00  0.00     0.078 A 
HETATM   20  C   UNL     1      61.398  91.055  33.957  1.00  0.00     0.015 A 
HETATM   21  C   UNL     1      60.949  90.215  32.798  1.00  0.00     0.015 A 
ENDBRANCH  16  19
ENDBRANCH  11  15
ENDBRANCH   7   9
ENDBRANCH   3   7
BRANCH   5  22
HETATM   22  N   UNL     1      55.540  87.733  35.777  1.00  0.00    -0.341 N 
HETATM   23  H   UNL     1      55.310  86.844  35.338  1.00  0.00     0.167 HD
BRANCH  22  24
HETATM   24  C   UNL     1      55.636  88.787  34.844  1.00  0.00     0.034 A 
HETATM   25  C   UNL     1      54.538  89.614  34.610  1.00  0.00     0.045 A 
HETATM   26  C   UNL     1      54.634  90.657  33.689  1.00  0.00     0.050 A 
HETATM   27  C   UNL     1      55.829  90.873  33.002  1.00  0.00     0.016 A 
HETATM   28  C   UNL     1      56.927  90.045  33.235  1.00  0.00     0.003 A 
HETATM   29  C   UNL     1      56.830  89.002  34.157  1.00  0.00     0.029 A 
BRANCH  26  30
HETATM   30  C   UNL     1      53.460  91.543  33.438  1.00  0.00     0.417 C 
HETATM   31  F   UNL     1      53.281  92.499  34.396  1.00  0.00    -0.166 F 
HETATM   32  F   UNL     1      53.534  92.227  32.259  1.00  0.00    -0.166 F 
HETATM   33  F   UNL     1      52.283  90.852  33.387  1.00  0.00    -0.166 F 
ENDBRANCH  26  30
ENDBRANCH  22  24
ENDBRANCH   5  22
TORSDOF 7
ENDMDL
