MODEL 1
REMARK VINA RESULT:      -8.4      0.000      0.000
REMARK  7 active torsions:
REMARK  status: ('A' for Active; 'I' for Inactive)
REMARK       I    between atoms: N_5  and  C_13 
REMARK    1  A    between atoms: N_5  and  C_14 
REMARK    2  A    between atoms: N_6  and  C_17 
REMARK    3  A    between atoms: N_6  and  C_20 
REMARK    4  A    between atoms: N_7  and  C_21 
REMARK    5  A    between atoms: N_7  and  C_23 
REMARK    6  A    between atoms: C_10  and  C_13 
REMARK    7  A    between atoms: C_24  and  C_29 
ROOT
HETATM    1  N   UNL     1      57.767  88.661  36.679  1.00  0.00    -0.224 NA
HETATM    2  N   UNL     1      55.372  88.541  36.442  1.00  0.00    -0.224 NA
HETATM    3  C   UNL     1      57.826  89.198  35.443  1.00  0.00     0.133 A 
HETATM    4  C   UNL     1      56.717  89.434  34.656  1.00  0.00     0.100 A 
HETATM    5  C   UNL     1      55.498  89.083  35.208  1.00  0.00     0.133 A 
HETATM    6  C   UNL     1      56.527  88.360  37.110  1.00  0.00     0.237 A 
ENDROOT
BRANCH   3   7
HETATM    7  N   UNL     1      59.091  89.545  34.908  1.00  0.00    -0.341 N 
HETATM    8  H   UNL     1      59.428  90.451  35.221  1.00  0.00     0.167 HD
BRANCH   7   9
HETATM    9  C   UNL     1      59.968  88.876  34.038  1.00  0.00     0.035 A 
HETATM   10  C   UNL     1      59.701  87.562  33.643  1.00  0.00     0.059 A 
HETATM   11  C   UNL     1      60.572  86.900  32.778  1.00  0.00     0.036 A 
HETATM   12  C   UNL     1      61.713  87.549  32.304  1.00  0.00     0.029 A 
HETATM   13  C   UNL     1      61.983  88.859  32.696  1.00  0.00     0.004 A 
HETATM   14  C   UNL     1      61.112  89.522  33.562  1.00  0.00     0.029 A 
BRANCH  11  15
HETATM   15  N   UNL     1      60.302  85.589  32.385  1.00  0.00    -0.327 N 
HETATM   16  C   UNL     1      60.462  84.416  33.127  1.00  0.00     0.226 C 
HETATM   17  O   UNL     1      60.873  84.305  34.275  1.00  0.00    -0.273 OA
HETATM   18  H   UNL     1      59.950  85.484  31.435  1.00  0.00     0.169 HD
BRANCH  16  19
HETATM   19  C   UNL     1      60.072  83.174  32.389  1.00  0.00     0.078 A 
HETATM   20  C   UNL     1      59.701  81.970  33.181  1.00  0.00     0.015 A 
HETATM   21  C   UNL     1      60.998  82.010  32.429  1.00  0.00     0.015 A 
ENDBRANCH  16  19
ENDBRANCH  11  15
ENDBRANCH   7   9
ENDBRANCH   3   7
BRANCH   5  22
HETATM   22  N   UNL     1      54.341  89.308  34.437  1.00  0.00    -0.341 N 
HETATM   23  H   UNL     1      54.002  88.465  33.978  1.00  0.00     0.167 HD
BRANCH  22  24
HETATM   24  C   UNL     1      53.753  90.480  33.918  1.00  0.00     0.034 A 
HETATM   25  C   UNL     1      52.791  91.167  34.659  1.00  0.00     0.045 A 
HETATM   26  C   UNL     1      52.211  92.326  34.145  1.00  0.00     0.050 A 
HETATM   27  C   UNL     1      52.593  92.799  32.889  1.00  0.00     0.016 A 
HETATM   28  C   UNL     1      53.554  92.113  32.148  1.00  0.00     0.003 A 
HETATM   29  C   UNL     1      54.134  90.953  32.662  1.00  0.00     0.029 A 
BRANCH  26  30
HETATM   30  C   UNL     1      51.182  93.061  34.937  1.00  0.00     0.417 C 
HETATM   31  F   UNL     1      51.645  94.216  35.498  1.00  0.00    -0.166 F 
HETATM   32  F   UNL     1      50.092  93.432  34.204  1.00  0.00    -0.166 F 
HETATM   33  F   UNL     1      50.691  92.321  35.975  1.00  0.00    -0.166 F 
ENDBRANCH  26  30
ENDBRANCH  22  24
ENDBRANCH   5  22
TORSDOF 7
ENDMDL
MODEL 2
REMARK VINA RESULT:      -8.2      1.402      1.705
REMARK  7 active torsions:
REMARK  status: ('A' for Active; 'I' for Inactive)
REMARK       I    between atoms: N_5  and  C_13 
REMARK    1  A    between atoms: N_5  and  C_14 
REMARK    2  A    between atoms: N_6  and  C_17 
REMARK    3  A    between atoms: N_6  and  C_20 
REMARK    4  A    between atoms: N_7  and  C_21 
REMARK    5  A    between atoms: N_7  and  C_23 
REMARK    6  A    between atoms: C_10  and  C_13 
REMARK    7  A    between atoms: C_24  and  C_29 
ROOT
HETATM    1  N   UNL     1      57.395  88.279  38.326  1.00  0.00    -0.224 NA
HETATM    2  N   UNL     1      55.236  88.106  37.271  1.00  0.00    -0.224 NA
HETATM    3  C   UNL     1      57.910  88.630  37.129  1.00  0.00     0.133 A 
HETATM    4  C   UNL     1      57.162  88.739  35.975  1.00  0.00     0.100 A 
HETATM    5  C   UNL     1      55.813  88.463  36.100  1.00  0.00     0.133 A 
HETATM    6  C   UNL     1      56.071  88.034  38.325  1.00  0.00     0.237 A 
ENDROOT
BRANCH   3   7
HETATM    7  N   UNL     1      59.297  88.905  37.037  1.00  0.00    -0.341 N 
HETATM    8  H   UNL     1      59.672  89.372  37.858  1.00  0.00     0.167 HD
BRANCH   7   9
HETATM    9  C   UNL     1      60.249  88.651  36.037  1.00  0.00     0.035 A 
HETATM   10  C   UNL     1      60.399  87.362  35.518  1.00  0.00     0.059 A 
HETATM   11  C   UNL     1      61.343  87.111  34.523  1.00  0.00     0.036 A 
HETATM   12  C   UNL     1      62.143  88.149  34.043  1.00  0.00     0.029 A 
HETATM   13  C   UNL     1      61.998  89.437  34.557  1.00  0.00     0.004 A 
HETATM   14  C   UNL     1      61.053  89.687  35.553  1.00  0.00     0.029 A 
BRANCH  11  15
HETATM   15  N   UNL     1      61.489  85.822  34.008  1.00  0.00    -0.327 N 
HETATM   16  C   UNL     1      60.772  85.224  32.969  1.00  0.00     0.226 C 
HETATM   17  O   UNL     1      59.870  85.714  32.301  1.00  0.00    -0.273 OA
HETATM   18  H   UNL     1      62.205  85.255  34.455  1.00  0.00     0.169 HD
BRANCH  16  19
HETATM   19  C   UNL     1      61.193  83.819  32.673  1.00  0.00     0.078 A 
HETATM   20  C   UNL     1      60.155  82.850  32.230  1.00  0.00     0.015 A 
HETATM   21  C   UNL     1      60.753  82.742  33.601  1.00  0.00     0.015 A 
ENDBRANCH  16  19
ENDBRANCH  11  15
ENDBRANCH   7   9
ENDBRANCH   3   7
BRANCH   5  22
HETATM   22  N   UNL     1      55.014  88.563  34.945  1.00  0.00    -0.341 N 
HETATM   23  H   UNL     1      54.967  87.692  34.420  1.00  0.00     0.167 HD
BRANCH  22  24
HETATM   24  C   UNL     1      54.541  89.666  34.203  1.00  0.00     0.034 A 
HETATM   25  C   UNL     1      53.477  90.428  34.687  1.00  0.00     0.045 A 
HETATM   26  C   UNL     1      53.012  91.519  33.954  1.00  0.00     0.050 A 
HETATM   27  C   UNL     1      53.609  91.849  32.738  1.00  0.00     0.016 A 
HETATM   28  C   UNL     1      54.673  91.087  32.254  1.00  0.00     0.003 A 
HETATM   29  C   UNL     1      55.139  89.995  32.987  1.00  0.00     0.029 A 
BRANCH  26  30
HETATM   30  C   UNL     1      51.874  92.335  34.471  1.00  0.00     0.417 C 
HETATM   31  F   UNL     1      51.016  92.757  33.496  1.00  0.00    -0.166 F 
HETATM   32  F   UNL     1      51.092  91.671  35.372  1.00  0.00    -0.166 F 
HETATM   33  F   UNL     1      52.288  93.468  35.110  1.00  0.00    -0.166 F 
ENDBRANCH  26  30
ENDBRANCH  22  24
ENDBRANCH   5  22
TORSDOF 7
ENDMDL
MODEL 3
REMARK VINA RESULT:      -8.2      2.317      3.015
REMARK  7 active torsions:
REMARK  status: ('A' for Active; 'I' for Inactive)
REMARK       I    between atoms: N_5  and  C_13 
REMARK    1  A    between atoms: N_5  and  C_14 
REMARK    2  A    between atoms: N_6  and  C_17 
REMARK    3  A    between atoms: N_6  and  C_20 
REMARK    4  A    between atoms: N_7  and  C_21 
REMARK    5  A    between atoms: N_7  and  C_23 
REMARK    6  A    between atoms: C_10  and  C_13 
REMARK    7  A    between atoms: C_24  and  C_29 
ROOT
HETATM    1  N   UNL     1      57.074  87.847  38.811  1.00  0.00    -0.224 NA
HETATM    2  N   UNL     1      55.112  88.151  37.446  1.00  0.00    -0.224 NA
HETATM    3  C   UNL     1      57.807  87.795  37.680  1.00  0.00     0.133 A 
HETATM    4  C   UNL     1      57.272  87.912  36.413  1.00  0.00     0.100 A 
HETATM    5  C   UNL     1      55.902  88.090  36.349  1.00  0.00     0.133 A 
HETATM    6  C   UNL     1      55.752  88.023  38.624  1.00  0.00     0.237 A 
ENDROOT
BRANCH   3   7
HETATM    7  N   UNL     1      59.208  87.610  37.783  1.00  0.00    -0.341 N 
HETATM    8  H   UNL     1      59.701  88.434  38.116  1.00  0.00     0.167 HD
BRANCH   7   9
HETATM    9  C   UNL     1      60.041  86.510  37.520  1.00  0.00     0.035 A 
HETATM   10  C   UNL     1      60.292  86.116  36.203  1.00  0.00     0.059 A 
HETATM   11  C   UNL     1      61.120  85.024  35.943  1.00  0.00     0.036 A 
HETATM   12  C   UNL     1      61.701  84.322  36.999  1.00  0.00     0.029 A 
HETATM   13  C   UNL     1      61.454  84.712  38.315  1.00  0.00     0.004 A 
HETATM   14  C   UNL     1      60.625  85.803  38.575  1.00  0.00     0.029 A 
BRANCH  11  15
HETATM   15  N   UNL     1      61.369  84.634  34.626  1.00  0.00    -0.327 N 
HETATM   16  C   UNL     1      60.571  83.843  33.797  1.00  0.00     0.226 C 
HETATM   17  O   UNL     1      59.491  83.332  34.061  1.00  0.00    -0.273 OA
HETATM   18  H   UNL     1      62.246  84.970  34.233  1.00  0.00     0.169 HD
BRANCH  16  19
HETATM   19  C   UNL     1      61.148  83.622  32.433  1.00  0.00     0.078 A 
HETATM   20  C   UNL     1      62.359  82.767  32.309  1.00  0.00     0.015 A 
HETATM   21  C   UNL     1      62.458  84.251  32.112  1.00  0.00     0.015 A 
ENDBRANCH  16  19
ENDBRANCH  11  15
ENDBRANCH   7   9
ENDBRANCH   3   7
BRANCH   5  22
HETATM   22  N   UNL     1      55.317  88.215  35.075  1.00  0.00    -0.341 N 
HETATM   23  H   UNL     1      55.394  87.365  34.520  1.00  0.00     0.167 HD
BRANCH  22  24
HETATM   24  C   UNL     1      54.944  89.333  34.300  1.00  0.00     0.034 A 
HETATM   25  C   UNL     1      53.819  90.081  34.649  1.00  0.00     0.045 A 
HETATM   26  C   UNL     1      53.452  91.187  33.884  1.00  0.00     0.050 A 
HETATM   27  C   UNL     1      54.209  91.546  32.769  1.00  0.00     0.016 A 
HETATM   28  C   UNL     1      55.334  90.799  32.419  1.00  0.00     0.003 A 
HETATM   29  C   UNL     1      55.701  89.692  33.185  1.00  0.00     0.029 A 
BRANCH  26  30
HETATM   30  C   UNL     1      52.249  91.987  34.257  1.00  0.00     0.417 C 
HETATM   31  F   UNL     1      51.596  92.526  33.186  1.00  0.00    -0.166 F 
HETATM   32  F   UNL     1      51.301  91.267  34.927  1.00  0.00    -0.166 F 
HETATM   33  F   UNL     1      52.551  93.041  35.070  1.00  0.00    -0.166 F 
ENDBRANCH  26  30
ENDBRANCH  22  24
ENDBRANCH   5  22
TORSDOF 7
ENDMDL
MODEL 4
REMARK VINA RESULT:      -8.1      2.644      4.248
REMARK  7 active torsions:
REMARK  status: ('A' for Active; 'I' for Inactive)
REMARK       I    between atoms: N_5  and  C_13 
REMARK    1  A    between atoms: N_5  and  C_14 
REMARK    2  A    between atoms: N_6  and  C_17 
REMARK    3  A    between atoms: N_6  and  C_20 
REMARK    4  A    between atoms: N_7  and  C_21 
REMARK    5  A    between atoms: N_7  and  C_23 
REMARK    6  A    between atoms: C_10  and  C_13 
REMARK    7  A    between atoms: C_24  and  C_29 
ROOT
HETATM    1  N   UNL     1      56.919  87.583  39.281  1.00  0.00    -0.224 NA
HETATM    2  N   UNL     1      55.034  88.043  37.853  1.00  0.00    -0.224 NA
HETATM    3  C   UNL     1      57.665  87.396  38.173  1.00  0.00     0.133 A 
HETATM    4  C   UNL     1      57.174  87.514  36.888  1.00  0.00     0.100 A 
HETATM    5  C   UNL     1      55.835  87.843  36.781  1.00  0.00     0.133 A 
HETATM    6  C   UNL     1      55.630  87.899  39.051  1.00  0.00     0.237 A 
ENDROOT
BRANCH   3   7
HETATM    7  N   UNL     1      59.033  87.059  38.320  1.00  0.00    -0.341 N 
HETATM    8  H   UNL     1      59.329  86.980  39.289  1.00  0.00     0.167 HD
BRANCH   7   9
HETATM    9  C   UNL     1      60.053  86.807  37.387  1.00  0.00     0.035 A 
HETATM   10  C   UNL     1      60.596  87.854  36.638  1.00  0.00     0.059 A 
HETATM   11  C   UNL     1      61.610  87.603  35.713  1.00  0.00     0.036 A 
HETATM   12  C   UNL     1      62.085  86.303  35.534  1.00  0.00     0.029 A 
HETATM   13  C   UNL     1      61.546  85.255  36.280  1.00  0.00     0.004 A 
HETATM   14  C   UNL     1      60.532  85.506  37.204  1.00  0.00     0.029 A 
BRANCH  11  15
HETATM   15  N   UNL     1      62.150  88.651  34.967  1.00  0.00    -0.327 N 
HETATM   16  C   UNL     1      61.658  89.211  33.786  1.00  0.00     0.226 C 
HETATM   17  O   UNL     1      60.650  88.892  33.168  1.00  0.00    -0.273 OA
HETATM   18  H   UNL     1      63.012  89.046  35.336  1.00  0.00     0.169 HD
BRANCH  16  19
HETATM   19  C   UNL     1      62.495  90.331  33.252  1.00  0.00     0.078 A 
HETATM   20  C   UNL     1      61.903  91.695  33.208  1.00  0.00     0.015 A 
HETATM   21  C   UNL     1      62.122  90.925  31.939  1.00  0.00     0.015 A 
ENDBRANCH  16  19
ENDBRANCH  11  15
ENDBRANCH   7   9
ENDBRANCH   3   7
BRANCH   5  22
HETATM   22  N   UNL     1      55.294  87.973  35.487  1.00  0.00    -0.341 N 
HETATM   23  H   UNL     1      55.157  87.077  35.024  1.00  0.00     0.167 HD
BRANCH  22  24
HETATM   24  C   UNL     1      55.207  89.061  34.594  1.00  0.00     0.034 A 
HETATM   25  C   UNL     1      54.086  89.892  34.612  1.00  0.00     0.045 A 
HETATM   26  C   UNL     1      54.002  90.968  33.730  1.00  0.00     0.050 A 
HETATM   27  C   UNL     1      55.038  91.215  32.829  1.00  0.00     0.016 A 
HETATM   28  C   UNL     1      56.158  90.385  32.810  1.00  0.00     0.003 A 
HETATM   29  C   UNL     1      56.243  89.308  33.693  1.00  0.00     0.029 A 
BRANCH  26  30
HETATM   30  C   UNL     1      52.803  91.856  33.749  1.00  0.00     0.417 C 
HETATM   31  F   UNL     1      52.591  92.515  32.572  1.00  0.00    -0.166 F 
HETATM   32  F   UNL     1      51.637  91.194  34.003  1.00  0.00    -0.166 F 
HETATM   33  F   UNL     1      52.886  92.830  34.703  1.00  0.00    -0.166 F 
ENDBRANCH  26  30
ENDBRANCH  22  24
ENDBRANCH   5  22
TORSDOF 7
ENDMDL
MODEL 5
REMARK VINA RESULT:      -8.0      6.272     10.280
REMARK  7 active torsions:
REMARK  status: ('A' for Active; 'I' for Inactive)
REMARK       I    between atoms: N_5  and  C_13 
REMARK    1  A    between atoms: N_5  and  C_14 
REMARK    2  A    between atoms: N_6  and  C_17 
REMARK    3  A    between atoms: N_6  and  C_20 
REMARK    4  A    between atoms: N_7  and  C_21 
REMARK    5  A    between atoms: N_7  and  C_23 
REMARK    6  A    between atoms: C_10  and  C_13 
REMARK    7  A    between atoms: C_24  and  C_29 
ROOT
HETATM    1  N   UNL     1      55.444  87.587  38.056  1.00  0.00    -0.224 NA
HETATM    2  N   UNL     1      57.437  87.240  39.365  1.00  0.00    -0.224 NA
HETATM    3  C   UNL     1      56.218  87.597  36.950  1.00  0.00     0.133 A 
HETATM    4  C   UNL     1      57.588  87.437  36.971  1.00  0.00     0.100 A 
HETATM    5  C   UNL     1      58.158  87.260  38.220  1.00  0.00     0.133 A 
HETATM    6  C   UNL     1      56.110  87.407  39.213  1.00  0.00     0.237 A 
ENDROOT
BRANCH   3   7
HETATM    7  N   UNL     1      55.601  87.782  35.688  1.00  0.00    -0.341 N 
HETATM    8  H   UNL     1      55.030  86.993  35.398  1.00  0.00     0.167 HD
BRANCH   7   9
HETATM    9  C   UNL     1      55.623  88.843  34.769  1.00  0.00     0.035 A 
HETATM   10  C   UNL     1      54.757  89.929  34.925  1.00  0.00     0.059 A 
HETATM   11  C   UNL     1      54.781  90.982  34.013  1.00  0.00     0.036 A 
HETATM   12  C   UNL     1      55.671  90.956  32.939  1.00  0.00     0.029 A 
HETATM   13  C   UNL     1      56.538  89.876  32.779  1.00  0.00     0.004 A 
HETATM   14  C   UNL     1      56.514  88.821  33.692  1.00  0.00     0.029 A 
BRANCH  11  15
HETATM   15  N   UNL     1      53.914  92.065  34.173  1.00  0.00    -0.327 N 
HETATM   16  C   UNL     1      52.517  92.060  34.152  1.00  0.00     0.226 C 
HETATM   17  O   UNL     1      51.773  91.103  33.988  1.00  0.00    -0.273 OA
HETATM   18  H   UNL     1      54.366  92.965  34.317  1.00  0.00     0.169 HD
BRANCH  16  19
HETATM   19  C   UNL     1      51.905  93.410  34.359  1.00  0.00     0.078 A 
HETATM   20  C   UNL     1      51.223  93.684  35.653  1.00  0.00     0.015 A 
HETATM   21  C   UNL     1      50.420  93.511  34.397  1.00  0.00     0.015 A 
ENDBRANCH  16  19
ENDBRANCH  11  15
ENDBRANCH   7   9
ENDBRANCH   3   7
BRANCH   5  22
HETATM   22  N   UNL     1      59.554  87.093  38.285  1.00  0.00    -0.341 N 
HETATM   23  H   UNL     1      60.065  87.944  38.059  1.00  0.00     0.167 HD
BRANCH  22  24
HETATM   24  C   UNL     1      60.380  85.950  38.279  1.00  0.00     0.034 A 
HETATM   25  C   UNL     1      60.701  85.313  39.478  1.00  0.00     0.045 A 
HETATM   26  C   UNL     1      61.516  84.182  39.471  1.00  0.00     0.050 A 
HETATM   27  C   UNL     1      62.012  83.687  38.264  1.00  0.00     0.016 A 
HETATM   28  C   UNL     1      61.692  84.324  37.065  1.00  0.00     0.003 A 
HETATM   29  C   UNL     1      60.876  85.455  37.072  1.00  0.00     0.029 A 
BRANCH  26  30
HETATM   30  C   UNL     1      61.859  83.501  40.753  1.00  0.00     0.417 C 
HETATM   31  F   UNL     1      62.323  84.350  41.717  1.00  0.00    -0.166 F 
HETATM   32  F   UNL     1      60.803  82.853  41.326  1.00  0.00    -0.166 F 
HETATM   33  F   UNL     1      62.831  82.554  40.601  1.00  0.00    -0.166 F 
ENDBRANCH  26  30
ENDBRANCH  22  24
ENDBRANCH   5  22
TORSDOF 7
ENDMDL
MODEL 6
REMARK VINA RESULT:      -8.0      1.603      2.123
REMARK  7 active torsions:
REMARK  status: ('A' for Active; 'I' for Inactive)
REMARK       I    between atoms: N_5  and  C_13 
REMARK    1  A    between atoms: N_5  and  C_14 
REMARK    2  A    between atoms: N_6  and  C_17 
REMARK    3  A    between atoms: N_6  and  C_20 
REMARK    4  A    between atoms: N_7  and  C_21 
REMARK    5  A    between atoms: N_7  and  C_23 
REMARK    6  A    between atoms: C_10  and  C_13 
REMARK    7  A    between atoms: C_24  and  C_29 
ROOT
HETATM    1  N   UNL     1      58.323  88.025  37.665  1.00  0.00    -0.224 NA
HETATM    2  N   UNL     1      55.994  88.535  37.313  1.00  0.00    -0.224 NA
HETATM    3  C   UNL     1      58.449  87.856  36.332  1.00  0.00     0.133 A 
HETATM    4  C   UNL     1      57.408  88.007  35.438  1.00  0.00     0.100 A 
HETATM    5  C   UNL     1      56.185  88.351  35.986  1.00  0.00     0.133 A 
HETATM    6  C   UNL     1      57.086  88.358  38.081  1.00  0.00     0.237 A 
ENDROOT
BRANCH   3   7
HETATM    7  N   UNL     1      59.715  87.504  35.806  1.00  0.00    -0.341 N 
HETATM    8  H   UNL     1      60.492  87.943  36.292  1.00  0.00     0.167 HD
BRANCH   7   9
HETATM    9  C   UNL     1      60.102  86.662  34.750  1.00  0.00     0.035 A 
HETATM   10  C   UNL     1      60.418  85.323  34.997  1.00  0.00     0.059 A 
HETATM   11  C   UNL     1      60.801  84.488  33.948  1.00  0.00     0.036 A 
HETATM   12  C   UNL     1      60.869  84.987  32.647  1.00  0.00     0.029 A 
HETATM   13  C   UNL     1      60.554  86.323  32.396  1.00  0.00     0.004 A 
HETATM   14  C   UNL     1      60.173  87.158  33.446  1.00  0.00     0.029 A 
BRANCH  11  15
HETATM   15  N   UNL     1      61.115  83.151  34.199  1.00  0.00    -0.327 N 
HETATM   16  C   UNL     1      60.332  82.021  33.950  1.00  0.00     0.226 C 
HETATM   17  O   UNL     1      59.212  81.978  33.459  1.00  0.00    -0.273 OA
HETATM   18  H   UNL     1      62.027  82.992  34.621  1.00  0.00     0.169 HD
BRANCH  16  19
HETATM   19  C   UNL     1      60.985  80.734  34.345  1.00  0.00     0.078 A 
HETATM   20  C   UNL     1      61.263  79.729  33.283  1.00  0.00     0.015 A 
HETATM   21  C   UNL     1      60.175  79.486  34.288  1.00  0.00     0.015 A 
ENDBRANCH  16  19
ENDBRANCH  11  15
ENDBRANCH   7   9
ENDBRANCH   3   7
BRANCH   5  22
HETATM   22  N   UNL     1      55.097  88.515  35.107  1.00  0.00    -0.341 N 
HETATM   23  H   UNL     1      54.690  87.630  34.813  1.00  0.00     0.167 HD
BRANCH  22  24
HETATM   24  C   UNL     1      54.666  89.598  34.314  1.00  0.00     0.034 A 
HETATM   25  C   UNL     1      53.575  90.369  34.717  1.00  0.00     0.045 A 
HETATM   26  C   UNL     1      53.150  91.440  33.933  1.00  0.00     0.050 A 
HETATM   27  C   UNL     1      53.816  91.742  32.745  1.00  0.00     0.016 A 
HETATM   28  C   UNL     1      54.906  90.973  32.341  1.00  0.00     0.003 A 
HETATM   29  C   UNL     1      55.331  89.900  33.126  1.00  0.00     0.029 A 
BRANCH  26  30
HETATM   30  C   UNL     1      51.983  92.264  34.363  1.00  0.00     0.417 C 
HETATM   31  F   UNL     1      52.333  93.396  35.043  1.00  0.00    -0.166 F 
HETATM   32  F   UNL     1      51.208  92.697  33.326  1.00  0.00    -0.166 F 
HETATM   33  F   UNL     1      51.138  91.585  35.194  1.00  0.00    -0.166 F 
ENDBRANCH  26  30
ENDBRANCH  22  24
ENDBRANCH   5  22
TORSDOF 7
ENDMDL
MODEL 7
REMARK VINA RESULT:      -7.9      5.230      9.681
REMARK  7 active torsions:
REMARK  status: ('A' for Active; 'I' for Inactive)
REMARK       I    between atoms: N_5  and  C_13 
REMARK    1  A    between atoms: N_5  and  C_14 
REMARK    2  A    between atoms: N_6  and  C_17 
REMARK    3  A    between atoms: N_6  and  C_20 
REMARK    4  A    between atoms: N_7  and  C_21 
REMARK    5  A    between atoms: N_7  and  C_23 
REMARK    6  A    between atoms: C_10  and  C_13 
REMARK    7  A    between atoms: C_24  and  C_29 
ROOT
HETATM    1  N   UNL     1      55.368  87.602  37.660  1.00  0.00    -0.224 NA
HETATM    2  N   UNL     1      57.222  87.010  39.080  1.00  0.00    -0.224 NA
HETATM    3  C   UNL     1      56.207  87.549  36.604  1.00  0.00     0.133 A 
HETATM    4  C   UNL     1      57.547  87.236  36.706  1.00  0.00     0.100 A 
HETATM    5  C   UNL     1      58.012  86.972  37.982  1.00  0.00     0.133 A 
HETATM    6  C   UNL     1      55.934  87.327  38.850  1.00  0.00     0.237 A 
ENDROOT
BRANCH   3   7
HETATM    7  N   UNL     1      55.697  87.826  35.312  1.00  0.00    -0.341 N 
HETATM    8  H   UNL     1      55.438  86.992  34.792  1.00  0.00     0.167 HD
BRANCH   7   9
HETATM    9  C   UNL     1      55.475  89.027  34.619  1.00  0.00     0.035 A 
HETATM   10  C   UNL     1      54.338  89.795  34.886  1.00  0.00     0.059 A 
HETATM   11  C   UNL     1      54.119  90.987  34.198  1.00  0.00     0.036 A 
HETATM   12  C   UNL     1      55.036  91.418  33.239  1.00  0.00     0.029 A 
HETATM   13  C   UNL     1      56.172  90.656  32.968  1.00  0.00     0.004 A 
HETATM   14  C   UNL     1      56.390  89.462  33.656  1.00  0.00     0.029 A 
BRANCH  11  15
HETATM   15  N   UNL     1      52.983  91.752  34.469  1.00  0.00    -0.327 N 
HETATM   16  C   UNL     1      52.206  92.487  33.572  1.00  0.00     0.226 C 
HETATM   17  O   UNL     1      52.365  92.607  32.364  1.00  0.00    -0.273 OA
HETATM   18  H   UNL     1      52.699  91.774  35.446  1.00  0.00     0.169 HD
BRANCH  16  19
HETATM   19  C   UNL     1      51.050  93.193  34.209  1.00  0.00     0.078 A 
HETATM   20  C   UNL     1      51.324  94.425  34.997  1.00  0.00     0.015 A 
HETATM   21  C   UNL     1      50.933  93.155  35.693  1.00  0.00     0.015 A 
ENDBRANCH  16  19
ENDBRANCH  11  15
ENDBRANCH   7   9
ENDBRANCH   3   7
BRANCH   5  22
HETATM   22  N   UNL     1      59.375  86.649  38.128  1.00  0.00    -0.341 N 
HETATM   23  H   UNL     1      59.843  87.219  38.829  1.00  0.00     0.167 HD
BRANCH  22  24
HETATM   24  C   UNL     1      60.283  85.947  37.309  1.00  0.00     0.034 A 
HETATM   25  C   UNL     1      59.846  85.371  36.116  1.00  0.00     0.045 A 
HETATM   26  C   UNL     1      60.745  84.679  35.305  1.00  0.00     0.050 A 
HETATM   27  C   UNL     1      62.082  84.562  35.688  1.00  0.00     0.016 A 
HETATM   28  C   UNL     1      62.519  85.138  36.880  1.00  0.00     0.003 A 
HETATM   29  C   UNL     1      61.619  85.830  37.691  1.00  0.00     0.029 A 
BRANCH  26  30
HETATM   30  C   UNL     1      60.279  84.062  34.029  1.00  0.00     0.417 C 
HETATM   31  F   UNL     1      61.197  83.232  33.454  1.00  0.00    -0.166 F 
HETATM   32  F   UNL     1      59.151  83.305  34.169  1.00  0.00    -0.166 F 
HETATM   33  F   UNL     1      59.978  84.993  33.076  1.00  0.00    -0.166 F 
ENDBRANCH  26  30
ENDBRANCH  22  24
ENDBRANCH   5  22
TORSDOF 7
ENDMDL
MODEL 8
REMARK VINA RESULT:      -7.9      4.975      9.530
REMARK  7 active torsions:
REMARK  status: ('A' for Active; 'I' for Inactive)
REMARK       I    between atoms: N_5  and  C_13 
REMARK    1  A    between atoms: N_5  and  C_14 
REMARK    2  A    between atoms: N_6  and  C_17 
REMARK    3  A    between atoms: N_6  and  C_20 
REMARK    4  A    between atoms: N_7  and  C_21 
REMARK    5  A    between atoms: N_7  and  C_23 
REMARK    6  A    between atoms: C_10  and  C_13 
REMARK    7  A    between atoms: C_24  and  C_29 
ROOT
HETATM    1  N   UNL     1      58.955  89.685  34.942  1.00  0.00    -0.224 NA
HETATM    2  N   UNL     1      60.896  88.622  35.895  1.00  0.00    -0.224 NA
HETATM    3  C   UNL     1      58.211  88.658  35.404  1.00  0.00     0.133 A 
HETATM    4  C   UNL     1      58.731  87.592  36.111  1.00  0.00     0.100 A 
HETATM    5  C   UNL     1      60.096  87.622  36.332  1.00  0.00     0.133 A 
HETATM    6  C   UNL     1      60.270  89.604  35.218  1.00  0.00     0.237 A 
ENDROOT
BRANCH   3   7
HETATM    7  N   UNL     1      56.817  88.660  35.158  1.00  0.00    -0.341 N 
HETATM    8  H   UNL     1      56.302  88.006  35.741  1.00  0.00     0.167 HD
BRANCH   7   9
HETATM    9  C   UNL     1      56.012  89.394  34.272  1.00  0.00     0.035 A 
HETATM   10  C   UNL     1      54.869  90.050  34.737  1.00  0.00     0.059 A 
HETATM   11  C   UNL     1      54.071  90.780  33.857  1.00  0.00     0.036 A 
HETATM   12  C   UNL     1      54.413  90.858  32.506  1.00  0.00     0.029 A 
HETATM   13  C   UNL     1      55.552  90.206  32.037  1.00  0.00     0.004 A 
HETATM   14  C   UNL     1      56.350  89.474  32.918  1.00  0.00     0.029 A 
BRANCH  11  15
HETATM   15  N   UNL     1      52.931  91.434  34.326  1.00  0.00    -0.327 N 
HETATM   16  C   UNL     1      52.116  92.341  33.645  1.00  0.00     0.226 C 
HETATM   17  O   UNL     1      52.240  92.744  32.496  1.00  0.00    -0.273 OA
HETATM   18  H   UNL     1      52.673  91.221  35.288  1.00  0.00     0.169 HD
BRANCH  16  19
HETATM   19  C   UNL     1      50.968  92.853  34.458  1.00  0.00     0.078 A 
HETATM   20  C   UNL     1      50.763  94.324  34.542  1.00  0.00     0.015 A 
HETATM   21  C   UNL     1      51.267  93.561  35.732  1.00  0.00     0.015 A 
ENDBRANCH  16  19
ENDBRANCH  11  15
ENDBRANCH   7   9
ENDBRANCH   3   7
BRANCH   5  22
HETATM   22  N   UNL     1      60.666  86.553  37.050  1.00  0.00    -0.341 N 
HETATM   23  H   UNL     1      61.104  85.861  36.446  1.00  0.00     0.167 HD
BRANCH  22  24
HETATM   24  C   UNL     1      60.484  86.082  38.367  1.00  0.00     0.034 A 
HETATM   25  C   UNL     1      59.258  86.259  39.009  1.00  0.00     0.045 A 
HETATM   26  C   UNL     1      59.078  85.792  40.310  1.00  0.00     0.050 A 
HETATM   27  C   UNL     1      60.125  85.147  40.971  1.00  0.00     0.016 A 
HETATM   28  C   UNL     1      61.350  84.970  40.330  1.00  0.00     0.003 A 
HETATM   29  C   UNL     1      61.530  85.438  39.028  1.00  0.00     0.029 A 
BRANCH  26  30
HETATM   30  C   UNL     1      57.768  85.981  40.997  1.00  0.00     0.417 C 
HETATM   31  F   UNL     1      57.874  86.119  42.351  1.00  0.00    -0.166 F 
HETATM   32  F   UNL     1      57.087  87.088  40.579  1.00  0.00    -0.166 F 
HETATM   33  F   UNL     1      56.916  84.932  40.801  1.00  0.00    -0.166 F 
ENDBRANCH  26  30
ENDBRANCH  22  24
ENDBRANCH   5  22
TORSDOF 7
ENDMDL
MODEL 9
REMARK VINA RESULT:      -7.7      5.361     10.102
REMARK  7 active torsions:
REMARK  status: ('A' for Active; 'I' for Inactive)
REMARK       I    between atoms: N_5  and  C_13 
REMARK    1  A    between atoms: N_5  and  C_14 
REMARK    2  A    between atoms: N_6  and  C_17 
REMARK    3  A    between atoms: N_6  and  C_20 
REMARK    4  A    between atoms: N_7  and  C_21 
REMARK    5  A    between atoms: N_7  and  C_23 
REMARK    6  A    between atoms: C_10  and  C_13 
REMARK    7  A    between atoms: C_24  and  C_29 
ROOT
HETATM    1  N   UNL     1      57.025  87.930  36.915  1.00  0.00    -0.224 NA
HETATM    2  N   UNL     1      58.590  86.099  36.961  1.00  0.00    -0.224 NA
HETATM    3  C   UNL     1      57.749  88.474  35.914  1.00  0.00     0.133 A 
HETATM    4  C   UNL     1      58.888  87.898  35.391  1.00  0.00     0.100 A 
HETATM    5  C   UNL     1      59.272  86.695  35.956  1.00  0.00     0.133 A 
HETATM    6  C   UNL     1      57.497  86.760  37.385  1.00  0.00     0.237 A 
ENDROOT
BRANCH   3   7
HETATM    7  N   UNL     1      57.327  89.707  35.359  1.00  0.00    -0.341 N 
HETATM    8  H   UNL     1      57.827  90.510  35.730  1.00  0.00     0.167 HD
BRANCH   7   9
HETATM    9  C   UNL     1      56.359  90.030  34.394  1.00  0.00     0.035 A 
HETATM   10  C   UNL     1      55.165  90.650  34.773  1.00  0.00     0.059 A 
HETATM   11  C   UNL     1      54.206  90.972  33.814  1.00  0.00     0.036 A 
HETATM   12  C   UNL     1      54.436  90.675  32.470  1.00  0.00     0.029 A 
HETATM   13  C   UNL     1      55.625  90.057  32.086  1.00  0.00     0.004 A 
HETATM   14  C   UNL     1      56.585  89.734  33.046  1.00  0.00     0.029 A 
BRANCH  11  15
HETATM   15  N   UNL     1      53.016  91.592  34.197  1.00  0.00    -0.327 N 
HETATM   16  C   UNL     1      52.213  92.454  33.447  1.00  0.00     0.226 C 
HETATM   17  O   UNL     1      52.395  92.839  32.299  1.00  0.00    -0.273 OA
HETATM   18  H   UNL     1      52.706  91.387  35.145  1.00  0.00     0.169 HD
BRANCH  16  19
HETATM   19  C   UNL     1      50.998  92.938  34.175  1.00  0.00     0.078 A 
HETATM   20  C   UNL     1      51.015  94.314  34.740  1.00  0.00     0.015 A 
HETATM   21  C   UNL     1      51.087  93.123  35.649  1.00  0.00     0.015 A 
ENDBRANCH  16  19
ENDBRANCH  11  15
ENDBRANCH   7   9
ENDBRANCH   3   7
BRANCH   5  22
HETATM   22  N   UNL     1      60.430  86.074  35.450  1.00  0.00    -0.341 N 
HETATM   23  H   UNL     1      61.024  86.712  34.926  1.00  0.00     0.167 HD
BRANCH  22  24
HETATM   24  C   UNL     1      60.775  84.722  35.242  1.00  0.00     0.034 A 
HETATM   25  C   UNL     1      60.081  83.961  34.300  1.00  0.00     0.045 A 
HETATM   26  C   UNL     1      60.424  82.626  34.094  1.00  0.00     0.050 A 
HETATM   27  C   UNL     1      61.460  82.050  34.829  1.00  0.00     0.016 A 
HETATM   28  C   UNL     1      62.153  82.810  35.771  1.00  0.00     0.003 A 
HETATM   29  C   UNL     1      61.811  84.146  35.977  1.00  0.00     0.029 A 
BRANCH  26  30
HETATM   30  C   UNL     1      59.683  81.812  33.087  1.00  0.00     0.417 C 
HETATM   31  F   UNL     1      60.250  80.594  32.842  1.00  0.00    -0.166 F 
HETATM   32  F   UNL     1      58.394  81.539  33.448  1.00  0.00    -0.166 F 
HETATM   33  F   UNL     1      59.600  82.428  31.871  1.00  0.00    -0.166 F 
ENDBRANCH  26  30
ENDBRANCH  22  24
ENDBRANCH   5  22
TORSDOF 7
ENDMDL
