MODEL 1
REMARK VINA RESULT:      -8.5      0.000      0.000
REMARK  7 active torsions:
REMARK  status: ('A' for Active; 'I' for Inactive)
REMARK       I    between atoms: N_5  and  C_13 
REMARK    1  A    between atoms: N_5  and  C_14 
REMARK    2  A    between atoms: N_6  and  C_17 
REMARK    3  A    between atoms: N_6  and  C_20 
REMARK    4  A    between atoms: N_7  and  C_21 
REMARK    5  A    between atoms: N_7  and  C_23 
REMARK    6  A    between atoms: C_10  and  C_13 
REMARK    7  A    between atoms: C_24  and  C_29 
ROOT
HETATM    1  N   UNL     1      58.298  88.731  35.617  1.00  0.00    -0.224 NA
HETATM    2  N   UNL     1      55.931  88.956  36.004  1.00  0.00    -0.224 NA
HETATM    3  C   UNL     1      58.068  88.959  34.307  1.00  0.00     0.133 A 
HETATM    4  C   UNL     1      56.815  89.192  33.778  1.00  0.00     0.100 A 
HETATM    5  C   UNL     1      55.765  89.179  34.679  1.00  0.00     0.133 A 
HETATM    6  C   UNL     1      57.201  88.742  36.397  1.00  0.00     0.237 A 
ENDROOT
BRANCH   3   7
HETATM    7  N   UNL     1      59.166  88.964  33.412  1.00  0.00    -0.341 N 
HETATM    8  H   UNL     1      59.353  89.877  33.006  1.00  0.00     0.167 HD
BRANCH   7   9
HETATM    9  C   UNL     1      60.045  87.956  32.985  1.00  0.00     0.035 A 
HETATM   10  C   UNL     1      59.640  86.618  32.994  1.00  0.00     0.059 A 
HETATM   11  C   UNL     1      60.514  85.618  32.568  1.00  0.00     0.036 A 
HETATM   12  C   UNL     1      61.797  85.951  32.132  1.00  0.00     0.029 A 
HETATM   13  C   UNL     1      62.205  87.284  32.121  1.00  0.00     0.004 A 
HETATM   14  C   UNL     1      61.332  88.284  32.548  1.00  0.00     0.029 A 
BRANCH  11  15
HETATM   15  N   UNL     1      60.105  84.283  32.578  1.00  0.00    -0.327 N 
HETATM   16  C   UNL     1      60.169  83.371  33.633  1.00  0.00     0.226 C 
HETATM   17  O   UNL     1      60.596  83.560  34.764  1.00  0.00    -0.273 OA
HETATM   18  H   UNL     1      59.720  83.942  31.700  1.00  0.00     0.169 HD
BRANCH  16  19
HETATM   19  C   UNL     1      59.638  82.013  33.292  1.00  0.00     0.078 A 
HETATM   20  C   UNL     1      60.434  80.823  33.694  1.00  0.00     0.015 A 
HETATM   21  C   UNL     1      60.346  81.221  32.250  1.00  0.00     0.015 A 
ENDBRANCH  16  19
ENDBRANCH  11  15
ENDBRANCH   7   9
ENDBRANCH   3   7
BRANCH   5  22
HETATM   22  N   UNL     1      54.470  89.412  34.180  1.00  0.00    -0.341 N 
HETATM   23  H   UNL     1      54.010  88.562  33.862  1.00  0.00     0.167 HD
BRANCH  22  24
HETATM   24  C   UNL     1      53.813  90.579  33.737  1.00  0.00     0.034 A 
HETATM   25  C   UNL     1      52.847  91.184  34.540  1.00  0.00     0.045 A 
HETATM   26  C   UNL     1      52.199  92.339  34.103  1.00  0.00     0.050 A 
HETATM   27  C   UNL     1      52.518  92.889  32.861  1.00  0.00     0.016 A 
HETATM   28  C   UNL     1      53.484  92.284  32.057  1.00  0.00     0.003 A 
HETATM   29  C   UNL     1      54.132  91.129  32.495  1.00  0.00     0.029 A 
BRANCH  26  30
HETATM   30  C   UNL     1      51.165  92.986  34.961  1.00  0.00     0.417 C 
HETATM   31  F   UNL     1      51.621  94.082  35.636  1.00  0.00    -0.166 F 
HETATM   32  F   UNL     1      50.074  93.425  34.266  1.00  0.00    -0.166 F 
HETATM   33  F   UNL     1      50.675  92.145  35.919  1.00  0.00    -0.166 F 
ENDBRANCH  26  30
ENDBRANCH  22  24
ENDBRANCH   5  22
TORSDOF 7
ENDMDL
MODEL 2
REMARK VINA RESULT:      -8.3      4.016      5.416
REMARK  7 active torsions:
REMARK  status: ('A' for Active; 'I' for Inactive)
REMARK       I    between atoms: N_5  and  C_13 
REMARK    1  A    between atoms: N_5  and  C_14 
REMARK    2  A    between atoms: N_6  and  C_17 
REMARK    3  A    between atoms: N_6  and  C_20 
REMARK    4  A    between atoms: N_7  and  C_21 
REMARK    5  A    between atoms: N_7  and  C_23 
REMARK    6  A    between atoms: C_10  and  C_13 
REMARK    7  A    between atoms: C_24  and  C_29 
ROOT
HETATM    1  N   UNL     1      58.452  88.940  35.883  1.00  0.00    -0.224 NA
HETATM    2  N   UNL     1      56.797  90.279  34.755  1.00  0.00    -0.224 NA
HETATM    3  C   UNL     1      57.496  88.016  36.110  1.00  0.00     0.133 A 
HETATM    4  C   UNL     1      56.186  88.150  35.696  1.00  0.00     0.100 A 
HETATM    5  C   UNL     1      55.884  89.315  35.014  1.00  0.00     0.133 A 
HETATM    6  C   UNL     1      58.040  90.031  35.211  1.00  0.00     0.237 A 
ENDROOT
BRANCH   3   7
HETATM    7  N   UNL     1      57.840  86.835  36.812  1.00  0.00    -0.341 N 
HETATM    8  H   UNL     1      58.063  86.052  36.204  1.00  0.00     0.167 HD
BRANCH   7   9
HETATM    9  C   UNL     1      57.939  86.542  38.183  1.00  0.00     0.035 A 
HETATM   10  C   UNL     1      59.176  86.216  38.746  1.00  0.00     0.059 A 
HETATM   11  C   UNL     1      59.273  85.927  40.106  1.00  0.00     0.036 A 
HETATM   12  C   UNL     1      58.133  85.961  40.910  1.00  0.00     0.029 A 
HETATM   13  C   UNL     1      56.896  86.286  40.353  1.00  0.00     0.004 A 
HETATM   14  C   UNL     1      56.799  86.574  38.992  1.00  0.00     0.029 A 
BRANCH  11  15
HETATM   15  N   UNL     1      60.510  85.603  40.665  1.00  0.00    -0.327 N 
HETATM   16  C   UNL     1      61.140  84.357  40.699  1.00  0.00     0.226 C 
HETATM   17  O   UNL     1      60.731  83.297  40.244  1.00  0.00    -0.273 OA
HETATM   18  H   UNL     1      61.004  86.377  41.104  1.00  0.00     0.169 HD
BRANCH  16  19
HETATM   19  C   UNL     1      62.472  84.370  41.383  1.00  0.00     0.078 A 
HETATM   20  C   UNL     1      62.530  83.994  42.822  1.00  0.00     0.015 A 
HETATM   21  C   UNL     1      62.728  85.422  42.405  1.00  0.00     0.015 A 
ENDBRANCH  16  19
ENDBRANCH  11  15
ENDBRANCH   7   9
ENDBRANCH   3   7
BRANCH   5  22
HETATM   22  N   UNL     1      54.558  89.491  34.573  1.00  0.00    -0.341 N 
HETATM   23  H   UNL     1      54.072  88.610  34.423  1.00  0.00     0.167 HD
BRANCH  22  24
HETATM   24  C   UNL     1      53.880  90.586  34.000  1.00  0.00     0.034 A 
HETATM   25  C   UNL     1      52.891  91.253  34.724  1.00  0.00     0.045 A 
HETATM   26  C   UNL     1      52.222  92.337  34.158  1.00  0.00     0.050 A 
HETATM   27  C   UNL     1      52.541  92.755  32.866  1.00  0.00     0.016 A 
HETATM   28  C   UNL     1      53.529  92.089  32.141  1.00  0.00     0.003 A 
HETATM   29  C   UNL     1      54.198  91.005  32.708  1.00  0.00     0.029 A 
BRANCH  26  30
HETATM   30  C   UNL     1      51.165  93.050  34.932  1.00  0.00     0.417 C 
HETATM   31  F   UNL     1      50.639  92.309  35.952  1.00  0.00    -0.166 F 
HETATM   32  F   UNL     1      51.602  94.203  35.518  1.00  0.00    -0.166 F 
HETATM   33  F   UNL     1      50.101  93.413  34.157  1.00  0.00    -0.166 F 
ENDBRANCH  26  30
ENDBRANCH  22  24
ENDBRANCH   5  22
TORSDOF 7
ENDMDL
MODEL 3
REMARK VINA RESULT:      -8.2      1.852      2.390
REMARK  7 active torsions:
REMARK  status: ('A' for Active; 'I' for Inactive)
REMARK       I    between atoms: N_5  and  C_13 
REMARK    1  A    between atoms: N_5  and  C_14 
REMARK    2  A    between atoms: N_6  and  C_17 
REMARK    3  A    between atoms: N_6  and  C_20 
REMARK    4  A    between atoms: N_7  and  C_21 
REMARK    5  A    between atoms: N_7  and  C_23 
REMARK    6  A    between atoms: C_10  and  C_13 
REMARK    7  A    between atoms: C_24  and  C_29 
ROOT
HETATM    1  N   UNL     1      57.173  88.118  38.430  1.00  0.00    -0.224 NA
HETATM    2  N   UNL     1      55.066  88.089  37.263  1.00  0.00    -0.224 NA
HETATM    3  C   UNL     1      57.777  88.403  37.257  1.00  0.00     0.133 A 
HETATM    4  C   UNL     1      57.101  88.545  36.062  1.00  0.00     0.100 A 
HETATM    5  C   UNL     1      55.729  88.376  36.119  1.00  0.00     0.133 A 
HETATM    6  C   UNL     1      55.836  87.976  38.361  1.00  0.00     0.237 A 
ENDROOT
BRANCH   3   7
HETATM    7  N   UNL     1      59.183  88.569  37.235  1.00  0.00    -0.341 N 
HETATM    8  H   UNL     1      59.546  89.055  38.051  1.00  0.00     0.167 HD
BRANCH   7   9
HETATM    9  C   UNL     1      60.168  88.187  36.310  1.00  0.00     0.035 A 
HETATM   10  C   UNL     1      60.204  86.880  35.818  1.00  0.00     0.059 A 
HETATM   11  C   UNL     1      61.181  86.502  34.899  1.00  0.00     0.036 A 
HETATM   12  C   UNL     1      62.129  87.430  34.467  1.00  0.00     0.029 A 
HETATM   13  C   UNL     1      62.098  88.737  34.954  1.00  0.00     0.004 A 
HETATM   14  C   UNL     1      61.120  89.114  35.875  1.00  0.00     0.029 A 
BRANCH  11  15
HETATM   15  N   UNL     1      61.212  85.195  34.410  1.00  0.00    -0.327 N 
HETATM   16  C   UNL     1      60.640  84.701  33.235  1.00  0.00     0.226 C 
HETATM   17  O   UNL     1      59.996  85.319  32.397  1.00  0.00    -0.273 OA
HETATM   18  H   UNL     1      61.711  84.526  34.992  1.00  0.00     0.169 HD
BRANCH  16  19
HETATM   19  C   UNL     1      60.870  83.238  33.018  1.00  0.00     0.078 A 
HETATM   20  C   UNL     1      59.962  82.511  32.092  1.00  0.00     0.015 A 
HETATM   21  C   UNL     1      59.875  82.279  33.571  1.00  0.00     0.015 A 
ENDBRANCH  16  19
ENDBRANCH  11  15
ENDBRANCH   7   9
ENDBRANCH   3   7
BRANCH   5  22
HETATM   22  N   UNL     1      55.002  88.513  34.921  1.00  0.00    -0.341 N 
HETATM   23  H   UNL     1      54.977  87.655  34.374  1.00  0.00     0.167 HD
BRANCH  22  24
HETATM   24  C   UNL     1      54.587  89.638  34.179  1.00  0.00     0.034 A 
HETATM   25  C   UNL     1      53.524  90.420  34.632  1.00  0.00     0.045 A 
HETATM   26  C   UNL     1      53.115  91.533  33.899  1.00  0.00     0.050 A 
HETATM   27  C   UNL     1      53.769  91.866  32.713  1.00  0.00     0.016 A 
HETATM   28  C   UNL     1      54.832  91.085  32.259  1.00  0.00     0.003 A 
HETATM   29  C   UNL     1      55.241  89.971  32.993  1.00  0.00     0.029 A 
BRANCH  26  30
HETATM   30  C   UNL     1      51.978  92.369  34.383  1.00  0.00     0.417 C 
HETATM   31  F   UNL     1      51.085  91.684  35.156  1.00  0.00    -0.166 F 
HETATM   32  F   UNL     1      52.368  93.432  35.145  1.00  0.00    -0.166 F 
HETATM   33  F   UNL     1      51.245  92.901  33.360  1.00  0.00    -0.166 F 
ENDBRANCH  26  30
ENDBRANCH  22  24
ENDBRANCH   5  22
TORSDOF 7
ENDMDL
MODEL 4
REMARK VINA RESULT:      -8.1      6.292     10.704
REMARK  7 active torsions:
REMARK  status: ('A' for Active; 'I' for Inactive)
REMARK       I    between atoms: N_5  and  C_13 
REMARK    1  A    between atoms: N_5  and  C_14 
REMARK    2  A    between atoms: N_6  and  C_17 
REMARK    3  A    between atoms: N_6  and  C_20 
REMARK    4  A    between atoms: N_7  and  C_21 
REMARK    5  A    between atoms: N_7  and  C_23 
REMARK    6  A    between atoms: C_10  and  C_13 
REMARK    7  A    between atoms: C_24  and  C_29 
ROOT
HETATM    1  N   UNL     1      55.702  87.411  37.893  1.00  0.00    -0.224 NA
HETATM    2  N   UNL     1      57.708  87.006  39.165  1.00  0.00    -0.224 NA
HETATM    3  C   UNL     1      56.460  87.444  36.778  1.00  0.00     0.133 A 
HETATM    4  C   UNL     1      57.829  87.269  36.775  1.00  0.00     0.100 A 
HETATM    5  C   UNL     1      58.413  87.050  38.010  1.00  0.00     0.133 A 
HETATM    6  C   UNL     1      56.381  87.192  39.035  1.00  0.00     0.237 A 
ENDROOT
BRANCH   3   7
HETATM    7  N   UNL     1      55.829  87.671  35.530  1.00  0.00    -0.341 N 
HETATM    8  H   UNL     1      55.446  86.829  35.111  1.00  0.00     0.167 HD
BRANCH   7   9
HETATM    9  C   UNL     1      55.628  88.834  34.767  1.00  0.00     0.035 A 
HETATM   10  C   UNL     1      54.491  89.621  34.970  1.00  0.00     0.059 A 
HETATM   11  C   UNL     1      54.292  90.775  34.214  1.00  0.00     0.036 A 
HETATM   12  C   UNL     1      55.230  91.148  33.250  1.00  0.00     0.029 A 
HETATM   13  C   UNL     1      56.366  90.366  33.044  1.00  0.00     0.004 A 
HETATM   14  C   UNL     1      56.564  89.211  33.801  1.00  0.00     0.029 A 
BRANCH  11  15
HETATM   15  N   UNL     1      53.156  91.558  34.420  1.00  0.00    -0.327 N 
HETATM   16  C   UNL     1      52.456  92.324  33.485  1.00  0.00     0.226 C 
HETATM   17  O   UNL     1      52.700  92.460  32.293  1.00  0.00    -0.273 OA
HETATM   18  H   UNL     1      52.805  91.571  35.376  1.00  0.00     0.169 HD
BRANCH  16  19
HETATM   19  C   UNL     1      51.273  93.044  34.055  1.00  0.00     0.078 A 
HETATM   20  C   UNL     1      51.520  94.179  34.984  1.00  0.00     0.015 A 
HETATM   21  C   UNL     1      50.981  92.879  35.505  1.00  0.00     0.015 A 
ENDBRANCH  16  19
ENDBRANCH  11  15
ENDBRANCH   7   9
ENDBRANCH   3   7
BRANCH   5  22
HETATM   22  N   UNL     1      59.808  86.865  38.052  1.00  0.00    -0.341 N 
HETATM   23  H   UNL     1      60.325  87.695  37.769  1.00  0.00     0.167 HD
BRANCH  22  24
HETATM   24  C   UNL     1      60.618  85.711  38.087  1.00  0.00     0.034 A 
HETATM   25  C   UNL     1      60.877  85.076  39.301  1.00  0.00     0.045 A 
HETATM   26  C   UNL     1      61.676  83.934  39.335  1.00  0.00     0.050 A 
HETATM   27  C   UNL     1      62.217  83.426  38.153  1.00  0.00     0.016 A 
HETATM   28  C   UNL     1      61.959  84.061  36.938  1.00  0.00     0.003 A 
HETATM   29  C   UNL     1      61.159  85.203  36.905  1.00  0.00     0.029 A 
BRANCH  26  30
HETATM   30  C   UNL     1      61.954  83.255  40.634  1.00  0.00     0.417 C 
HETATM   31  F   UNL     1      60.828  82.924  41.331  1.00  0.00    -0.166 F 
HETATM   32  F   UNL     1      62.647  82.086  40.501  1.00  0.00    -0.166 F 
HETATM   33  F   UNL     1      62.696  84.026  41.481  1.00  0.00    -0.166 F 
ENDBRANCH  26  30
ENDBRANCH  22  24
ENDBRANCH   5  22
TORSDOF 7
ENDMDL
MODEL 5
REMARK VINA RESULT:      -8.1      3.815      5.728
REMARK  7 active torsions:
REMARK  status: ('A' for Active; 'I' for Inactive)
REMARK       I    between atoms: N_5  and  C_13 
REMARK    1  A    between atoms: N_5  and  C_14 
REMARK    2  A    between atoms: N_6  and  C_17 
REMARK    3  A    between atoms: N_6  and  C_20 
REMARK    4  A    between atoms: N_7  and  C_21 
REMARK    5  A    between atoms: N_7  and  C_23 
REMARK    6  A    between atoms: C_10  and  C_13 
REMARK    7  A    between atoms: C_24  and  C_29 
ROOT
HETATM    1  N   UNL     1      58.362  89.092  35.570  1.00  0.00    -0.224 NA
HETATM    2  N   UNL     1      56.654  90.490  34.603  1.00  0.00    -0.224 NA
HETATM    3  C   UNL     1      57.425  88.140  35.759  1.00  0.00     0.133 A 
HETATM    4  C   UNL     1      56.100  88.288  35.401  1.00  0.00     0.100 A 
HETATM    5  C   UNL     1      55.761  89.496  34.820  1.00  0.00     0.133 A 
HETATM    6  C   UNL     1      57.914  90.225  34.996  1.00  0.00     0.237 A 
ENDROOT
BRANCH   3   7
HETATM    7  N   UNL     1      57.807  86.915  36.358  1.00  0.00    -0.341 N 
HETATM    8  H   UNL     1      57.510  86.098  35.832  1.00  0.00     0.167 HD
BRANCH   7   9
HETATM    9  C   UNL     1      58.520  86.615  37.530  1.00  0.00     0.035 A 
HETATM   10  C   UNL     1      57.838  86.361  38.723  1.00  0.00     0.059 A 
HETATM   11  C   UNL     1      58.547  86.062  39.886  1.00  0.00     0.036 A 
HETATM   12  C   UNL     1      59.941  86.014  39.861  1.00  0.00     0.029 A 
HETATM   13  C   UNL     1      60.626  86.266  38.673  1.00  0.00     0.004 A 
HETATM   14  C   UNL     1      59.917  86.566  37.509  1.00  0.00     0.029 A 
BRANCH  11  15
HETATM   15  N   UNL     1      57.862  85.809  41.076  1.00  0.00    -0.327 N 
HETATM   16  C   UNL     1      56.605  86.278  41.462  1.00  0.00     0.226 C 
HETATM   17  O   UNL     1      55.849  87.006  40.832  1.00  0.00    -0.273 OA
HETATM   18  H   UNL     1      58.352  85.212  41.739  1.00  0.00     0.169 HD
BRANCH  16  19
HETATM   19  C   UNL     1      56.172  85.805  42.815  1.00  0.00     0.078 A 
HETATM   20  C   UNL     1      55.866  86.825  43.854  1.00  0.00     0.015 A 
HETATM   21  C   UNL     1      57.107  85.988  43.958  1.00  0.00     0.015 A 
ENDBRANCH  16  19
ENDBRANCH  11  15
ENDBRANCH   7   9
ENDBRANCH   3   7
BRANCH   5  22
HETATM   22  N   UNL     1      54.419  89.686  34.440  1.00  0.00    -0.341 N 
HETATM   23  H   UNL     1      53.918  88.811  34.306  1.00  0.00     0.167 HD
BRANCH  22  24
HETATM   24  C   UNL     1      53.726  90.791  33.903  1.00  0.00     0.034 A 
HETATM   25  C   UNL     1      52.771  91.458  34.672  1.00  0.00     0.045 A 
HETATM   26  C   UNL     1      52.088  92.551  34.141  1.00  0.00     0.050 A 
HETATM   27  C   UNL     1      52.358  92.979  32.841  1.00  0.00     0.016 A 
HETATM   28  C   UNL     1      53.312  92.313  32.072  1.00  0.00     0.003 A 
HETATM   29  C   UNL     1      53.996  91.219  32.603  1.00  0.00     0.029 A 
BRANCH  26  30
HETATM   30  C   UNL     1      51.067  93.264  34.963  1.00  0.00     0.417 C 
HETATM   31  F   UNL     1      50.628  92.544  36.036  1.00  0.00    -0.166 F 
HETATM   32  F   UNL     1      51.513  94.445  35.484  1.00  0.00    -0.166 F 
HETATM   33  F   UNL     1      49.946  93.579  34.250  1.00  0.00    -0.166 F 
ENDBRANCH  26  30
ENDBRANCH  22  24
ENDBRANCH   5  22
TORSDOF 7
ENDMDL
MODEL 6
REMARK VINA RESULT:      -8.1      5.535     10.319
REMARK  7 active torsions:
REMARK  status: ('A' for Active; 'I' for Inactive)
REMARK       I    between atoms: N_5  and  C_13 
REMARK    1  A    between atoms: N_5  and  C_14 
REMARK    2  A    between atoms: N_6  and  C_17 
REMARK    3  A    between atoms: N_6  and  C_20 
REMARK    4  A    between atoms: N_7  and  C_21 
REMARK    5  A    between atoms: N_7  and  C_23 
REMARK    6  A    between atoms: C_10  and  C_13 
REMARK    7  A    between atoms: C_24  and  C_29 
ROOT
HETATM    1  N   UNL     1      55.469  87.634  37.723  1.00  0.00    -0.224 NA
HETATM    2  N   UNL     1      57.387  87.246  39.129  1.00  0.00    -0.224 NA
HETATM    3  C   UNL     1      56.294  87.620  36.656  1.00  0.00     0.133 A 
HETATM    4  C   UNL     1      57.658  87.427  36.744  1.00  0.00     0.100 A 
HETATM    5  C   UNL     1      58.162  87.243  38.019  1.00  0.00     0.133 A 
HETATM    6  C   UNL     1      56.073  87.445  38.912  1.00  0.00     0.237 A 
ENDROOT
BRANCH   3   7
HETATM    7  N   UNL     1      55.744  87.812  35.365  1.00  0.00    -0.341 N 
HETATM    8  H   UNL     1      55.502  86.944  34.895  1.00  0.00     0.167 HD
BRANCH   7   9
HETATM    9  C   UNL     1      55.465  88.967  34.617  1.00  0.00     0.035 A 
HETATM   10  C   UNL     1      54.314  89.716  34.880  1.00  0.00     0.059 A 
HETATM   11  C   UNL     1      54.038  90.863  34.137  1.00  0.00     0.036 A 
HETATM   12  C   UNL     1      54.912  91.268  33.127  1.00  0.00     0.029 A 
HETATM   13  C   UNL     1      56.062  90.524  32.861  1.00  0.00     0.004 A 
HETATM   14  C   UNL     1      56.337  89.376  33.604  1.00  0.00     0.029 A 
BRANCH  11  15
HETATM   15  N   UNL     1      52.888  91.608  34.403  1.00  0.00    -0.327 N 
HETATM   16  C   UNL     1      52.170  92.426  33.529  1.00  0.00     0.226 C 
HETATM   17  O   UNL     1      52.406  92.653  32.349  1.00  0.00    -0.273 OA
HETATM   18  H   UNL     1      52.542  91.544  35.358  1.00  0.00     0.169 HD
BRANCH  16  19
HETATM   19  C   UNL     1      50.977  93.080  34.153  1.00  0.00     0.078 A 
HETATM   20  C   UNL     1      51.113  94.480  34.637  1.00  0.00     0.015 A 
HETATM   21  C   UNL     1      51.007  93.349  35.617  1.00  0.00     0.015 A 
ENDBRANCH  16  19
ENDBRANCH  11  15
ENDBRANCH   7   9
ENDBRANCH   3   7
BRANCH   5  22
HETATM   22  N   UNL     1      59.549  87.042  38.153  1.00  0.00    -0.341 N 
HETATM   23  H   UNL     1      60.065  87.912  38.263  1.00  0.00     0.167 HD
BRANCH  22  24
HETATM   24  C   UNL     1      60.389  85.950  37.850  1.00  0.00     0.034 A 
HETATM   25  C   UNL     1      60.440  85.446  36.551  1.00  0.00     0.045 A 
HETATM   26  C   UNL     1      61.272  84.368  36.252  1.00  0.00     0.050 A 
HETATM   27  C   UNL     1      62.054  83.793  37.253  1.00  0.00     0.016 A 
HETATM   28  C   UNL     1      62.005  84.296  38.553  1.00  0.00     0.003 A 
HETATM   29  C   UNL     1      61.172  85.375  38.852  1.00  0.00     0.029 A 
BRANCH  26  30
HETATM   30  C   UNL     1      61.326  83.829  34.862  1.00  0.00     0.417 C 
HETATM   31  F   UNL     1      61.993  84.637  33.987  1.00  0.00    -0.166 F 
HETATM   32  F   UNL     1      61.946  82.616  34.771  1.00  0.00    -0.166 F 
HETATM   33  F   UNL     1      60.085  83.648  34.321  1.00  0.00    -0.166 F 
ENDBRANCH  26  30
ENDBRANCH  22  24
ENDBRANCH   5  22
TORSDOF 7
ENDMDL
MODEL 7
REMARK VINA RESULT:      -8.0      4.738      8.982
REMARK  7 active torsions:
REMARK  status: ('A' for Active; 'I' for Inactive)
REMARK       I    between atoms: N_5  and  C_13 
REMARK    1  A    between atoms: N_5  and  C_14 
REMARK    2  A    between atoms: N_6  and  C_17 
REMARK    3  A    between atoms: N_6  and  C_20 
REMARK    4  A    between atoms: N_7  and  C_21 
REMARK    5  A    between atoms: N_7  and  C_23 
REMARK    6  A    between atoms: C_10  and  C_13 
REMARK    7  A    between atoms: C_24  and  C_29 
ROOT
HETATM    1  N   UNL     1      60.148  90.397  34.048  1.00  0.00    -0.224 NA
HETATM    2  N   UNL     1      61.190  88.449  35.010  1.00  0.00    -0.224 NA
HETATM    3  C   UNL     1      59.017  90.074  34.710  1.00  0.00     0.133 A 
HETATM    4  C   UNL     1      58.898  88.970  35.530  1.00  0.00     0.100 A 
HETATM    5  C   UNL     1      60.027  88.179  35.648  1.00  0.00     0.133 A 
HETATM    6  C   UNL     1      61.180  89.554  34.240  1.00  0.00     0.237 A 
ENDROOT
BRANCH   3   7
HETATM    7  N   UNL     1      57.880  90.905  34.565  1.00  0.00    -0.341 N 
HETATM    8  H   UNL     1      57.975  91.805  35.028  1.00  0.00     0.167 HD
BRANCH   7   9
HETATM    9  C   UNL     1      56.654  90.729  33.902  1.00  0.00     0.035 A 
HETATM   10  C   UNL     1      55.485  91.293  34.420  1.00  0.00     0.059 A 
HETATM   11  C   UNL     1      54.270  91.118  33.760  1.00  0.00     0.036 A 
HETATM   12  C   UNL     1      54.217  90.378  32.579  1.00  0.00     0.029 A 
HETATM   13  C   UNL     1      55.381  89.813  32.057  1.00  0.00     0.004 A 
HETATM   14  C   UNL     1      56.597  89.987  32.719  1.00  0.00     0.029 A 
BRANCH  11  15
HETATM   15  N   UNL     1      53.105  91.683  34.281  1.00  0.00    -0.327 N 
HETATM   16  C   UNL     1      52.171  92.488  33.625  1.00  0.00     0.226 C 
HETATM   17  O   UNL     1      52.187  92.858  32.459  1.00  0.00    -0.273 OA
HETATM   18  H   UNL     1      52.927  91.483  35.263  1.00  0.00     0.169 HD
BRANCH  16  19
HETATM   19  C   UNL     1      51.031  92.924  34.493  1.00  0.00     0.078 A 
HETATM   20  C   UNL     1      50.740  94.379  34.597  1.00  0.00     0.015 A 
HETATM   21  C   UNL     1      51.344  93.645  35.757  1.00  0.00     0.015 A 
ENDBRANCH  16  19
ENDBRANCH  11  15
ENDBRANCH   7   9
ENDBRANCH   3   7
BRANCH   5  22
HETATM   22  N   UNL     1      59.947  87.043  36.475  1.00  0.00    -0.341 N 
HETATM   23  H   UNL     1      60.152  86.178  35.980  1.00  0.00     0.167 HD
BRANCH  22  24
HETATM   24  C   UNL     1      59.344  86.816  37.730  1.00  0.00     0.034 A 
HETATM   25  C   UNL     1      58.083  87.345  38.005  1.00  0.00     0.045 A 
HETATM   26  C   UNL     1      57.487  87.118  39.245  1.00  0.00     0.050 A 
HETATM   27  C   UNL     1      58.153  86.363  40.211  1.00  0.00     0.016 A 
HETATM   28  C   UNL     1      59.414  85.835  39.937  1.00  0.00     0.003 A 
HETATM   29  C   UNL     1      60.009  86.061  38.696  1.00  0.00     0.029 A 
BRANCH  26  30
HETATM   30  C   UNL     1      56.139  87.684  39.540  1.00  0.00     0.417 C 
HETATM   31  F   UNL     1      55.626  87.281  40.740  1.00  0.00    -0.166 F 
HETATM   32  F   UNL     1      56.117  89.049  39.584  1.00  0.00    -0.166 F 
HETATM   33  F   UNL     1      55.206  87.332  38.606  1.00  0.00    -0.166 F 
ENDBRANCH  26  30
ENDBRANCH  22  24
ENDBRANCH   5  22
TORSDOF 7
ENDMDL
MODEL 8
REMARK VINA RESULT:      -8.0      1.532      2.096
REMARK  7 active torsions:
REMARK  status: ('A' for Active; 'I' for Inactive)
REMARK       I    between atoms: N_5  and  C_13 
REMARK    1  A    between atoms: N_5  and  C_14 
REMARK    2  A    between atoms: N_6  and  C_17 
REMARK    3  A    between atoms: N_6  and  C_20 
REMARK    4  A    between atoms: N_7  and  C_21 
REMARK    5  A    between atoms: N_7  and  C_23 
REMARK    6  A    between atoms: C_10  and  C_13 
REMARK    7  A    between atoms: C_24  and  C_29 
ROOT
HETATM    1  N   UNL     1      58.699  88.299  37.506  1.00  0.00    -0.224 NA
HETATM    2  N   UNL     1      56.381  88.895  37.226  1.00  0.00    -0.224 NA
HETATM    3  C   UNL     1      58.710  87.889  36.220  1.00  0.00     0.133 A 
HETATM    4  C   UNL     1      57.612  87.950  35.386  1.00  0.00     0.100 A 
HETATM    5  C   UNL     1      56.457  88.467  35.944  1.00  0.00     0.133 A 
HETATM    6  C   UNL     1      57.519  88.783  37.937  1.00  0.00     0.237 A 
ENDROOT
BRANCH   3   7
HETATM    7  N   UNL     1      59.910  87.364  35.682  1.00  0.00    -0.341 N 
HETATM    8  H   UNL     1      60.748  87.731  36.126  1.00  0.00     0.167 HD
BRANCH   7   9
HETATM    9  C   UNL     1      60.164  86.432  34.662  1.00  0.00     0.035 A 
HETATM   10  C   UNL     1      60.488  85.110  34.979  1.00  0.00     0.059 A 
HETATM   11  C   UNL     1      60.738  84.186  33.966  1.00  0.00     0.036 A 
HETATM   12  C   UNL     1      60.664  84.579  32.629  1.00  0.00     0.029 A 
HETATM   13  C   UNL     1      60.341  85.897  32.307  1.00  0.00     0.004 A 
HETATM   14  C   UNL     1      60.092  86.822  33.321  1.00  0.00     0.029 A 
BRANCH  11  15
HETATM   15  N   UNL     1      61.060  82.867  34.287  1.00  0.00    -0.327 N 
HETATM   16  C   UNL     1      60.337  81.708  33.998  1.00  0.00     0.226 C 
HETATM   17  O   UNL     1      59.272  81.618  33.400  1.00  0.00    -0.273 OA
HETATM   18  H   UNL     1      61.930  82.747  34.802  1.00  0.00     0.169 HD
BRANCH  16  19
HETATM   19  C   UNL     1      60.981  80.452  34.495  1.00  0.00     0.078 A 
HETATM   20  C   UNL     1      61.291  79.380  33.511  1.00  0.00     0.015 A 
HETATM   21  C   UNL     1      60.175  79.200  34.498  1.00  0.00     0.015 A 
ENDBRANCH  16  19
ENDBRANCH  11  15
ENDBRANCH   7   9
ENDBRANCH   3   7
BRANCH   5  22
HETATM   22  N   UNL     1      55.313  88.547  35.126  1.00  0.00    -0.341 N 
HETATM   23  H   UNL     1      54.920  87.634  34.908  1.00  0.00     0.167 HD
BRANCH  22  24
HETATM   24  C   UNL     1      54.799  89.568  34.301  1.00  0.00     0.034 A 
HETATM   25  C   UNL     1      53.690  90.307  34.712  1.00  0.00     0.045 A 
HETATM   26  C   UNL     1      53.184  91.318  33.896  1.00  0.00     0.050 A 
HETATM   27  C   UNL     1      53.786  91.590  32.668  1.00  0.00     0.016 A 
HETATM   28  C   UNL     1      54.894  90.851  32.255  1.00  0.00     0.003 A 
HETATM   29  C   UNL     1      55.401  89.840  33.072  1.00  0.00     0.029 A 
BRANCH  26  30
HETATM   30  C   UNL     1      51.998  92.109  34.337  1.00  0.00     0.417 C 
HETATM   31  F   UNL     1      51.217  92.546  33.305  1.00  0.00    -0.166 F 
HETATM   32  F   UNL     1      51.152  91.416  35.154  1.00  0.00    -0.166 F 
HETATM   33  F   UNL     1      52.344  93.231  35.034  1.00  0.00    -0.166 F 
ENDBRANCH  26  30
ENDBRANCH  22  24
ENDBRANCH   5  22
TORSDOF 7
ENDMDL
MODEL 9
REMARK VINA RESULT:      -7.9      2.089      2.940
REMARK  7 active torsions:
REMARK  status: ('A' for Active; 'I' for Inactive)
REMARK       I    between atoms: N_5  and  C_13 
REMARK    1  A    between atoms: N_5  and  C_14 
REMARK    2  A    between atoms: N_6  and  C_17 
REMARK    3  A    between atoms: N_6  and  C_20 
REMARK    4  A    between atoms: N_7  and  C_21 
REMARK    5  A    between atoms: N_7  and  C_23 
REMARK    6  A    between atoms: C_10  and  C_13 
REMARK    7  A    between atoms: C_24  and  C_29 
ROOT
HETATM    1  N   UNL     1      58.272  89.026  35.709  1.00  0.00    -0.224 NA
HETATM    2  N   UNL     1      56.642  90.355  34.533  1.00  0.00    -0.224 NA
HETATM    3  C   UNL     1      57.291  88.146  35.998  1.00  0.00     0.133 A 
HETATM    4  C   UNL     1      55.980  88.299  35.594  1.00  0.00     0.100 A 
HETATM    5  C   UNL     1      55.703  89.436  34.856  1.00  0.00     0.133 A 
HETATM    6  C   UNL     1      57.883  90.092  34.985  1.00  0.00     0.237 A 
ENDROOT
BRANCH   3   7
HETATM    7  N   UNL     1      57.610  86.993  36.757  1.00  0.00    -0.341 N 
HETATM    8  H   UNL     1      56.794  86.522  37.139  1.00  0.00     0.167 HD
BRANCH   7   9
HETATM    9  C   UNL     1      58.830  86.376  37.077  1.00  0.00     0.035 A 
HETATM   10  C   UNL     1      59.609  85.794  36.073  1.00  0.00     0.059 A 
HETATM   11  C   UNL     1      60.821  85.183  36.391  1.00  0.00     0.036 A 
HETATM   12  C   UNL     1      61.261  85.152  37.715  1.00  0.00     0.029 A 
HETATM   13  C   UNL     1      60.488  85.731  38.720  1.00  0.00     0.004 A 
HETATM   14  C   UNL     1      59.274  86.341  38.402  1.00  0.00     0.029 A 
BRANCH  11  15
HETATM   15  N   UNL     1      61.597  84.604  35.385  1.00  0.00    -0.327 N 
HETATM   16  C   UNL     1      61.210  83.649  34.442  1.00  0.00     0.226 C 
HETATM   17  O   UNL     1      60.110  83.129  34.309  1.00  0.00    -0.273 OA
HETATM   18  H   UNL     1      62.563  84.920  35.346  1.00  0.00     0.169 HD
BRANCH  16  19
HETATM   19  C   UNL     1      62.305  83.247  33.503  1.00  0.00     0.078 A 
HETATM   20  C   UNL     1      62.362  83.898  32.167  1.00  0.00     0.015 A 
HETATM   21  C   UNL     1      61.942  82.463  32.292  1.00  0.00     0.015 A 
ENDBRANCH  16  19
ENDBRANCH  11  15
ENDBRANCH   7   9
ENDBRANCH   3   7
BRANCH   5  22
HETATM   22  N   UNL     1      54.377  89.630  34.424  1.00  0.00    -0.341 N 
HETATM   23  H   UNL     1      53.890  88.755  34.240  1.00  0.00     0.167 HD
BRANCH  22  24
HETATM   24  C   UNL     1      53.699  90.748  33.897  1.00  0.00     0.034 A 
HETATM   25  C   UNL     1      52.751  91.419  34.670  1.00  0.00     0.045 A 
HETATM   26  C   UNL     1      52.082  92.525  34.147  1.00  0.00     0.050 A 
HETATM   27  C   UNL     1      52.360  92.961  32.852  1.00  0.00     0.016 A 
HETATM   28  C   UNL     1      53.307  92.290  32.078  1.00  0.00     0.003 A 
HETATM   29  C   UNL     1      53.977  91.183  32.601  1.00  0.00     0.029 A 
BRANCH  26  30
HETATM   30  C   UNL     1      51.068  93.243  34.974  1.00  0.00     0.417 C 
HETATM   31  F   UNL     1      50.650  92.536  36.064  1.00  0.00    -0.166 F 
HETATM   32  F   UNL     1      51.514  94.434  35.472  1.00  0.00    -0.166 F 
HETATM   33  F   UNL     1      49.935  93.541  34.273  1.00  0.00    -0.166 F 
ENDBRANCH  26  30
ENDBRANCH  22  24
ENDBRANCH   5  22
TORSDOF 7
ENDMDL
