REMARK  7 active torsions:
REMARK  status: ('A' for Active; 'I' for Inactive)
REMARK    1  A    between atoms: N_5  and  C_15 
REMARK    2  A    between atoms: N_7  and  C_22 
REMARK       I    between atoms: N_7  and  C_24 
REMARK    3  A    between atoms: C_15  and  C_16 
REMARK    4  A    between atoms: C_18  and  C_23 
REMARK    5  A    between atoms: C_24  and  C_25 
REMARK    6  A    between atoms: C_28  and  C_32 
REMARK    7  A    between atoms: C_33  and  C_35 
ROOT
HETATM    1  O   UNL     1      -0.275  -0.963   0.324  1.00  0.00    -0.267 OA
HETATM    2  N   UNL     1       1.019   0.962  -0.058  1.00  0.00    -0.323 N 
HETATM    3  C   UNL     1      -0.157   0.200  -0.045  1.00  0.00     0.256 C 
HETATM    4  H   UNL     1       0.957   1.932  -0.355  1.00  0.00     0.169 HD
ENDROOT
BRANCH   2   5
HETATM    5  C   UNL     1       2.298   0.574   0.341  1.00  0.00     0.035 A 
HETATM    6  C   UNL     1       3.358   1.477   0.259  1.00  0.00     0.046 A 
HETATM    7  C   UNL     1       4.638   1.089   0.658  1.00  0.00     0.058 A 
HETATM    8  C   UNL     1       4.856  -0.201   1.140  1.00  0.00    -0.015 A 
HETATM    9  C   UNL     1       3.796  -1.104   1.223  1.00  0.00     0.012 A 
HETATM   10  C   UNL     1       2.517  -0.716   0.823  1.00  0.00     0.030 A 
BRANCH   7  11
HETATM   11  C   UNL     1       5.757   2.073   0.563  1.00  0.00     0.418 C 
HETATM   12  F   UNL     1       5.375   3.289   0.073  1.00  0.00    -0.166 F 
HETATM   13  F   UNL     1       6.350   2.341   1.763  1.00  0.00    -0.166 F 
HETATM   14  F   UNL     1       6.761   1.646  -0.256  1.00  0.00    -0.166 F 
ENDBRANCH   7  11
BRANCH   8  15
HETATM   15  C   UNL     1       6.228  -0.643   1.578  1.00  0.00     0.311 C 
BRANCH  15  16
HETATM   16  N   UNL     1       7.097  -0.928   0.438  1.00  0.00     0.096 N 
HETATM   17  C   UNL     1       6.768  -2.229  -0.156  1.00  0.00     0.303 C 
HETATM   18  C   UNL     1       7.681  -2.530  -1.351  1.00  0.00     0.302 C 
HETATM   19  N   UNL     1       9.093  -2.491  -0.952  1.00  0.00     0.087 N 
HETATM   20  C   UNL     1       9.422  -1.191  -0.356  1.00  0.00     0.302 C 
HETATM   21  C   UNL     1       9.962  -2.775  -2.092  1.00  0.00     0.310 C 
HETATM   22  C   UNL     1       8.509  -0.890   0.838  1.00  0.00     0.303 C 
ENDBRANCH  15  16
ENDBRANCH   8  15
ENDBRANCH   2   5
BRANCH   3  23
HETATM   23  C   UNL     1      -1.368   0.889  -0.562  1.00  0.00     0.033 A 
HETATM   24  C   UNL     1      -2.633   0.510  -0.112  1.00  0.00     0.038 A 
HETATM   25  C   UNL     1      -3.769   1.158  -0.597  1.00  0.00     0.025 A 
HETATM   26  C   UNL     1      -3.641   2.185  -1.532  1.00  0.00    -0.043 A 
HETATM   27  C   UNL     1      -2.376   2.564  -1.982  1.00  0.00     0.009 A 
HETATM   28  C   UNL     1      -4.836   2.902  -2.074  1.00  0.00     0.049 C 
HETATM   29  C   UNL     1      -1.240   1.916  -1.497  1.00  0.00     0.017 A 
BRANCH  25  30
HETATM   30  C   UNL     1      -5.056   0.750  -0.121  1.00  0.00    -0.059 C 
HETATM   31  C   UNL     1      -6.136   0.407   0.279  1.00  0.00    -0.040 C 
BRANCH  31  32
HETATM   32  C   UNL     1      -7.421  -0.000   0.755  1.00  0.00     0.131 A 
HETATM   33  N   UNL     1      -8.250  -0.921   0.170  1.00  0.00    -0.206 N 
HETATM   34  N   UNL     1      -7.991  -1.611  -0.977  1.00  0.00    -0.177 NA
HETATM   35  C   UNL     1      -9.383  -1.009   0.959  1.00  0.00     0.151 A 
HETATM   36  C   UNL     1      -8.948  -2.420  -1.308  1.00  0.00     0.139 A 
HETATM   37  C   UNL     1     -10.217  -2.628  -0.571  1.00  0.00     0.025 A 
HETATM   38  C   UNL     1     -10.392  -1.910   0.544  1.00  0.00     0.054 A 
HETATM   39  N   UNL     1      -9.306  -0.200   1.997  1.00  0.00    -0.238 NA
HETATM   40  C   UNL     1      -8.092   0.427   1.876  1.00  0.00     0.160 A 
ENDBRANCH  31  32
ENDBRANCH  25  30
ENDBRANCH   3  23
TORSDOF 7
