MODEL 1
REMARK VINA RESULT:      -8.3      0.000      0.000
REMARK  7 active torsions:
REMARK  status: ('A' for Active; 'I' for Inactive)
REMARK       I    between atoms: N_5  and  C_13 
REMARK    1  A    between atoms: N_5  and  C_14 
REMARK    2  A    between atoms: N_6  and  C_17 
REMARK    3  A    between atoms: N_6  and  C_20 
REMARK    4  A    between atoms: N_7  and  C_21 
REMARK    5  A    between atoms: N_7  and  C_23 
REMARK    6  A    between atoms: C_10  and  C_13 
REMARK    7  A    between atoms: C_24  and  C_29 
ROOT
HETATM    1  N   UNL     1       2.068  71.426  12.704  1.00  0.00    -0.224 NA
HETATM    2  N   UNL     1       2.420  72.117  10.423  1.00  0.00    -0.224 NA
HETATM    3  C   UNL     1       1.286  70.428  12.242  1.00  0.00     0.133 A 
HETATM    4  C   UNL     1       1.029  70.213  10.903  1.00  0.00     0.100 A 
HETATM    5  C   UNL     1       1.626  71.097  10.023  1.00  0.00     0.133 A 
HETATM    6  C   UNL     1       2.594  72.222  11.754  1.00  0.00     0.237 A 
ENDROOT
BRANCH   3   7
HETATM    7  N   UNL     1       0.690  69.542  13.172  1.00  0.00    -0.341 N 
HETATM    8  H   UNL     1       1.338  68.860  13.554  1.00  0.00     0.167 HD
BRANCH   7   9
HETATM    9  C   UNL     1      -0.619  69.430  13.670  1.00  0.00     0.035 A 
HETATM   10  C   UNL     1      -1.704  69.371  12.791  1.00  0.00     0.059 A 
HETATM   11  C   UNL     1      -3.003  69.258  13.286  1.00  0.00     0.036 A 
HETATM   12  C   UNL     1      -3.223  69.205  14.663  1.00  0.00     0.029 A 
HETATM   13  C   UNL     1      -2.143  69.264  15.544  1.00  0.00     0.004 A 
HETATM   14  C   UNL     1      -0.844  69.377  15.048  1.00  0.00     0.029 A 
BRANCH  11  15
HETATM   15  N   UNL     1      -4.083  69.198  12.405  1.00  0.00    -0.327 N 
HETATM   16  C   UNL     1      -4.811  70.259  11.861  1.00  0.00     0.226 C 
HETATM   17  O   UNL     1      -4.644  71.457  12.048  1.00  0.00    -0.273 OA
HETATM   18  H   UNL     1      -4.372  68.260  12.137  1.00  0.00     0.169 HD
BRANCH  16  19
HETATM   19  C   UNL     1      -5.914  69.830  10.944  1.00  0.00     0.078 A 
HETATM   20  C   UNL     1      -6.376  70.785   9.901  1.00  0.00     0.015 A 
HETATM   21  C   UNL     1      -7.243  70.483  11.088  1.00  0.00     0.015 A 
ENDBRANCH  16  19
ENDBRANCH  11  15
ENDBRANCH   7   9
ENDBRANCH   3   7
BRANCH   5  22
HETATM   22  N   UNL     1       1.388  70.912   8.647  1.00  0.00    -0.341 N 
HETATM   23  H   UNL     1       1.819  70.065   8.282  1.00  0.00     0.167 HD
BRANCH  22  24
HETATM   24  C   UNL     1       0.969  71.787   7.624  1.00  0.00     0.034 A 
HETATM   25  C   UNL     1       1.628  71.794   6.395  1.00  0.00     0.045 A 
HETATM   26  C   UNL     1       1.212  72.658   5.384  1.00  0.00     0.050 A 
HETATM   27  C   UNL     1       0.135  73.518   5.602  1.00  0.00     0.016 A 
HETATM   28  C   UNL     1      -0.525  73.513   6.830  1.00  0.00     0.003 A 
HETATM   29  C   UNL     1      -0.108  72.647   7.842  1.00  0.00     0.029 A 
BRANCH  26  30
HETATM   30  C   UNL     1       1.917  72.665   4.070  1.00  0.00     0.417 C 
HETATM   31  F   UNL     1       1.798  71.494   3.378  1.00  0.00    -0.166 F 
HETATM   32  F   UNL     1       1.470  73.632   3.215  1.00  0.00    -0.166 F 
HETATM   33  F   UNL     1       3.260  72.881   4.196  1.00  0.00    -0.166 F 
ENDBRANCH  26  30
ENDBRANCH  22  24
ENDBRANCH   5  22
TORSDOF 7
ENDMDL
MODEL 2
REMARK VINA RESULT:      -8.2      5.439      9.747
REMARK  7 active torsions:
REMARK  status: ('A' for Active; 'I' for Inactive)
REMARK       I    between atoms: N_5  and  C_13 
REMARK    1  A    between atoms: N_5  and  C_14 
REMARK    2  A    between atoms: N_6  and  C_17 
REMARK    3  A    between atoms: N_6  and  C_20 
REMARK    4  A    between atoms: N_7  and  C_21 
REMARK    5  A    between atoms: N_7  and  C_23 
REMARK    6  A    between atoms: C_10  and  C_13 
REMARK    7  A    between atoms: C_24  and  C_29 
ROOT
HETATM    1  N   UNL     1       2.213  72.070  10.584  1.00  0.00    -0.224 NA
HETATM    2  N   UNL     1       1.778  71.205  12.790  1.00  0.00    -0.224 NA
HETATM    3  C   UNL     1       1.506  71.037  10.080  1.00  0.00     0.133 A 
HETATM    4  C   UNL     1       0.913  70.063  10.857  1.00  0.00     0.100 A 
HETATM    5  C   UNL     1       1.081  70.193  12.224  1.00  0.00     0.133 A 
HETATM    6  C   UNL     1       2.309  72.091  11.927  1.00  0.00     0.237 A 
ENDROOT
BRANCH   3   7
HETATM    7  N   UNL     1       1.355  70.934   8.675  1.00  0.00    -0.341 N 
HETATM    8  H   UNL     1       1.644  70.035   8.302  1.00  0.00     0.167 HD
BRANCH   7   9
HETATM    9  C   UNL     1       0.877  71.831   7.705  1.00  0.00     0.035 A 
HETATM   10  C   UNL     1       1.397  71.807   6.408  1.00  0.00     0.059 A 
HETATM   11  C   UNL     1       0.921  72.697   5.446  1.00  0.00     0.036 A 
HETATM   12  C   UNL     1      -0.077  73.615   5.776  1.00  0.00     0.029 A 
HETATM   13  C   UNL     1      -0.598  73.642   7.069  1.00  0.00     0.004 A 
HETATM   14  C   UNL     1      -0.122  72.753   8.032  1.00  0.00     0.029 A 
BRANCH  11  15
HETATM   15  N   UNL     1       1.442  72.669   4.151  1.00  0.00    -0.327 N 
HETATM   16  C   UNL     1       2.696  73.106   3.718  1.00  0.00     0.226 C 
HETATM   17  O   UNL     1       3.592  73.601   4.390  1.00  0.00    -0.273 OA
HETATM   18  H   UNL     1       0.821  72.286   3.442  1.00  0.00     0.169 HD
BRANCH  16  19
HETATM   19  C   UNL     1       2.926  72.925   2.250  1.00  0.00     0.078 A 
HETATM   20  C   UNL     1       4.258  72.436   1.799  1.00  0.00     0.015 A 
HETATM   21  C   UNL     1       3.855  73.862   1.561  1.00  0.00     0.015 A 
ENDBRANCH  16  19
ENDBRANCH  11  15
ENDBRANCH   7   9
ENDBRANCH   3   7
BRANCH   5  22
HETATM   22  N   UNL     1       0.491  69.219  13.052  1.00  0.00    -0.341 N 
HETATM   23  H   UNL     1       0.965  68.320  13.003  1.00  0.00     0.167 HD
BRANCH  22  24
HETATM   24  C   UNL     1      -0.774  69.130  13.669  1.00  0.00     0.034 A 
HETATM   25  C   UNL     1      -0.899  69.349  15.041  1.00  0.00     0.045 A 
HETATM   26  C   UNL     1      -2.150  69.263  15.650  1.00  0.00     0.050 A 
HETATM   27  C   UNL     1      -3.277  68.956  14.888  1.00  0.00     0.016 A 
HETATM   28  C   UNL     1      -3.153  68.736  13.516  1.00  0.00     0.003 A 
HETATM   29  C   UNL     1      -1.901  68.823  12.907  1.00  0.00     0.029 A 
BRANCH  26  30
HETATM   30  C   UNL     1      -2.284  69.498  17.117  1.00  0.00     0.417 C 
HETATM   31  F   UNL     1      -1.188  69.114  17.836  1.00  0.00    -0.166 F 
HETATM   32  F   UNL     1      -2.483  70.808  17.445  1.00  0.00    -0.166 F 
HETATM   33  F   UNL     1      -3.336  68.819  17.664  1.00  0.00    -0.166 F 
ENDBRANCH  26  30
ENDBRANCH  22  24
ENDBRANCH   5  22
TORSDOF 7
ENDMDL
MODEL 3
REMARK VINA RESULT:      -8.1      4.866      8.454
REMARK  7 active torsions:
REMARK  status: ('A' for Active; 'I' for Inactive)
REMARK       I    between atoms: N_5  and  C_13 
REMARK    1  A    between atoms: N_5  and  C_14 
REMARK    2  A    between atoms: N_6  and  C_17 
REMARK    3  A    between atoms: N_6  and  C_20 
REMARK    4  A    between atoms: N_7  and  C_21 
REMARK    5  A    between atoms: N_7  and  C_23 
REMARK    6  A    between atoms: C_10  and  C_13 
REMARK    7  A    between atoms: C_24  and  C_29 
ROOT
HETATM    1  N   UNL     1      -1.343  69.103  14.602  1.00  0.00    -0.224 NA
HETATM    2  N   UNL     1      -3.552  70.064  14.666  1.00  0.00    -0.224 NA
HETATM    3  C   UNL     1      -1.168  69.680  13.395  1.00  0.00     0.133 A 
HETATM    4  C   UNL     1      -2.125  70.453  12.768  1.00  0.00     0.100 A 
HETATM    5  C   UNL     1      -3.315  70.616  13.454  1.00  0.00     0.133 A 
HETATM    6  C   UNL     1      -2.542  69.332  15.172  1.00  0.00     0.237 A 
ENDROOT
BRANCH   3   7
HETATM    7  N   UNL     1       0.063  69.491  12.720  1.00  0.00    -0.341 N 
HETATM    8  H   UNL     1       0.419  68.542  12.786  1.00  0.00     0.167 HD
BRANCH   7   9
HETATM    9  C   UNL     1       0.879  70.359  11.976  1.00  0.00     0.035 A 
HETATM   10  C   UNL     1       0.806  70.370  10.580  1.00  0.00     0.059 A 
HETATM   11  C   UNL     1       1.615  71.233   9.842  1.00  0.00     0.036 A 
HETATM   12  C   UNL     1       2.501  72.089  10.496  1.00  0.00     0.029 A 
HETATM   13  C   UNL     1       2.577  72.082  11.889  1.00  0.00     0.004 A 
HETATM   14  C   UNL     1       1.768  71.218  12.627  1.00  0.00     0.029 A 
BRANCH  11  15
HETATM   15  N   UNL     1       1.539  71.241   8.448  1.00  0.00    -0.327 N 
HETATM   16  C   UNL     1       0.653  71.955   7.639  1.00  0.00     0.226 C 
HETATM   17  O   UNL     1      -0.234  72.721   7.991  1.00  0.00    -0.273 OA
HETATM   18  H   UNL     1       2.212  70.643   7.974  1.00  0.00     0.169 HD
BRANCH  16  19
HETATM   19  C   UNL     1       0.854  71.727   6.173  1.00  0.00     0.078 A 
HETATM   20  C   UNL     1       1.941  72.475   5.485  1.00  0.00     0.015 A 
HETATM   21  C   UNL     1       0.504  72.827   5.234  1.00  0.00     0.015 A 
ENDBRANCH  16  19
ENDBRANCH  11  15
ENDBRANCH   7   9
ENDBRANCH   3   7
BRANCH   5  22
HETATM   22  N   UNL     1      -4.317  71.398  12.849  1.00  0.00    -0.341 N 
HETATM   23  H   UNL     1      -4.382  72.333  13.245  1.00  0.00     0.167 HD
BRANCH  22  24
HETATM   24  C   UNL     1      -5.436  71.069  12.056  1.00  0.00     0.034 A 
HETATM   25  C   UNL     1      -6.716  71.442  12.465  1.00  0.00     0.045 A 
HETATM   26  C   UNL     1      -7.822  71.118  11.680  1.00  0.00     0.050 A 
HETATM   27  C   UNL     1      -7.648  70.421  10.484  1.00  0.00     0.016 A 
HETATM   28  C   UNL     1      -6.368  70.048  10.074  1.00  0.00     0.003 A 
HETATM   29  C   UNL     1      -5.262  70.372  10.860  1.00  0.00     0.029 A 
BRANCH  26  30
HETATM   30  C   UNL     1      -9.192  71.516  12.118  1.00  0.00     0.417 C 
HETATM   31  F   UNL     1      -9.695  72.587  11.436  1.00  0.00    -0.166 F 
HETATM   32  F   UNL     1     -10.122  70.528  11.966  1.00  0.00    -0.166 F 
HETATM   33  F   UNL     1      -9.240  71.865  13.437  1.00  0.00    -0.166 F 
ENDBRANCH  26  30
ENDBRANCH  22  24
ENDBRANCH   5  22
TORSDOF 7
ENDMDL
MODEL 4
REMARK VINA RESULT:      -8.1      5.042      9.465
REMARK  7 active torsions:
REMARK  status: ('A' for Active; 'I' for Inactive)
REMARK       I    between atoms: N_5  and  C_13 
REMARK    1  A    between atoms: N_5  and  C_14 
REMARK    2  A    between atoms: N_6  and  C_17 
REMARK    3  A    between atoms: N_6  and  C_20 
REMARK    4  A    between atoms: N_7  and  C_21 
REMARK    5  A    between atoms: N_7  and  C_23 
REMARK    6  A    between atoms: C_10  and  C_13 
REMARK    7  A    between atoms: C_24  and  C_29 
ROOT
HETATM    1  N   UNL     1      -0.549  73.537   7.276  1.00  0.00    -0.224 NA
HETATM    2  N   UNL     1      -0.848  73.866   9.644  1.00  0.00    -0.224 NA
HETATM    3  C   UNL     1       0.238  72.479   7.559  1.00  0.00     0.133 A 
HETATM    4  C   UNL     1       0.525  72.058   8.842  1.00  0.00     0.100 A 
HETATM    5  C   UNL     1      -0.049  72.795   9.863  1.00  0.00     0.133 A 
HETATM    6  C   UNL     1      -1.051  74.176   8.350  1.00  0.00     0.237 A 
ENDROOT
BRANCH   3   7
HETATM    7  N   UNL     1       0.810  71.748   6.490  1.00  0.00    -0.341 N 
HETATM    8  H   UNL     1       0.959  70.766   6.705  1.00  0.00     0.167 HD
BRANCH   7   9
HETATM    9  C   UNL     1       1.203  72.116   5.193  1.00  0.00     0.035 A 
HETATM   10  C   UNL     1       0.416  71.765   4.092  1.00  0.00     0.059 A 
HETATM   11  C   UNL     1       0.806  72.133   2.805  1.00  0.00     0.036 A 
HETATM   12  C   UNL     1       1.985  72.854   2.612  1.00  0.00     0.029 A 
HETATM   13  C   UNL     1       2.773  73.208   3.707  1.00  0.00     0.004 A 
HETATM   14  C   UNL     1       2.383  72.838   4.995  1.00  0.00     0.029 A 
BRANCH  11  15
HETATM   15  N   UNL     1       0.017  71.781   1.709  1.00  0.00    -0.327 N 
HETATM   16  C   UNL     1      -0.973  72.540   1.081  1.00  0.00     0.226 C 
HETATM   17  O   UNL     1      -1.346  73.670   1.367  1.00  0.00    -0.273 OA
HETATM   18  H   UNL     1       0.188  70.851   1.332  1.00  0.00     0.169 HD
BRANCH  16  19
HETATM   19  C   UNL     1      -1.625  71.848  -0.075  1.00  0.00     0.078 A 
HETATM   20  C   UNL     1      -1.296  70.417  -0.317  1.00  0.00     0.015 A 
HETATM   21  C   UNL     1      -0.779  71.479  -1.243  1.00  0.00     0.015 A 
ENDBRANCH  16  19
ENDBRANCH  11  15
ENDBRANCH   7   9
ENDBRANCH   3   7
BRANCH   5  22
HETATM   22  N   UNL     1       0.218  72.398  11.187  1.00  0.00    -0.341 N 
HETATM   23  H   UNL     1       0.902  72.994  11.648  1.00  0.00     0.167 HD
BRANCH  22  24
HETATM   24  C   UNL     1      -0.008  71.195  11.888  1.00  0.00     0.034 A 
HETATM   25  C   UNL     1      -1.312  70.775  12.153  1.00  0.00     0.045 A 
HETATM   26  C   UNL     1      -1.534  69.585  12.844  1.00  0.00     0.050 A 
HETATM   27  C   UNL     1      -0.453  68.813  13.270  1.00  0.00     0.016 A 
HETATM   28  C   UNL     1       0.851  69.232  13.005  1.00  0.00     0.003 A 
HETATM   29  C   UNL     1       1.073  70.423  12.313  1.00  0.00     0.029 A 
BRANCH  26  30
HETATM   30  C   UNL     1      -2.928  69.136  13.129  1.00  0.00     0.417 C 
HETATM   31  F   UNL     1      -3.038  68.371  14.254  1.00  0.00    -0.166 F 
HETATM   32  F   UNL     1      -3.807  70.165  13.311  1.00  0.00    -0.166 F 
HETATM   33  F   UNL     1      -3.453  68.380  12.120  1.00  0.00    -0.166 F 
ENDBRANCH  26  30
ENDBRANCH  22  24
ENDBRANCH   5  22
TORSDOF 7
ENDMDL
MODEL 5
REMARK VINA RESULT:      -7.8      2.513      4.751
REMARK  7 active torsions:
REMARK  status: ('A' for Active; 'I' for Inactive)
REMARK       I    between atoms: N_5  and  C_13 
REMARK    1  A    between atoms: N_5  and  C_14 
REMARK    2  A    between atoms: N_6  and  C_17 
REMARK    3  A    between atoms: N_6  and  C_20 
REMARK    4  A    between atoms: N_7  and  C_21 
REMARK    5  A    between atoms: N_7  and  C_23 
REMARK    6  A    between atoms: C_10  and  C_13 
REMARK    7  A    between atoms: C_24  and  C_29 
ROOT
HETATM    1  N   UNL     1      -0.093  73.018   8.395  1.00  0.00    -0.224 NA
HETATM    2  N   UNL     1      -0.647  73.299   6.067  1.00  0.00    -0.224 NA
HETATM    3  C   UNL     1       0.523  71.863   8.071  1.00  0.00     0.133 A 
HETATM    4  C   UNL     1       0.596  71.367   6.785  1.00  0.00     0.100 A 
HETATM    5  C   UNL     1      -0.013  72.132   5.806  1.00  0.00     0.133 A 
HETATM    6  C   UNL     1      -0.649  73.676   7.359  1.00  0.00     0.237 A 
ENDROOT
BRANCH   3   7
HETATM    7  N   UNL     1       1.135  71.104   9.098  1.00  0.00    -0.341 N 
HETATM    8  H   UNL     1       1.485  70.203   8.783  1.00  0.00     0.167 HD
BRANCH   7   9
HETATM    9  C   UNL     1       1.357  71.360  10.461  1.00  0.00     0.035 A 
HETATM   10  C   UNL     1       0.390  71.014  11.409  1.00  0.00     0.059 A 
HETATM   11  C   UNL     1       0.612  71.267  12.762  1.00  0.00     0.036 A 
HETATM   12  C   UNL     1       1.802  71.867  13.174  1.00  0.00     0.029 A 
HETATM   13  C   UNL     1       2.770  72.214  12.233  1.00  0.00     0.004 A 
HETATM   14  C   UNL     1       2.548  71.961  10.879  1.00  0.00     0.029 A 
BRANCH  11  15
HETATM   15  N   UNL     1      -0.357  70.919  13.705  1.00  0.00    -0.327 N 
HETATM   16  C   UNL     1      -1.071  69.723  13.805  1.00  0.00     0.226 C 
HETATM   17  O   UNL     1      -0.990  68.738  13.083  1.00  0.00    -0.273 OA
HETATM   18  H   UNL     1      -0.564  71.635  14.398  1.00  0.00     0.169 HD
BRANCH  16  19
HETATM   19  C   UNL     1      -2.038  69.689  14.947  1.00  0.00     0.078 A 
HETATM   20  C   UNL     1      -3.140  68.690  14.909  1.00  0.00     0.015 A 
HETATM   21  C   UNL     1      -3.433  70.147  14.703  1.00  0.00     0.015 A 
ENDBRANCH  16  19
ENDBRANCH  11  15
ENDBRANCH   7   9
ENDBRANCH   3   7
BRANCH   5  22
HETATM   22  N   UNL     1       0.039  71.661   4.480  1.00  0.00    -0.341 N 
HETATM   23  H   UNL     1      -0.096  70.655   4.413  1.00  0.00     0.167 HD
BRANCH  22  24
HETATM   24  C   UNL     1       0.545  72.219   3.288  1.00  0.00     0.034 A 
HETATM   25  C   UNL     1       1.923  72.310   3.089  1.00  0.00     0.045 A 
HETATM   26  C   UNL     1       2.422  72.860   1.909  1.00  0.00     0.050 A 
HETATM   27  C   UNL     1       1.545  73.320   0.928  1.00  0.00     0.016 A 
HETATM   28  C   UNL     1       0.167  73.229   1.126  1.00  0.00     0.003 A 
HETATM   29  C   UNL     1      -0.333  72.679   2.306  1.00  0.00     0.029 A 
BRANCH  26  30
HETATM   30  C   UNL     1       3.896  72.958   1.697  1.00  0.00     0.417 C 
HETATM   31  F   UNL     1       4.621  72.121   2.495  1.00  0.00    -0.166 F 
HETATM   32  F   UNL     1       4.284  72.660   0.422  1.00  0.00    -0.166 F 
HETATM   33  F   UNL     1       4.380  74.210   1.944  1.00  0.00    -0.166 F 
ENDBRANCH  26  30
ENDBRANCH  22  24
ENDBRANCH   5  22
TORSDOF 7
ENDMDL
MODEL 6
REMARK VINA RESULT:      -7.7      5.183      8.953
REMARK  7 active torsions:
REMARK  status: ('A' for Active; 'I' for Inactive)
REMARK       I    between atoms: N_5  and  C_13 
REMARK    1  A    between atoms: N_5  and  C_14 
REMARK    2  A    between atoms: N_6  and  C_17 
REMARK    3  A    between atoms: N_6  and  C_20 
REMARK    4  A    between atoms: N_7  and  C_21 
REMARK    5  A    between atoms: N_7  and  C_23 
REMARK    6  A    between atoms: C_10  and  C_13 
REMARK    7  A    between atoms: C_24  and  C_29 
ROOT
HETATM    1  N   UNL     1      -2.360  68.916  12.605  1.00  0.00    -0.224 NA
HETATM    2  N   UNL     1      -4.645  69.442  12.051  1.00  0.00    -0.224 NA
HETATM    3  C   UNL     1      -2.117  70.240  12.698  1.00  0.00     0.133 A 
HETATM    4  C   UNL     1      -3.073  71.212  12.485  1.00  0.00     0.100 A 
HETATM    5  C   UNL     1      -4.338  70.756  12.159  1.00  0.00     0.133 A 
HETATM    6  C   UNL     1      -3.627  68.593  12.282  1.00  0.00     0.237 A 
ENDROOT
BRANCH   3   7
HETATM    7  N   UNL     1      -0.810  70.672  13.032  1.00  0.00    -0.341 N 
HETATM    8  H   UNL     1      -0.606  70.611  14.026  1.00  0.00     0.167 HD
BRANCH   7   9
HETATM    9  C   UNL     1       0.254  71.161  12.257  1.00  0.00     0.035 A 
HETATM   10  C   UNL     1       0.106  71.317  10.876  1.00  0.00     0.059 A 
HETATM   11  C   UNL     1       1.163  71.803  10.107  1.00  0.00     0.036 A 
HETATM   12  C   UNL     1       2.374  72.136  10.716  1.00  0.00     0.029 A 
HETATM   13  C   UNL     1       2.526  71.982  12.094  1.00  0.00     0.004 A 
HETATM   14  C   UNL     1       1.469  71.494  12.862  1.00  0.00     0.029 A 
BRANCH  11  15
HETATM   15  N   UNL     1       1.010  71.958   8.729  1.00  0.00    -0.327 N 
HETATM   16  C   UNL     1       0.118  72.791   8.049  1.00  0.00     0.226 C 
HETATM   17  O   UNL     1      -0.710  73.553   8.529  1.00  0.00    -0.273 OA
HETATM   18  H   UNL     1       1.627  71.385   8.157  1.00  0.00     0.169 HD
BRANCH  16  19
HETATM   19  C   UNL     1       0.226  72.706   6.559  1.00  0.00     0.078 A 
HETATM   20  C   UNL     1       0.175  71.362   5.923  1.00  0.00     0.015 A 
HETATM   21  C   UNL     1       1.466  72.125   5.974  1.00  0.00     0.015 A 
ENDBRANCH  16  19
ENDBRANCH  11  15
ENDBRANCH   7   9
ENDBRANCH   3   7
BRANCH   5  22
HETATM   22  N   UNL     1      -5.343  71.716  11.934  1.00  0.00    -0.341 N 
HETATM   23  H   UNL     1      -4.985  72.571  11.513  1.00  0.00     0.167 HD
BRANCH  22  24
HETATM   24  C   UNL     1      -6.647  71.872  12.448  1.00  0.00     0.034 A 
HETATM   25  C   UNL     1      -7.674  71.035  12.012  1.00  0.00     0.045 A 
HETATM   26  C   UNL     1      -8.963  71.189  12.522  1.00  0.00     0.050 A 
HETATM   27  C   UNL     1      -9.225  72.179  13.468  1.00  0.00     0.016 A 
HETATM   28  C   UNL     1      -8.198  73.016  13.905  1.00  0.00     0.003 A 
HETATM   29  C   UNL     1      -6.909  72.862  13.395  1.00  0.00     0.029 A 
BRANCH  26  30
HETATM   30  C   UNL     1     -10.062  70.294  12.055  1.00  0.00     0.417 C 
HETATM   31  F   UNL     1     -10.364  69.294  12.933  1.00  0.00    -0.166 F 
HETATM   32  F   UNL     1     -11.242  70.947  11.838  1.00  0.00    -0.166 F 
HETATM   33  F   UNL     1      -9.767  69.670  10.877  1.00  0.00    -0.166 F 
ENDBRANCH  26  30
ENDBRANCH  22  24
ENDBRANCH   5  22
TORSDOF 7
ENDMDL
MODEL 7
REMARK VINA RESULT:      -7.7      3.058      5.741
REMARK  7 active torsions:
REMARK  status: ('A' for Active; 'I' for Inactive)
REMARK       I    between atoms: N_5  and  C_13 
REMARK    1  A    between atoms: N_5  and  C_14 
REMARK    2  A    between atoms: N_6  and  C_17 
REMARK    3  A    between atoms: N_6  and  C_20 
REMARK    4  A    between atoms: N_7  and  C_21 
REMARK    5  A    between atoms: N_7  and  C_23 
REMARK    6  A    between atoms: C_10  and  C_13 
REMARK    7  A    between atoms: C_24  and  C_29 
ROOT
HETATM    1  N   UNL     1      -4.248  70.976  13.866  1.00  0.00    -0.224 NA
HETATM    2  N   UNL     1      -1.919  71.094  14.473  1.00  0.00    -0.224 NA
HETATM    3  C   UNL     1      -3.881  70.361  12.723  1.00  0.00     0.133 A 
HETATM    4  C   UNL     1      -2.571  70.081  12.389  1.00  0.00     0.100 A 
HETATM    5  C   UNL     1      -1.615  70.473  13.309  1.00  0.00     0.133 A 
HETATM    6  C   UNL     1      -3.231  71.311  14.683  1.00  0.00     0.237 A 
ENDROOT
BRANCH   3   7
HETATM    7  N   UNL     1      -4.885  69.974  11.803  1.00  0.00    -0.341 N 
HETATM    8  H   UNL     1      -4.833  68.996  11.533  1.00  0.00     0.167 HD
BRANCH   7   9
HETATM    9  C   UNL     1      -5.941  70.679  11.200  1.00  0.00     0.035 A 
HETATM   10  C   UNL     1      -7.265  70.386  11.535  1.00  0.00     0.059 A 
HETATM   11  C   UNL     1      -8.312  71.087  10.937  1.00  0.00     0.036 A 
HETATM   12  C   UNL     1      -8.038  72.085  10.000  1.00  0.00     0.029 A 
HETATM   13  C   UNL     1      -6.718  72.381   9.663  1.00  0.00     0.004 A 
HETATM   14  C   UNL     1      -5.671  71.679  10.261  1.00  0.00     0.029 A 
BRANCH  11  15
HETATM   15  N   UNL     1      -9.633  70.792  11.275  1.00  0.00    -0.327 N 
HETATM   16  C   UNL     1     -10.462  71.463  12.177  1.00  0.00     0.226 C 
HETATM   17  O   UNL     1     -10.193  72.448  12.852  1.00  0.00    -0.273 OA
HETATM   18  H   UNL     1     -10.031  69.981  10.804  1.00  0.00     0.169 HD
BRANCH  16  19
HETATM   19  C   UNL     1     -11.832  70.871  12.297  1.00  0.00     0.078 A 
HETATM   20  C   UNL     1     -12.974  71.608  11.692  1.00  0.00     0.015 A 
HETATM   21  C   UNL     1     -12.817  71.549  13.183  1.00  0.00     0.015 A 
ENDBRANCH  16  19
ENDBRANCH  11  15
ENDBRANCH   7   9
ENDBRANCH   3   7
BRANCH   5  22
HETATM   22  N   UNL     1      -0.266  70.205  13.007  1.00  0.00    -0.341 N 
HETATM   23  H   UNL     1       0.180  69.599  13.692  1.00  0.00     0.167 HD
BRANCH  22  24
HETATM   24  C   UNL     1       0.666  70.838  12.158  1.00  0.00     0.034 A 
HETATM   25  C   UNL     1       0.484  70.810  10.776  1.00  0.00     0.045 A 
HETATM   26  C   UNL     1       1.405  71.437   9.938  1.00  0.00     0.050 A 
HETATM   27  C   UNL     1       2.509  72.094  10.483  1.00  0.00     0.016 A 
HETATM   28  C   UNL     1       2.692  72.122  11.865  1.00  0.00     0.003 A 
HETATM   29  C   UNL     1       1.770  71.495  12.703  1.00  0.00     0.029 A 
BRANCH  26  30
HETATM   30  C   UNL     1       1.211  71.407   8.459  1.00  0.00     0.417 C 
HETATM   31  F   UNL     1       0.634  70.255   8.006  1.00  0.00    -0.166 F 
HETATM   32  F   UNL     1       0.414  72.413   7.992  1.00  0.00    -0.166 F 
HETATM   33  F   UNL     1       2.386  71.523   7.773  1.00  0.00    -0.166 F 
ENDBRANCH  26  30
ENDBRANCH  22  24
ENDBRANCH   5  22
TORSDOF 7
ENDMDL
MODEL 8
REMARK VINA RESULT:      -7.6      2.757      5.240
REMARK  7 active torsions:
REMARK  status: ('A' for Active; 'I' for Inactive)
REMARK       I    between atoms: N_5  and  C_13 
REMARK    1  A    between atoms: N_5  and  C_14 
REMARK    2  A    between atoms: N_6  and  C_17 
REMARK    3  A    between atoms: N_6  and  C_20 
REMARK    4  A    between atoms: N_7  and  C_21 
REMARK    5  A    between atoms: N_7  and  C_23 
REMARK    6  A    between atoms: C_10  and  C_13 
REMARK    7  A    between atoms: C_24  and  C_29 
ROOT
HETATM    1  N   UNL     1      -0.180  72.785   7.874  1.00  0.00    -0.224 NA
HETATM    2  N   UNL     1      -0.034  73.625   5.621  1.00  0.00    -0.224 NA
HETATM    3  C   UNL     1       0.817  71.925   7.578  1.00  0.00     0.133 A 
HETATM    4  C   UNL     1       1.430  71.857   6.343  1.00  0.00     0.100 A 
HETATM    5  C   UNL     1       0.961  72.739   5.386  1.00  0.00     0.133 A 
HETATM    6  C   UNL     1      -0.551  73.593   6.863  1.00  0.00     0.237 A 
ENDROOT
BRANCH   3   7
HETATM    7  N   UNL     1       1.271  71.034   8.582  1.00  0.00    -0.341 N 
HETATM    8  H   UNL     1       1.489  70.106   8.231  1.00  0.00     0.167 HD
BRANCH   7   9
HETATM    9  C   UNL     1       1.482  71.190   9.962  1.00  0.00     0.035 A 
HETATM   10  C   UNL     1       0.681  70.504  10.879  1.00  0.00     0.059 A 
HETATM   11  C   UNL     1       0.893  70.659  12.248  1.00  0.00     0.036 A 
HETATM   12  C   UNL     1       1.908  71.500  12.707  1.00  0.00     0.029 A 
HETATM   13  C   UNL     1       2.710  72.186  11.796  1.00  0.00     0.004 A 
HETATM   14  C   UNL     1       2.497  72.032  10.426  1.00  0.00     0.029 A 
BRANCH  11  15
HETATM   15  N   UNL     1       0.091  69.971  13.161  1.00  0.00    -0.327 N 
HETATM   16  C   UNL     1      -1.192  70.303  13.601  1.00  0.00     0.226 C 
HETATM   17  O   UNL     1      -1.871  71.267  13.273  1.00  0.00    -0.273 OA
HETATM   18  H   UNL     1       0.505  69.127  13.552  1.00  0.00     0.169 HD
BRANCH  16  19
HETATM   19  C   UNL     1      -1.762  69.335  14.590  1.00  0.00     0.078 A 
HETATM   20  C   UNL     1      -3.081  68.716  14.292  1.00  0.00     0.015 A 
HETATM   21  C   UNL     1      -2.959  69.750  15.372  1.00  0.00     0.015 A 
ENDBRANCH  16  19
ENDBRANCH  11  15
ENDBRANCH   7   9
ENDBRANCH   3   7
BRANCH   5  22
HETATM   22  N   UNL     1       1.561  72.703   4.113  1.00  0.00    -0.341 N 
HETATM   23  H   UNL     1       2.573  72.609   4.155  1.00  0.00     0.167 HD
BRANCH  22  24
HETATM   24  C   UNL     1       1.107  73.083   2.833  1.00  0.00     0.034 A 
HETATM   25  C   UNL     1       0.327  72.205   2.079  1.00  0.00     0.045 A 
HETATM   26  C   UNL     1      -0.123  72.583   0.814  1.00  0.00     0.050 A 
HETATM   27  C   UNL     1       0.208  73.837   0.302  1.00  0.00     0.016 A 
HETATM   28  C   UNL     1       0.988  74.714   1.054  1.00  0.00     0.003 A 
HETATM   29  C   UNL     1       1.438  74.337   2.320  1.00  0.00     0.029 A 
BRANCH  26  30
HETATM   30  C   UNL     1      -0.957  71.645   0.008  1.00  0.00     0.417 C 
HETATM   31  F   UNL     1      -2.297  71.898   0.086  1.00  0.00    -0.166 F 
HETATM   32  F   UNL     1      -0.668  71.665  -1.326  1.00  0.00    -0.166 F 
HETATM   33  F   UNL     1      -0.808  70.344   0.396  1.00  0.00    -0.166 F 
ENDBRANCH  26  30
ENDBRANCH  22  24
ENDBRANCH   5  22
TORSDOF 7
ENDMDL
MODEL 9
REMARK VINA RESULT:      -7.5      3.491      5.494
REMARK  7 active torsions:
REMARK  status: ('A' for Active; 'I' for Inactive)
REMARK       I    between atoms: N_5  and  C_13 
REMARK    1  A    between atoms: N_5  and  C_14 
REMARK    2  A    between atoms: N_6  and  C_17 
REMARK    3  A    between atoms: N_6  and  C_20 
REMARK    4  A    between atoms: N_7  and  C_21 
REMARK    5  A    between atoms: N_7  and  C_23 
REMARK    6  A    between atoms: C_10  and  C_13 
REMARK    7  A    between atoms: C_24  and  C_29 
ROOT
HETATM    1  N   UNL     1       0.132  72.880   8.865  1.00  0.00    -0.224 NA
HETATM    2  N   UNL     1      -0.655  73.100   6.598  1.00  0.00    -0.224 NA
HETATM    3  C   UNL     1       0.858  71.813   8.470  1.00  0.00     0.133 A 
HETATM    4  C   UNL     1       0.879  71.337   7.175  1.00  0.00     0.100 A 
HETATM    5  C   UNL     1       0.095  72.024   6.265  1.00  0.00     0.133 A 
HETATM    6  C   UNL     1      -0.591  73.467   7.892  1.00  0.00     0.237 A 
ENDROOT
BRANCH   3   7
HETATM    7  N   UNL     1       1.648  71.133   9.428  1.00  0.00    -0.341 N 
HETATM    8  H   UNL     1       2.594  70.940   9.110  1.00  0.00     0.167 HD
BRANCH   7   9
HETATM    9  C   UNL     1       1.379  70.681  10.731  1.00  0.00     0.035 A 
HETATM   10  C   UNL     1       1.734  71.463  11.834  1.00  0.00     0.059 A 
HETATM   11  C   UNL     1       1.465  71.014  13.127  1.00  0.00     0.036 A 
HETATM   12  C   UNL     1       0.840  69.782  13.322  1.00  0.00     0.029 A 
HETATM   13  C   UNL     1       0.485  68.999  12.225  1.00  0.00     0.004 A 
HETATM   14  C   UNL     1       0.755  69.447  10.931  1.00  0.00     0.029 A 
BRANCH  11  15
HETATM   15  N   UNL     1       1.820  71.798  14.226  1.00  0.00    -0.327 N 
HETATM   16  C   UNL     1       1.183  72.945  14.707  1.00  0.00     0.226 C 
HETATM   17  O   UNL     1       0.184  73.491  14.260  1.00  0.00    -0.273 OA
HETATM   18  H   UNL     1       2.650  71.490  14.728  1.00  0.00     0.169 HD
BRANCH  16  19
HETATM   19  C   UNL     1       1.838  73.538  15.916  1.00  0.00     0.078 A 
HETATM   20  C   UNL     1       3.275  73.238  16.159  1.00  0.00     0.015 A 
HETATM   21  C   UNL     1       2.217  72.627  17.030  1.00  0.00     0.015 A 
ENDBRANCH  16  19
ENDBRANCH  11  15
ENDBRANCH   7   9
ENDBRANCH   3   7
BRANCH   5  22
HETATM   22  N   UNL     1       0.088  71.570   4.932  1.00  0.00    -0.341 N 
HETATM   23  H   UNL     1      -0.038  70.563   4.858  1.00  0.00     0.167 HD
BRANCH  22  24
HETATM   24  C   UNL     1       0.530  72.149   3.724  1.00  0.00     0.034 A 
HETATM   25  C   UNL     1       1.895  72.225   3.444  1.00  0.00     0.045 A 
HETATM   26  C   UNL     1       2.331  72.796   2.249  1.00  0.00     0.050 A 
HETATM   27  C   UNL     1       1.403  73.291   1.334  1.00  0.00     0.016 A 
HETATM   28  C   UNL     1       0.038  73.216   1.613  1.00  0.00     0.003 A 
HETATM   29  C   UNL     1      -0.398  72.645   2.809  1.00  0.00     0.029 A 
BRANCH  26  30
HETATM   30  C   UNL     1       3.790  72.878   1.950  1.00  0.00     0.417 C 
HETATM   31  F   UNL     1       4.546  71.990   2.661  1.00  0.00    -0.166 F 
HETATM   32  F   UNL     1       4.093  72.635   0.640  1.00  0.00    -0.166 F 
HETATM   33  F   UNL     1       4.315  74.108   2.225  1.00  0.00    -0.166 F 
ENDBRANCH  26  30
ENDBRANCH  22  24
ENDBRANCH   5  22
TORSDOF 7
ENDMDL
