REMARK  2 active torsions:
REMARK  status: ('A' for Active; 'I' for Inactive)
REMARK    1  A    between atoms: C4_4  and  C7_7 
REMARK    2  A    between atoms: C5_5  and  C15_15 
ROOT
HETATM    1  N1    D T1240      88.759  12.707  31.072  1.00 25.62    -0.194 NA
HETATM    2  C2    D T1240      89.754  13.569  30.651  1.00 23.58     0.239 A 
HETATM    3  C3    D T1240      88.688  12.355  32.447  1.00 22.29     0.187 A 
HETATM    4  C4    D T1240      89.661  12.869  33.451  1.00 21.48     0.051 A 
HETATM    5  C5    D T1240      90.672  13.809  32.846  1.00 26.18     0.065 A 
HETATM    6  N6    D T1240      90.693  14.127  31.513  1.00 28.81    -0.219 NA
HETATM    7  N13   D T1240      87.730  11.532  32.872  1.00 22.31    -0.127 N 
HETATM    8  N14   D T1240      89.839  13.899  29.292  1.00 25.45    -0.060 NA
ENDROOT
BRANCH   4   9
HETATM    9  C7    D T1240      89.630  12.493  34.872  1.00 23.16     0.000 A 
HETATM   10  C8    D T1240      88.516  12.878  35.751  1.00 23.74     0.000 A 
HETATM   11  C9    D T1240      88.448  12.510  37.144  1.00 22.05     0.007 A 
HETATM   12  C10   D T1240      89.470  11.760  37.706  1.00 28.58     0.040 A 
HETATM   13  C11   D T1240      90.614  11.335  36.874  1.00 23.69     0.064 A 
HETATM   14 CL1    D T1240      89.483  11.316  39.294  1.00  5.79    -0.087 Cl
HETATM   15  C12   D T1240      90.660  11.712  35.483  1.00 23.56    -0.020 A 
ENDBRANCH   4   9
BRANCH   5  16
HETATM   16  C15   D T1240      91.722  14.446  33.725  1.00 31.62     0.046 C 
HETATM   17  C16   D T1240      91.538  15.935  33.982  1.00 31.37     0.007 C 
ENDBRANCH   5  16
TORSDOF 2
