MODEL 1
REMARK VINA RESULT:      -8.7      0.000      0.000
REMARK  7 active torsions:
REMARK  status: ('A' for Active; 'I' for Inactive)
REMARK       I    between atoms: N_5  and  C_13 
REMARK    1  A    between atoms: N_5  and  C_14 
REMARK    2  A    between atoms: N_6  and  C_17 
REMARK    3  A    between atoms: N_6  and  C_20 
REMARK    4  A    between atoms: N_7  and  C_21 
REMARK    5  A    between atoms: N_7  and  C_23 
REMARK    6  A    between atoms: C_10  and  C_13 
REMARK    7  A    between atoms: C_24  and  C_29 
ROOT
HETATM    1  N   UNL     1     -10.871   9.416 -27.881  1.00  0.00    -0.224 NA
HETATM    2  N   UNL     1      -9.404  11.184 -28.608  1.00  0.00    -0.224 NA
HETATM    3  C   UNL     1     -11.894  10.075 -28.465  1.00  0.00     0.133 A 
HETATM    4  C   UNL     1     -11.752  11.276 -29.129  1.00  0.00     0.100 A 
HETATM    5  C   UNL     1     -10.471  11.796 -29.173  1.00  0.00     0.133 A 
HETATM    6  C   UNL     1      -9.672  10.018 -27.989  1.00  0.00     0.237 A 
ENDROOT
BRANCH   3   7
HETATM    7  N   UNL     1     -13.193   9.514 -28.400  1.00  0.00    -0.341 N 
HETATM    8  H   UNL     1     -13.924  10.203 -28.246  1.00  0.00     0.167 HD
BRANCH   7   9
HETATM    9  C   UNL     1     -13.663   8.195 -28.513  1.00  0.00     0.035 A 
HETATM   10  C   UNL     1     -13.791   7.393 -27.376  1.00  0.00     0.059 A 
HETATM   11  C   UNL     1     -14.259   6.085 -27.489  1.00  0.00     0.036 A 
HETATM   12  C   UNL     1     -14.601   5.572 -28.741  1.00  0.00     0.029 A 
HETATM   13  C   UNL     1     -14.475   6.368 -29.879  1.00  0.00     0.004 A 
HETATM   14  C   UNL     1     -14.005   7.677 -29.765  1.00  0.00     0.029 A 
BRANCH  11  15
HETATM   15  N   UNL     1     -14.387   5.288 -26.351  1.00  0.00    -0.327 N 
HETATM   16  C   UNL     1     -13.385   4.884 -25.465  1.00  0.00     0.226 C 
HETATM   17  O   UNL     1     -12.192   5.151 -25.511  1.00  0.00    -0.273 OA
HETATM   18  H   UNL     1     -15.331   4.961 -26.154  1.00  0.00     0.169 HD
BRANCH  16  19
HETATM   19  C   UNL     1     -13.880   4.026 -24.342  1.00  0.00     0.078 A 
HETATM   20  C   UNL     1     -14.104   2.579 -24.606  1.00  0.00     0.015 A 
HETATM   21  C   UNL     1     -15.271   3.503 -24.416  1.00  0.00     0.015 A 
ENDBRANCH  16  19
ENDBRANCH  11  15
ENDBRANCH   7   9
ENDBRANCH   3   7
BRANCH   5  22
HETATM   22  N   UNL     1     -10.283  13.020 -29.842  1.00  0.00    -0.341 N 
HETATM   23  H   UNL     1      -9.554  12.976 -30.550  1.00  0.00     0.167 HD
BRANCH  22  24
HETATM   24  C   UNL     1     -10.653  14.345 -29.530  1.00  0.00     0.034 A 
HETATM   25  C   UNL     1     -10.544  15.346 -30.495  1.00  0.00     0.045 A 
HETATM   26  C   UNL     1     -10.911  16.656 -30.187  1.00  0.00     0.050 A 
HETATM   27  C   UNL     1     -11.387  16.964 -28.912  1.00  0.00     0.016 A 
HETATM   28  C   UNL     1     -11.495  15.964 -27.946  1.00  0.00     0.003 A 
HETATM   29  C   UNL     1     -11.128  14.654 -28.256  1.00  0.00     0.029 A 
BRANCH  26  30
HETATM   30  C   UNL     1     -10.795  17.727 -31.219  1.00  0.00     0.417 C 
HETATM   31  F   UNL     1      -9.580  18.348 -31.229  1.00  0.00    -0.166 F 
HETATM   32  F   UNL     1     -10.977  17.277 -32.495  1.00  0.00    -0.166 F 
HETATM   33  F   UNL     1     -11.714  18.723 -31.047  1.00  0.00    -0.166 F 
ENDBRANCH  26  30
ENDBRANCH  22  24
ENDBRANCH   5  22
TORSDOF 7
ENDMDL
MODEL 2
REMARK VINA RESULT:      -8.6      2.218      3.403
REMARK  7 active torsions:
REMARK  status: ('A' for Active; 'I' for Inactive)
REMARK       I    between atoms: N_5  and  C_13 
REMARK    1  A    between atoms: N_5  and  C_14 
REMARK    2  A    between atoms: N_6  and  C_17 
REMARK    3  A    between atoms: N_6  and  C_20 
REMARK    4  A    between atoms: N_7  and  C_21 
REMARK    5  A    between atoms: N_7  and  C_23 
REMARK    6  A    between atoms: C_10  and  C_13 
REMARK    7  A    between atoms: C_24  and  C_29 
ROOT
HETATM    1  N   UNL     1     -10.701   9.737 -29.595  1.00  0.00    -0.224 NA
HETATM    2  N   UNL     1      -9.318  11.621 -29.009  1.00  0.00    -0.224 NA
HETATM    3  C   UNL     1     -11.765  10.419 -29.122  1.00  0.00     0.133 A 
HETATM    4  C   UNL     1     -11.686  11.688 -28.585  1.00  0.00     0.100 A 
HETATM    5  C   UNL     1     -10.424  12.252 -28.550  1.00  0.00     0.133 A 
HETATM    6  C   UNL     1      -9.525  10.388 -29.508  1.00  0.00     0.237 A 
ENDROOT
BRANCH   3   7
HETATM    7  N   UNL     1     -13.043   9.810 -29.172  1.00  0.00    -0.341 N 
HETATM    8  H   UNL     1     -13.752  10.392 -29.609  1.00  0.00     0.167 HD
BRANCH   7   9
HETATM    9  C   UNL     1     -13.514   8.558 -28.743  1.00  0.00     0.035 A 
HETATM   10  C   UNL     1     -13.972   7.621 -29.673  1.00  0.00     0.059 A 
HETATM   11  C   UNL     1     -14.439   6.378 -29.245  1.00  0.00     0.036 A 
HETATM   12  C   UNL     1     -14.449   6.067 -27.885  1.00  0.00     0.029 A 
HETATM   13  C   UNL     1     -13.993   6.998 -26.953  1.00  0.00     0.004 A 
HETATM   14  C   UNL     1     -13.527   8.242 -27.381  1.00  0.00     0.029 A 
BRANCH  11  15
HETATM   15  N   UNL     1     -14.894   5.445 -30.178  1.00  0.00    -0.327 N 
HETATM   16  C   UNL     1     -16.215   5.126 -30.503  1.00  0.00     0.226 C 
HETATM   17  O   UNL     1     -17.239   5.604 -30.033  1.00  0.00    -0.273 OA
HETATM   18  H   UNL     1     -14.166   4.935 -30.673  1.00  0.00     0.169 HD
BRANCH  16  19
HETATM   19  C   UNL     1     -16.341   4.070 -31.556  1.00  0.00     0.078 A 
HETATM   20  C   UNL     1     -16.663   4.495 -32.945  1.00  0.00     0.015 A 
HETATM   21  C   UNL     1     -17.692   3.789 -32.113  1.00  0.00     0.015 A 
ENDBRANCH  16  19
ENDBRANCH  11  15
ENDBRANCH   7   9
ENDBRANCH   3   7
BRANCH   5  22
HETATM   22  N   UNL     1     -10.300  13.547 -28.011  1.00  0.00    -0.341 N 
HETATM   23  H   UNL     1     -10.093  13.542 -27.014  1.00  0.00     0.167 HD
BRANCH  22  24
HETATM   24  C   UNL     1     -10.710  14.816 -28.470  1.00  0.00     0.034 A 
HETATM   25  C   UNL     1     -10.375  15.235 -29.758  1.00  0.00     0.045 A 
HETATM   26  C   UNL     1     -10.781  16.489 -30.212  1.00  0.00     0.050 A 
HETATM   27  C   UNL     1     -11.523  17.325 -29.378  1.00  0.00     0.016 A 
HETATM   28  C   UNL     1     -11.858  16.908 -28.090  1.00  0.00     0.003 A 
HETATM   29  C   UNL     1     -11.451  15.653 -27.636  1.00  0.00     0.029 A 
BRANCH  26  30
HETATM   30  C   UNL     1     -10.423  16.936 -31.589  1.00  0.00     0.417 C 
HETATM   31  F   UNL     1      -9.592  18.019 -31.614  1.00  0.00    -0.166 F 
HETATM   32  F   UNL     1      -9.785  15.980 -32.326  1.00  0.00    -0.166 F 
HETATM   33  F   UNL     1     -11.516  17.297 -32.325  1.00  0.00    -0.166 F 
ENDBRANCH  26  30
ENDBRANCH  22  24
ENDBRANCH   5  22
TORSDOF 7
ENDMDL
MODEL 3
REMARK VINA RESULT:      -8.4      1.940      2.709
REMARK  7 active torsions:
REMARK  status: ('A' for Active; 'I' for Inactive)
REMARK       I    between atoms: N_5  and  C_13 
REMARK    1  A    between atoms: N_5  and  C_14 
REMARK    2  A    between atoms: N_6  and  C_17 
REMARK    3  A    between atoms: N_6  and  C_20 
REMARK    4  A    between atoms: N_7  and  C_21 
REMARK    5  A    between atoms: N_7  and  C_23 
REMARK    6  A    between atoms: C_10  and  C_13 
REMARK    7  A    between atoms: C_24  and  C_29 
ROOT
HETATM    1  N   UNL     1      -9.306   9.667 -29.106  1.00  0.00    -0.224 NA
HETATM    2  N   UNL     1      -8.058  11.627 -29.745  1.00  0.00    -0.224 NA
HETATM    3  C   UNL     1     -10.400  10.228 -29.663  1.00  0.00     0.133 A 
HETATM    4  C   UNL     1     -10.401  11.466 -30.271  1.00  0.00     0.100 A 
HETATM    5  C   UNL     1      -9.190  12.135 -30.286  1.00  0.00     0.133 A 
HETATM    6  C   UNL     1      -8.186  10.411 -29.181  1.00  0.00     0.237 A 
ENDROOT
BRANCH   3   7
HETATM    7  N   UNL     1     -11.623   9.515 -29.629  1.00  0.00    -0.341 N 
HETATM    8  H   UNL     1     -11.925   9.185 -30.541  1.00  0.00     0.167 HD
BRANCH   7   9
HETATM    9  C   UNL     1     -12.493   9.174 -28.580  1.00  0.00     0.035 A 
HETATM   10  C   UNL     1     -12.755   7.832 -28.291  1.00  0.00     0.059 A 
HETATM   11  C   UNL     1     -13.617   7.494 -27.248  1.00  0.00     0.036 A 
HETATM   12  C   UNL     1     -14.221   8.497 -26.489  1.00  0.00     0.029 A 
HETATM   13  C   UNL     1     -13.963   9.837 -26.774  1.00  0.00     0.004 A 
HETATM   14  C   UNL     1     -13.101  10.175 -27.818  1.00  0.00     0.029 A 
BRANCH  11  15
HETATM   15  N   UNL     1     -13.874   6.152 -26.962  1.00  0.00    -0.327 N 
HETATM   16  C   UNL     1     -13.188   5.312 -26.083  1.00  0.00     0.226 C 
HETATM   17  O   UNL     1     -12.221   5.585 -25.385  1.00  0.00    -0.273 OA
HETATM   18  H   UNL     1     -14.659   5.744 -27.467  1.00  0.00     0.169 HD
BRANCH  16  19
HETATM   19  C   UNL     1     -13.739   3.921 -26.021  1.00  0.00     0.078 A 
HETATM   20  C   UNL     1     -15.213   3.742 -26.116  1.00  0.00     0.015 A 
HETATM   21  C   UNL     1     -14.508   3.522 -24.810  1.00  0.00     0.015 A 
ENDBRANCH  16  19
ENDBRANCH  11  15
ENDBRANCH   7   9
ENDBRANCH   3   7
BRANCH   5  22
HETATM   22  N   UNL     1      -9.150  13.403 -30.897  1.00  0.00    -0.341 N 
HETATM   23  H   UNL     1      -8.314  13.542 -31.462  1.00  0.00     0.167 HD
BRANCH  22  24
HETATM   24  C   UNL     1      -9.838  14.607 -30.645  1.00  0.00     0.034 A 
HETATM   25  C   UNL     1     -10.623  14.736 -29.499  1.00  0.00     0.045 A 
HETATM   26  C   UNL     1     -11.302  15.928 -29.249  1.00  0.00     0.050 A 
HETATM   27  C   UNL     1     -11.195  16.993 -30.144  1.00  0.00     0.016 A 
HETATM   28  C   UNL     1     -10.410  16.865 -31.290  1.00  0.00     0.003 A 
HETATM   29  C   UNL     1      -9.731  15.672 -31.540  1.00  0.00     0.029 A 
BRANCH  26  30
HETATM   30  C   UNL     1     -12.142  16.066 -28.024  1.00  0.00     0.417 C 
HETATM   31  F   UNL     1     -13.135  15.133 -27.933  1.00  0.00    -0.166 F 
HETATM   32  F   UNL     1     -11.436  15.950 -26.861  1.00  0.00    -0.166 F 
HETATM   33  F   UNL     1     -12.770  17.277 -27.952  1.00  0.00    -0.166 F 
ENDBRANCH  26  30
ENDBRANCH  22  24
ENDBRANCH   5  22
TORSDOF 7
ENDMDL
MODEL 4
REMARK VINA RESULT:      -8.3     10.150     13.585
REMARK  7 active torsions:
REMARK  status: ('A' for Active; 'I' for Inactive)
REMARK       I    between atoms: N_5  and  C_13 
REMARK    1  A    between atoms: N_5  and  C_14 
REMARK    2  A    between atoms: N_6  and  C_17 
REMARK    3  A    between atoms: N_6  and  C_20 
REMARK    4  A    between atoms: N_7  and  C_21 
REMARK    5  A    between atoms: N_7  and  C_23 
REMARK    6  A    between atoms: C_10  and  C_13 
REMARK    7  A    between atoms: C_24  and  C_29 
ROOT
HETATM    1  N   UNL     1      -3.006  14.583 -25.997  1.00  0.00    -0.224 NA
HETATM    2  N   UNL     1      -1.864  14.103 -23.929  1.00  0.00    -0.224 NA
HETATM    3  C   UNL     1      -3.689  15.551 -25.351  1.00  0.00     0.133 A 
HETATM    4  C   UNL     1      -3.517  15.850 -24.015  1.00  0.00     0.100 A 
HETATM    5  C   UNL     1      -2.581  15.087 -23.340  1.00  0.00     0.133 A 
HETATM    6  C   UNL     1      -2.123  13.907 -25.236  1.00  0.00     0.237 A 
ENDROOT
BRANCH   3   7
HETATM    7  N   UNL     1      -4.640  16.312 -26.074  1.00  0.00    -0.341 N 
HETATM    8  H   UNL     1      -5.263  16.851 -25.479  1.00  0.00     0.167 HD
BRANCH   7   9
HETATM    9  C   UNL     1      -4.881  16.470 -27.449  1.00  0.00     0.035 A 
HETATM   10  C   UNL     1      -6.090  16.043 -28.005  1.00  0.00     0.059 A 
HETATM   11  C   UNL     1      -6.329  16.201 -29.369  1.00  0.00     0.036 A 
HETATM   12  C   UNL     1      -5.361  16.787 -30.184  1.00  0.00     0.029 A 
HETATM   13  C   UNL     1      -4.153  17.216 -29.634  1.00  0.00     0.004 A 
HETATM   14  C   UNL     1      -3.914  17.056 -28.269  1.00  0.00     0.029 A 
BRANCH  11  15
HETATM   15  N   UNL     1      -7.538  15.773 -29.920  1.00  0.00    -0.327 N 
HETATM   16  C   UNL     1      -8.792  16.381 -29.823  1.00  0.00     0.226 C 
HETATM   17  O   UNL     1      -9.081  17.414 -29.233  1.00  0.00    -0.273 OA
HETATM   18  H   UNL     1      -7.490  14.907 -30.453  1.00  0.00     0.169 HD
BRANCH  16  19
HETATM   19  C   UNL     1      -9.879  15.645 -30.542  1.00  0.00     0.078 A 
HETATM   20  C   UNL     1     -10.898  16.438 -31.281  1.00  0.00     0.015 A 
HETATM   21  C   UNL     1     -11.265  15.736 -30.007  1.00  0.00     0.015 A 
ENDBRANCH  16  19
ENDBRANCH  11  15
ENDBRANCH   7   9
ENDBRANCH   3   7
BRANCH   5  22
HETATM   22  N   UNL     1      -2.376  15.361 -21.974  1.00  0.00    -0.341 N 
HETATM   23  H   UNL     1      -2.402  16.356 -21.762  1.00  0.00     0.167 HD
BRANCH  22  24
HETATM   24  C   UNL     1      -1.833  14.599 -20.918  1.00  0.00     0.034 A 
HETATM   25  C   UNL     1      -0.540  14.857 -20.463  1.00  0.00     0.045 A 
HETATM   26  C   UNL     1      -0.006  14.104 -19.419  1.00  0.00     0.050 A 
HETATM   27  C   UNL     1      -0.764  13.093 -18.828  1.00  0.00     0.016 A 
HETATM   28  C   UNL     1      -2.057  12.835 -19.283  1.00  0.00     0.003 A 
HETATM   29  C   UNL     1      -2.592  13.588 -20.328  1.00  0.00     0.029 A 
BRANCH  26  30
HETATM   30  C   UNL     1       1.378  14.379 -18.932  1.00  0.00     0.417 C 
HETATM   31  F   UNL     1       1.427  14.813 -17.638  1.00  0.00    -0.166 F 
HETATM   32  F   UNL     1       2.198  13.288 -18.974  1.00  0.00    -0.166 F 
HETATM   33  F   UNL     1       2.011  15.341 -19.665  1.00  0.00    -0.166 F 
ENDBRANCH  26  30
ENDBRANCH  22  24
ENDBRANCH   5  22
TORSDOF 7
ENDMDL
MODEL 5
REMARK VINA RESULT:      -8.2      1.821      2.386
REMARK  7 active torsions:
REMARK  status: ('A' for Active; 'I' for Inactive)
REMARK       I    between atoms: N_5  and  C_13 
REMARK    1  A    between atoms: N_5  and  C_14 
REMARK    2  A    between atoms: N_6  and  C_17 
REMARK    3  A    between atoms: N_6  and  C_20 
REMARK    4  A    between atoms: N_7  and  C_21 
REMARK    5  A    between atoms: N_7  and  C_23 
REMARK    6  A    between atoms: C_10  and  C_13 
REMARK    7  A    between atoms: C_24  and  C_29 
ROOT
HETATM    1  N   UNL     1     -12.178   8.740 -27.550  1.00  0.00    -0.224 NA
HETATM    2  N   UNL     1     -10.797  10.694 -27.266  1.00  0.00    -0.224 NA
HETATM    3  C   UNL     1     -12.053   8.891 -28.885  1.00  0.00     0.133 A 
HETATM    4  C   UNL     1     -11.326   9.905 -29.477  1.00  0.00     0.100 A 
HETATM    5  C   UNL     1     -10.710  10.792 -28.613  1.00  0.00     0.133 A 
HETATM    6  C   UNL     1     -11.534   9.664 -26.811  1.00  0.00     0.237 A 
ENDROOT
BRANCH   3   7
HETATM    7  N   UNL     1     -12.698   7.965 -29.740  1.00  0.00    -0.341 N 
HETATM    8  H   UNL     1     -12.287   7.917 -30.668  1.00  0.00     0.167 HD
BRANCH   7   9
HETATM    9  C   UNL     1     -13.788   7.099 -29.550  1.00  0.00     0.035 A 
HETATM   10  C   UNL     1     -13.971   6.457 -28.323  1.00  0.00     0.059 A 
HETATM   11  C   UNL     1     -15.054   5.600 -28.135  1.00  0.00     0.036 A 
HETATM   12  C   UNL     1     -15.959   5.379 -29.174  1.00  0.00     0.029 A 
HETATM   13  C   UNL     1     -15.780   6.018 -30.401  1.00  0.00     0.004 A 
HETATM   14  C   UNL     1     -14.696   6.875 -30.589  1.00  0.00     0.029 A 
BRANCH  11  15
HETATM   15  N   UNL     1     -15.235   4.961 -26.907  1.00  0.00    -0.327 N 
HETATM   16  C   UNL     1     -14.331   4.151 -26.216  1.00  0.00     0.226 C 
HETATM   17  O   UNL     1     -13.195   3.839 -26.552  1.00  0.00    -0.273 OA
HETATM   18  H   UNL     1     -16.143   5.106 -26.472  1.00  0.00     0.169 HD
BRANCH  16  19
HETATM   19  C   UNL     1     -14.857   3.627 -24.917  1.00  0.00     0.078 A 
HETATM   20  C   UNL     1     -13.949   3.621 -23.739  1.00  0.00     0.015 A 
HETATM   21  C   UNL     1     -14.323   2.333 -24.411  1.00  0.00     0.015 A 
ENDBRANCH  16  19
ENDBRANCH  11  15
ENDBRANCH   7   9
ENDBRANCH   3   7
BRANCH   5  22
HETATM   22  N   UNL     1      -9.958  11.840 -29.177  1.00  0.00    -0.341 N 
HETATM   23  H   UNL     1      -8.958  11.657 -29.171  1.00  0.00     0.167 HD
BRANCH  22  24
HETATM   24  C   UNL     1     -10.258  13.192 -29.447  1.00  0.00     0.034 A 
HETATM   25  C   UNL     1     -11.080  13.912 -28.580  1.00  0.00     0.045 A 
HETATM   26  C   UNL     1     -11.374  15.248 -28.846  1.00  0.00     0.050 A 
HETATM   27  C   UNL     1     -10.846  15.866 -29.980  1.00  0.00     0.016 A 
HETATM   28  C   UNL     1     -10.024  15.147 -30.847  1.00  0.00     0.003 A 
HETATM   29  C   UNL     1      -9.730  13.810 -30.580  1.00  0.00     0.029 A 
BRANCH  26  30
HETATM   30  C   UNL     1     -12.254  16.019 -27.920  1.00  0.00     0.417 C 
HETATM   31  F   UNL     1     -11.753  16.129 -26.654  1.00  0.00    -0.166 F 
HETATM   32  F   UNL     1     -12.483  17.302 -28.325  1.00  0.00    -0.166 F 
HETATM   33  F   UNL     1     -13.489  15.453 -27.777  1.00  0.00    -0.166 F 
ENDBRANCH  26  30
ENDBRANCH  22  24
ENDBRANCH   5  22
TORSDOF 7
ENDMDL
MODEL 6
REMARK VINA RESULT:      -8.0      5.052      8.019
REMARK  7 active torsions:
REMARK  status: ('A' for Active; 'I' for Inactive)
REMARK       I    between atoms: N_5  and  C_13 
REMARK    1  A    between atoms: N_5  and  C_14 
REMARK    2  A    between atoms: N_6  and  C_17 
REMARK    3  A    between atoms: N_6  and  C_20 
REMARK    4  A    between atoms: N_7  and  C_21 
REMARK    5  A    between atoms: N_7  and  C_23 
REMARK    6  A    between atoms: C_10  and  C_13 
REMARK    7  A    between atoms: C_24  and  C_29 
ROOT
HETATM    1  N   UNL     1      -9.758   9.388 -29.159  1.00  0.00    -0.224 NA
HETATM    2  N   UNL     1     -10.432  11.282 -30.488  1.00  0.00    -0.224 NA
HETATM    3  C   UNL     1      -8.667  10.088 -28.782  1.00  0.00     0.133 A 
HETATM    4  C   UNL     1      -8.395  11.372 -29.210  1.00  0.00     0.100 A 
HETATM    5  C   UNL     1      -9.320  11.931 -30.073  1.00  0.00     0.133 A 
HETATM    6  C   UNL     1     -10.585  10.035 -30.002  1.00  0.00     0.237 A 
ENDROOT
BRANCH   3   7
HETATM    7  N   UNL     1      -7.741   9.484 -27.898  1.00  0.00    -0.341 N 
HETATM    8  H   UNL     1      -8.158   9.170 -27.026  1.00  0.00     0.167 HD
BRANCH   7   9
HETATM    9  C   UNL     1      -6.362   9.230 -27.997  1.00  0.00     0.035 A 
HETATM   10  C   UNL     1      -5.487   9.703 -27.016  1.00  0.00     0.059 A 
HETATM   11  C   UNL     1      -4.120   9.450 -27.115  1.00  0.00     0.036 A 
HETATM   12  C   UNL     1      -3.621   8.722 -28.195  1.00  0.00     0.029 A 
HETATM   13  C   UNL     1      -4.490   8.248 -29.177  1.00  0.00     0.004 A 
HETATM   14  C   UNL     1      -5.858   8.502 -29.079  1.00  0.00     0.029 A 
BRANCH  11  15
HETATM   15  N   UNL     1      -3.249   9.923 -26.132  1.00  0.00    -0.327 N 
HETATM   16  C   UNL     1      -2.677  11.193 -26.027  1.00  0.00     0.226 C 
HETATM   17  O   UNL     1      -2.826  12.148 -26.778  1.00  0.00    -0.273 OA
HETATM   18  H   UNL     1      -3.003   9.249 -25.410  1.00  0.00     0.169 HD
BRANCH  16  19
HETATM   19  C   UNL     1      -1.784  11.358 -24.837  1.00  0.00     0.078 A 
HETATM   20  C   UNL     1      -0.661  12.330 -24.927  1.00  0.00     0.015 A 
HETATM   21  C   UNL     1      -0.386  10.855 -24.930  1.00  0.00     0.015 A 
ENDBRANCH  16  19
ENDBRANCH  11  15
ENDBRANCH   7   9
ENDBRANCH   3   7
BRANCH   5  22
HETATM   22  N   UNL     1      -9.079  13.240 -30.532  1.00  0.00    -0.341 N 
HETATM   23  H   UNL     1      -8.104  13.400 -30.778  1.00  0.00     0.167 HD
BRANCH  22  24
HETATM   24  C   UNL     1      -9.811  14.440 -30.423  1.00  0.00     0.034 A 
HETATM   25  C   UNL     1     -10.603  14.676 -29.299  1.00  0.00     0.045 A 
HETATM   26  C   UNL     1     -11.325  15.863 -29.191  1.00  0.00     0.050 A 
HETATM   27  C   UNL     1     -11.256  16.816 -30.207  1.00  0.00     0.016 A 
HETATM   28  C   UNL     1     -10.465  16.582 -31.331  1.00  0.00     0.003 A 
HETATM   29  C   UNL     1      -9.742  15.394 -31.439  1.00  0.00     0.029 A 
BRANCH  26  30
HETATM   30  C   UNL     1     -12.172  16.115 -27.988  1.00  0.00     0.417 C 
HETATM   31  F   UNL     1     -12.694  17.376 -27.940  1.00  0.00    -0.166 F 
HETATM   32  F   UNL     1     -13.249  15.280 -27.895  1.00  0.00    -0.166 F 
HETATM   33  F   UNL     1     -11.484  15.958 -26.819  1.00  0.00    -0.166 F 
ENDBRANCH  26  30
ENDBRANCH  22  24
ENDBRANCH   5  22
TORSDOF 7
ENDMDL
MODEL 7
REMARK VINA RESULT:      -8.0      3.004      3.924
REMARK  7 active torsions:
REMARK  status: ('A' for Active; 'I' for Inactive)
REMARK       I    between atoms: N_5  and  C_13 
REMARK    1  A    between atoms: N_5  and  C_14 
REMARK    2  A    between atoms: N_6  and  C_17 
REMARK    3  A    between atoms: N_6  and  C_20 
REMARK    4  A    between atoms: N_7  and  C_21 
REMARK    5  A    between atoms: N_7  and  C_23 
REMARK    6  A    between atoms: C_10  and  C_13 
REMARK    7  A    between atoms: C_24  and  C_29 
ROOT
HETATM    1  N   UNL     1      -7.712  10.467 -28.712  1.00  0.00    -0.224 NA
HETATM    2  N   UNL     1      -7.288  12.593 -29.765  1.00  0.00    -0.224 NA
HETATM    3  C   UNL     1      -8.954  10.496 -29.239  1.00  0.00     0.133 A 
HETATM    4  C   UNL     1      -9.428  11.524 -30.028  1.00  0.00     0.100 A 
HETATM    5  C   UNL     1      -8.546  12.562 -30.264  1.00  0.00     0.133 A 
HETATM    6  C   UNL     1      -6.944  11.532 -29.010  1.00  0.00     0.237 A 
ENDROOT
BRANCH   3   7
HETATM    7  N   UNL     1      -9.832   9.416 -28.976  1.00  0.00    -0.341 N 
HETATM    8  H   UNL     1      -9.403   8.504 -29.107  1.00  0.00     0.167 HD
BRANCH   7   9
HETATM    9  C   UNL     1     -11.174   9.364 -28.564  1.00  0.00     0.035 A 
HETATM   10  C   UNL     1     -11.947   8.230 -28.824  1.00  0.00     0.059 A 
HETATM   11  C   UNL     1     -13.279   8.179 -28.413  1.00  0.00     0.036 A 
HETATM   12  C   UNL     1     -13.843   9.263 -27.739  1.00  0.00     0.029 A 
HETATM   13  C   UNL     1     -13.075  10.397 -27.477  1.00  0.00     0.004 A 
HETATM   14  C   UNL     1     -11.743  10.448 -27.889  1.00  0.00     0.029 A 
BRANCH  11  15
HETATM   15  N   UNL     1     -14.047   7.044 -28.674  1.00  0.00    -0.327 N 
HETATM   16  C   UNL     1     -14.690   6.694 -29.864  1.00  0.00     0.226 C 
HETATM   17  O   UNL     1     -14.706   7.315 -30.919  1.00  0.00    -0.273 OA
HETATM   18  H   UNL     1     -14.150   6.401 -27.892  1.00  0.00     0.169 HD
BRANCH  16  19
HETATM   19  C   UNL     1     -15.432   5.396 -29.792  1.00  0.00     0.078 A 
HETATM   20  C   UNL     1     -15.988   4.831 -31.051  1.00  0.00     0.015 A 
HETATM   21  C   UNL     1     -16.904   5.413 -30.015  1.00  0.00     0.015 A 
ENDBRANCH  16  19
ENDBRANCH  11  15
ENDBRANCH   7   9
ENDBRANCH   3   7
BRANCH   5  22
HETATM   22  N   UNL     1      -8.991  13.631 -31.066  1.00  0.00    -0.341 N 
HETATM   23  H   UNL     1      -8.488  13.700 -31.947  1.00  0.00     0.167 HD
BRANCH  22  24
HETATM   24  C   UNL     1      -9.741  14.791 -30.780  1.00  0.00     0.034 A 
HETATM   25  C   UNL     1     -10.508  14.857 -29.617  1.00  0.00     0.045 A 
HETATM   26  C   UNL     1     -11.248  16.005 -29.334  1.00  0.00     0.050 A 
HETATM   27  C   UNL     1     -11.220  17.087 -30.215  1.00  0.00     0.016 A 
HETATM   28  C   UNL     1     -10.454  17.021 -31.378  1.00  0.00     0.003 A 
HETATM   29  C   UNL     1      -9.713  15.872 -31.660  1.00  0.00     0.029 A 
BRANCH  26  30
HETATM   30  C   UNL     1     -12.069  16.077 -28.091  1.00  0.00     0.417 C 
HETATM   31  F   UNL     1     -11.344  15.914 -26.945  1.00  0.00    -0.166 F 
HETATM   32  F   UNL     1     -12.720  17.267 -27.934  1.00  0.00    -0.166 F 
HETATM   33  F   UNL     1     -13.042  15.119 -28.048  1.00  0.00    -0.166 F 
ENDBRANCH  26  30
ENDBRANCH  22  24
ENDBRANCH   5  22
TORSDOF 7
ENDMDL
MODEL 8
REMARK VINA RESULT:      -7.9      2.111      2.956
REMARK  7 active torsions:
REMARK  status: ('A' for Active; 'I' for Inactive)
REMARK       I    between atoms: N_5  and  C_13 
REMARK    1  A    between atoms: N_5  and  C_14 
REMARK    2  A    between atoms: N_6  and  C_17 
REMARK    3  A    between atoms: N_6  and  C_20 
REMARK    4  A    between atoms: N_7  and  C_21 
REMARK    5  A    between atoms: N_7  and  C_23 
REMARK    6  A    between atoms: C_10  and  C_13 
REMARK    7  A    between atoms: C_24  and  C_29 
ROOT
HETATM    1  N   UNL     1      -8.227  10.723 -28.973  1.00  0.00    -0.224 NA
HETATM    2  N   UNL     1      -7.686  12.950 -29.719  1.00  0.00    -0.224 NA
HETATM    3  C   UNL     1      -9.405  10.831 -29.623  1.00  0.00     0.133 A 
HETATM    4  C   UNL     1      -9.788  11.951 -30.334  1.00  0.00     0.100 A 
HETATM    5  C   UNL     1      -8.882  12.996 -30.351  1.00  0.00     0.133 A 
HETATM    6  C   UNL     1      -7.429  11.804 -29.060  1.00  0.00     0.237 A 
ENDROOT
BRANCH   3   7
HETATM    7  N   UNL     1     -10.309   9.742 -29.584  1.00  0.00    -0.341 N 
HETATM    8  H   UNL     1     -10.016   8.952 -30.153  1.00  0.00     0.167 HD
BRANCH   7   9
HETATM    9  C   UNL     1     -11.523   9.542 -28.907  1.00  0.00     0.035 A 
HETATM   10  C   UNL     1     -12.318   8.430 -29.199  1.00  0.00     0.059 A 
HETATM   11  C   UNL     1     -13.522   8.231 -28.525  1.00  0.00     0.036 A 
HETATM   12  C   UNL     1     -13.938   9.144 -27.555  1.00  0.00     0.029 A 
HETATM   13  C   UNL     1     -13.148  10.255 -27.259  1.00  0.00     0.004 A 
HETATM   14  C   UNL     1     -11.943  10.454 -27.934  1.00  0.00     0.029 A 
BRANCH  11  15
HETATM   15  N   UNL     1     -14.312   7.119 -28.820  1.00  0.00    -0.327 N 
HETATM   16  C   UNL     1     -14.419   5.924 -28.105  1.00  0.00     0.226 C 
HETATM   17  O   UNL     1     -13.839   5.614 -27.073  1.00  0.00    -0.273 OA
HETATM   18  H   UNL     1     -14.871   7.197 -29.667  1.00  0.00     0.169 HD
BRANCH  16  19
HETATM   19  C   UNL     1     -15.368   4.938 -28.712  1.00  0.00     0.078 A 
HETATM   20  C   UNL     1     -16.285   5.410 -29.784  1.00  0.00     0.015 A 
HETATM   21  C   UNL     1     -16.820   5.087 -28.420  1.00  0.00     0.015 A 
ENDBRANCH  16  19
ENDBRANCH  11  15
ENDBRANCH   7   9
ENDBRANCH   3   7
BRANCH   5  22
HETATM   22  N   UNL     1      -9.235  14.157 -31.065  1.00  0.00    -0.341 N 
HETATM   23  H   UNL     1      -8.660  14.302 -31.892  1.00  0.00     0.167 HD
BRANCH  22  24
HETATM   24  C   UNL     1      -9.979  15.303 -30.717  1.00  0.00     0.034 A 
HETATM   25  C   UNL     1     -10.192  16.311 -31.658  1.00  0.00     0.045 A 
HETATM   26  C   UNL     1     -10.929  17.443 -31.312  1.00  0.00     0.050 A 
HETATM   27  C   UNL     1     -11.454  17.568 -30.026  1.00  0.00     0.016 A 
HETATM   28  C   UNL     1     -11.241  16.562 -29.085  1.00  0.00     0.003 A 
HETATM   29  C   UNL     1     -10.504  15.429 -29.430  1.00  0.00     0.029 A 
BRANCH  26  30
HETATM   30  C   UNL     1     -11.156  18.521 -32.319  1.00  0.00     0.417 C 
HETATM   31  F   UNL     1     -10.072  18.770 -33.109  1.00  0.00    -0.166 F 
HETATM   32  F   UNL     1     -12.176  18.252 -33.186  1.00  0.00    -0.166 F 
HETATM   33  F   UNL     1     -11.472  19.718 -31.743  1.00  0.00    -0.166 F 
ENDBRANCH  26  30
ENDBRANCH  22  24
ENDBRANCH   5  22
TORSDOF 7
ENDMDL
MODEL 9
REMARK VINA RESULT:      -7.8      5.840     11.094
REMARK  7 active torsions:
REMARK  status: ('A' for Active; 'I' for Inactive)
REMARK       I    between atoms: N_5  and  C_13 
REMARK    1  A    between atoms: N_5  and  C_14 
REMARK    2  A    between atoms: N_6  and  C_17 
REMARK    3  A    between atoms: N_6  and  C_20 
REMARK    4  A    between atoms: N_7  and  C_21 
REMARK    5  A    between atoms: N_7  and  C_23 
REMARK    6  A    between atoms: C_10  and  C_13 
REMARK    7  A    between atoms: C_24  and  C_29 
ROOT
HETATM    1  N   UNL     1     -12.632  11.391 -27.937  1.00  0.00    -0.224 NA
HETATM    2  N   UNL     1     -13.841   9.314 -27.763  1.00  0.00    -0.224 NA
HETATM    3  C   UNL     1     -11.735  10.760 -28.722  1.00  0.00     0.133 A 
HETATM    4  C   UNL     1     -11.823   9.426 -29.069  1.00  0.00     0.100 A 
HETATM    5  C   UNL     1     -12.908   8.739 -28.557  1.00  0.00     0.133 A 
HETATM    6  C   UNL     1     -13.644  10.619 -27.497  1.00  0.00     0.237 A 
ENDROOT
BRANCH   3   7
HETATM    7  N   UNL     1     -10.635  11.494 -29.229  1.00  0.00    -0.341 N 
HETATM    8  H   UNL     1     -10.002  10.937 -29.795  1.00  0.00     0.167 HD
BRANCH   7   9
HETATM    9  C   UNL     1     -10.258  12.842 -29.105  1.00  0.00     0.035 A 
HETATM   10  C   UNL     1     -10.852  13.816 -29.912  1.00  0.00     0.059 A 
HETATM   11  C   UNL     1     -10.477  15.154 -29.787  1.00  0.00     0.036 A 
HETATM   12  C   UNL     1      -9.507  15.523 -28.855  1.00  0.00     0.029 A 
HETATM   13  C   UNL     1      -8.912  14.555 -28.047  1.00  0.00     0.004 A 
HETATM   14  C   UNL     1      -9.286  13.216 -28.173  1.00  0.00     0.029 A 
BRANCH  11  15
HETATM   15  N   UNL     1     -11.074  16.124 -30.594  1.00  0.00    -0.327 N 
HETATM   16  C   UNL     1     -10.546  16.743 -31.729  1.00  0.00     0.226 C 
HETATM   17  O   UNL     1      -9.451  16.557 -32.245  1.00  0.00    -0.273 OA
HETATM   18  H   UNL     1     -12.007  16.413 -30.308  1.00  0.00     0.169 HD
BRANCH  16  19
HETATM   19  C   UNL     1     -11.466  17.745 -32.356  1.00  0.00     0.078 A 
HETATM   20  C   UNL     1     -10.873  18.807 -33.212  1.00  0.00     0.015 A 
HETATM   21  C   UNL     1     -11.424  19.147 -31.858  1.00  0.00     0.015 A 
ENDBRANCH  16  19
ENDBRANCH  11  15
ENDBRANCH   7   9
ENDBRANCH   3   7
BRANCH   5  22
HETATM   22  N   UNL     1     -13.034   7.376 -28.887  1.00  0.00    -0.341 N 
HETATM   23  H   UNL     1     -12.142   6.887 -28.896  1.00  0.00     0.167 HD
BRANCH  22  24
HETATM   24  C   UNL     1     -14.062   6.635 -29.506  1.00  0.00     0.034 A 
HETATM   25  C   UNL     1     -15.096   6.097 -28.740  1.00  0.00     0.045 A 
HETATM   26  C   UNL     1     -16.112   5.366 -29.354  1.00  0.00     0.050 A 
HETATM   27  C   UNL     1     -16.095   5.172 -30.735  1.00  0.00     0.016 A 
HETATM   28  C   UNL     1     -15.062   5.709 -31.502  1.00  0.00     0.003 A 
HETATM   29  C   UNL     1     -14.045   6.441 -30.888  1.00  0.00     0.029 A 
BRANCH  26  30
HETATM   30  C   UNL     1     -17.218   4.790 -28.534  1.00  0.00     0.417 C 
HETATM   31  F   UNL     1     -18.415   5.424 -28.706  1.00  0.00    -0.166 F 
HETATM   32  F   UNL     1     -17.469   3.475 -28.802  1.00  0.00    -0.166 F 
HETATM   33  F   UNL     1     -16.962   4.848 -27.193  1.00  0.00    -0.166 F 
ENDBRANCH  26  30
ENDBRANCH  22  24
ENDBRANCH   5  22
TORSDOF 7
ENDMDL
