MODEL 1
REMARK VINA RESULT:      -7.5      0.000      0.000
REMARK  7 active torsions:
REMARK  status: ('A' for Active; 'I' for Inactive)
REMARK       I    between atoms: N_5  and  C_13 
REMARK    1  A    between atoms: N_5  and  C_14 
REMARK    2  A    between atoms: N_6  and  C_17 
REMARK    3  A    between atoms: N_6  and  C_20 
REMARK    4  A    between atoms: N_7  and  C_21 
REMARK    5  A    between atoms: N_7  and  C_23 
REMARK    6  A    between atoms: C_10  and  C_13 
REMARK    7  A    between atoms: C_24  and  C_29 
ROOT
HETATM    1  N   UNL     1      59.286  87.928  33.770  1.00  0.00    -0.224 NA
HETATM    2  N   UNL     1      60.827  86.227  33.036  1.00  0.00    -0.224 NA
HETATM    3  C   UNL     1      58.959  87.131  34.809  1.00  0.00     0.133 A 
HETATM    4  C   UNL     1      59.515  85.886  35.025  1.00  0.00     0.100 A 
HETATM    5  C   UNL     1      60.456  85.475  34.098  1.00  0.00     0.133 A 
HETATM    6  C   UNL     1      60.212  87.421  32.935  1.00  0.00     0.237 A 
ENDROOT
BRANCH   3   7
HETATM    7  N   UNL     1      57.991  87.584  35.738  1.00  0.00    -0.341 N 
HETATM    8  H   UNL     1      58.145  88.538  36.051  1.00  0.00     0.167 HD
BRANCH   7   9
HETATM    9  C   UNL     1      56.860  86.971  36.303  1.00  0.00     0.035 A 
HETATM   10  C   UNL     1      56.727  86.880  37.691  1.00  0.00     0.059 A 
HETATM   11  C   UNL     1      55.603  86.274  38.250  1.00  0.00     0.036 A 
HETATM   12  C   UNL     1      54.606  85.755  37.424  1.00  0.00     0.029 A 
HETATM   13  C   UNL     1      54.733  85.844  36.038  1.00  0.00     0.004 A 
HETATM   14  C   UNL     1      55.858  86.450  35.478  1.00  0.00     0.029 A 
BRANCH  11  15
HETATM   15  N   UNL     1      55.475  86.186  39.637  1.00  0.00    -0.327 N 
HETATM   16  C   UNL     1      55.926  85.168  40.481  1.00  0.00     0.226 C 
HETATM   17  O   UNL     1      56.526  84.148  40.172  1.00  0.00    -0.273 OA
HETATM   18  H   UNL     1      54.985  86.962  40.077  1.00  0.00     0.169 HD
BRANCH  16  19
HETATM   19  C   UNL     1      55.615  85.399  41.927  1.00  0.00     0.078 A 
HETATM   20  C   UNL     1      56.725  85.297  42.912  1.00  0.00     0.015 A 
HETATM   21  C   UNL     1      55.667  84.235  42.853  1.00  0.00     0.015 A 
ENDBRANCH  16  19
ENDBRANCH  11  15
ENDBRANCH   7   9
ENDBRANCH   3   7
BRANCH   5  22
HETATM   22  N   UNL     1      61.048  84.211  34.283  1.00  0.00    -0.341 N 
HETATM   23  H   UNL     1      62.051  84.264  34.445  1.00  0.00     0.167 HD
BRANCH  22  24
HETATM   24  C   UNL     1      60.620  82.902  33.979  1.00  0.00     0.034 A 
HETATM   25  C   UNL     1      59.704  82.688  32.949  1.00  0.00     0.045 A 
HETATM   26  C   UNL     1      59.282  81.394  32.648  1.00  0.00     0.050 A 
HETATM   27  C   UNL     1      59.776  80.312  33.377  1.00  0.00     0.016 A 
HETATM   28  C   UNL     1      60.691  80.525  34.407  1.00  0.00     0.003 A 
HETATM   29  C   UNL     1      61.113  81.820  34.708  1.00  0.00     0.029 A 
BRANCH  26  30
HETATM   30  C   UNL     1      58.302  81.165  31.546  1.00  0.00     0.417 C 
HETATM   31  F   UNL     1      58.759  80.324  30.572  1.00  0.00    -0.166 F 
HETATM   32  F   UNL     1      57.125  80.616  31.967  1.00  0.00    -0.166 F 
HETATM   33  F   UNL     1      57.958  82.319  30.902  1.00  0.00    -0.166 F 
ENDBRANCH  26  30
ENDBRANCH  22  24
ENDBRANCH   5  22
TORSDOF 7
ENDMDL
MODEL 2
REMARK VINA RESULT:      -7.1      4.282      8.836
REMARK  7 active torsions:
REMARK  status: ('A' for Active; 'I' for Inactive)
REMARK       I    between atoms: N_5  and  C_13 
REMARK    1  A    between atoms: N_5  and  C_14 
REMARK    2  A    between atoms: N_6  and  C_17 
REMARK    3  A    between atoms: N_6  and  C_20 
REMARK    4  A    between atoms: N_7  and  C_21 
REMARK    5  A    between atoms: N_7  and  C_23 
REMARK    6  A    between atoms: C_10  and  C_13 
REMARK    7  A    between atoms: C_24  and  C_29 
ROOT
HETATM    1  N   UNL     1      60.595  81.816  32.456  1.00  0.00    -0.224 NA
HETATM    2  N   UNL     1      59.560  83.959  32.831  1.00  0.00    -0.224 NA
HETATM    3  C   UNL     1      61.006  81.831  33.741  1.00  0.00     0.133 A 
HETATM    4  C   UNL     1      60.736  82.861  34.620  1.00  0.00     0.100 A 
HETATM    5  C   UNL     1      60.001  83.915  34.110  1.00  0.00     0.133 A 
HETATM    6  C   UNL     1      59.888  82.896  32.073  1.00  0.00     0.237 A 
ENDROOT
BRANCH   3   7
HETATM    7  N   UNL     1      61.757  80.735  34.231  1.00  0.00    -0.341 N 
HETATM    8  H   UNL     1      62.762  80.877  34.176  1.00  0.00     0.167 HD
BRANCH   7   9
HETATM    9  C   UNL     1      61.382  79.499  34.781  1.00  0.00     0.035 A 
HETATM   10  C   UNL     1      60.732  78.545  33.993  1.00  0.00     0.059 A 
HETATM   11  C   UNL     1      60.361  77.318  34.540  1.00  0.00     0.036 A 
HETATM   12  C   UNL     1      60.639  77.037  35.878  1.00  0.00     0.029 A 
HETATM   13  C   UNL     1      61.288  77.985  36.669  1.00  0.00     0.004 A 
HETATM   14  C   UNL     1      61.658  79.214  36.122  1.00  0.00     0.029 A 
BRANCH  11  15
HETATM   15  N   UNL     1      59.712  76.368  33.748  1.00  0.00    -0.327 N 
HETATM   16  C   UNL     1      58.340  76.208  33.547  1.00  0.00     0.226 C 
HETATM   17  O   UNL     1      57.428  76.870  34.025  1.00  0.00    -0.273 OA
HETATM   18  H   UNL     1      60.325  75.713  33.268  1.00  0.00     0.169 HD
BRANCH  16  19
HETATM   19  C   UNL     1      57.991  75.079  32.628  1.00  0.00     0.078 A 
HETATM   20  C   UNL     1      59.067  74.504  31.776  1.00  0.00     0.015 A 
HETATM   21  C   UNL     1      57.983  75.340  31.163  1.00  0.00     0.015 A 
ENDBRANCH  16  19
ENDBRANCH  11  15
ENDBRANCH   7   9
ENDBRANCH   3   7
BRANCH   5  22
HETATM   22  N   UNL     1      59.704  84.986  34.974  1.00  0.00    -0.341 N 
HETATM   23  H   UNL     1      60.378  85.083  35.730  1.00  0.00     0.167 HD
BRANCH  22  24
HETATM   24  C   UNL     1      58.529  85.732  35.202  1.00  0.00     0.034 A 
HETATM   25  C   UNL     1      57.583  85.282  36.123  1.00  0.00     0.045 A 
HETATM   26  C   UNL     1      56.422  86.022  36.348  1.00  0.00     0.050 A 
HETATM   27  C   UNL     1      56.207  87.211  35.652  1.00  0.00     0.016 A 
HETATM   28  C   UNL     1      57.152  87.661  34.731  1.00  0.00     0.003 A 
HETATM   29  C   UNL     1      58.313  86.922  34.506  1.00  0.00     0.029 A 
BRANCH  26  30
HETATM   30  C   UNL     1      55.410  85.541  37.333  1.00  0.00     0.417 C 
HETATM   31  F   UNL     1      54.150  85.437  36.817  1.00  0.00    -0.166 F 
HETATM   32  F   UNL     1      55.688  84.305  37.843  1.00  0.00    -0.166 F 
HETATM   33  F   UNL     1      55.296  86.366  38.415  1.00  0.00    -0.166 F 
ENDBRANCH  26  30
ENDBRANCH  22  24
ENDBRANCH   5  22
TORSDOF 7
ENDMDL
MODEL 3
REMARK VINA RESULT:      -7.0      4.823      8.394
REMARK  7 active torsions:
REMARK  status: ('A' for Active; 'I' for Inactive)
REMARK       I    between atoms: N_5  and  C_13 
REMARK    1  A    between atoms: N_5  and  C_14 
REMARK    2  A    between atoms: N_6  and  C_17 
REMARK    3  A    between atoms: N_6  and  C_20 
REMARK    4  A    between atoms: N_7  and  C_21 
REMARK    5  A    between atoms: N_7  and  C_23 
REMARK    6  A    between atoms: C_10  and  C_13 
REMARK    7  A    between atoms: C_24  and  C_29 
ROOT
HETATM    1  N   UNL     1      56.129  84.544  43.330  1.00  0.00    -0.224 NA
HETATM    2  N   UNL     1      56.032  84.956  40.958  1.00  0.00    -0.224 NA
HETATM    3  C   UNL     1      57.220  85.336  43.386  1.00  0.00     0.133 A 
HETATM    4  C   UNL     1      57.768  85.964  42.286  1.00  0.00     0.100 A 
HETATM    5  C   UNL     1      57.130  85.739  41.080  1.00  0.00     0.133 A 
HETATM    6  C   UNL     1      55.594  84.399  42.103  1.00  0.00     0.237 A 
ENDROOT
BRANCH   3   7
HETATM    7  N   UNL     1      57.849  85.543  44.637  1.00  0.00    -0.341 N 
HETATM    8  H   UNL     1      58.565  84.854  44.850  1.00  0.00     0.167 HD
BRANCH   7   9
HETATM    9  C   UNL     1      57.679  86.519  45.633  1.00  0.00     0.035 A 
HETATM   10  C   UNL     1      57.811  87.875  45.321  1.00  0.00     0.059 A 
HETATM   11  C   UNL     1      57.641  88.843  46.310  1.00  0.00     0.036 A 
HETATM   12  C   UNL     1      57.338  88.460  47.617  1.00  0.00     0.029 A 
HETATM   13  C   UNL     1      57.205  87.108  47.934  1.00  0.00     0.004 A 
HETATM   14  C   UNL     1      57.376  86.140  46.944  1.00  0.00     0.029 A 
BRANCH  11  15
HETATM   15  N   UNL     1      57.772  90.196  45.993  1.00  0.00    -0.327 N 
HETATM   16  C   UNL     1      56.796  91.064  45.500  1.00  0.00     0.226 C 
HETATM   17  O   UNL     1      55.625  90.811  45.248  1.00  0.00    -0.273 OA
HETATM   18  H   UNL     1      58.701  90.587  46.137  1.00  0.00     0.169 HD
BRANCH  16  19
HETATM   19  C   UNL     1      57.286  92.460  45.270  1.00  0.00     0.078 A 
HETATM   20  C   UNL     1      56.748  93.214  44.105  1.00  0.00     0.015 A 
HETATM   21  C   UNL     1      58.162  92.713  44.094  1.00  0.00     0.015 A 
ENDBRANCH  16  19
ENDBRANCH  11  15
ENDBRANCH   7   9
ENDBRANCH   3   7
BRANCH   5  22
HETATM   22  N   UNL     1      57.658  86.362  39.933  1.00  0.00    -0.341 N 
HETATM   23  H   UNL     1      57.772  87.367  40.047  1.00  0.00     0.167 HD
BRANCH  22  24
HETATM   24  C   UNL     1      57.757  85.957  38.586  1.00  0.00     0.034 A 
HETATM   25  C   UNL     1      57.106  86.682  37.588  1.00  0.00     0.045 A 
HETATM   26  C   UNL     1      57.206  86.281  36.256  1.00  0.00     0.050 A 
HETATM   27  C   UNL     1      57.957  85.155  35.922  1.00  0.00     0.016 A 
HETATM   28  C   UNL     1      58.608  84.428  36.918  1.00  0.00     0.003 A 
HETATM   29  C   UNL     1      58.508  84.830  38.251  1.00  0.00     0.029 A 
BRANCH  26  30
HETATM   30  C   UNL     1      56.510  87.057  35.189  1.00  0.00     0.417 C 
HETATM   31  F   UNL     1      56.215  88.341  35.548  1.00  0.00    -0.166 F 
HETATM   32  F   UNL     1      57.231  87.167  34.035  1.00  0.00    -0.166 F 
HETATM   33  F   UNL     1      55.319  86.497  34.825  1.00  0.00    -0.166 F 
ENDBRANCH  26  30
ENDBRANCH  22  24
ENDBRANCH   5  22
TORSDOF 7
ENDMDL
MODEL 4
REMARK VINA RESULT:      -6.9      3.267      4.840
REMARK  7 active torsions:
REMARK  status: ('A' for Active; 'I' for Inactive)
REMARK       I    between atoms: N_5  and  C_13 
REMARK    1  A    between atoms: N_5  and  C_14 
REMARK    2  A    between atoms: N_6  and  C_17 
REMARK    3  A    between atoms: N_6  and  C_20 
REMARK    4  A    between atoms: N_7  and  C_21 
REMARK    5  A    between atoms: N_7  and  C_23 
REMARK    6  A    between atoms: C_10  and  C_13 
REMARK    7  A    between atoms: C_24  and  C_29 
ROOT
HETATM    1  N   UNL     1      59.626  82.910  31.970  1.00  0.00    -0.224 NA
HETATM    2  N   UNL     1      59.663  80.516  32.242  1.00  0.00    -0.224 NA
HETATM    3  C   UNL     1      60.098  83.023  33.229  1.00  0.00     0.133 A 
HETATM    4  C   UNL     1      60.373  81.944  34.045  1.00  0.00     0.100 A 
HETATM    5  C   UNL     1      60.135  80.696  33.498  1.00  0.00     0.133 A 
HETATM    6  C   UNL     1      59.433  81.646  31.547  1.00  0.00     0.237 A 
ENDROOT
BRANCH   3   7
HETATM    7  N   UNL     1      60.329  84.317  33.758  1.00  0.00    -0.341 N 
HETATM    8  H   UNL     1      61.314  84.529  33.892  1.00  0.00     0.167 HD
BRANCH   7   9
HETATM    9  C   UNL     1      59.463  85.360  34.123  1.00  0.00     0.035 A 
HETATM   10  C   UNL     1      58.734  85.286  35.314  1.00  0.00     0.059 A 
HETATM   11  C   UNL     1      57.876  86.323  35.677  1.00  0.00     0.036 A 
HETATM   12  C   UNL     1      57.741  87.439  34.850  1.00  0.00     0.029 A 
HETATM   13  C   UNL     1      58.466  87.518  33.662  1.00  0.00     0.004 A 
HETATM   14  C   UNL     1      59.324  86.480  33.298  1.00  0.00     0.029 A 
BRANCH  11  15
HETATM   15  N   UNL     1      57.151  86.245  36.867  1.00  0.00    -0.327 N 
HETATM   16  C   UNL     1      55.790  85.978  37.031  1.00  0.00     0.226 C 
HETATM   17  O   UNL     1      54.959  85.758  36.160  1.00  0.00    -0.273 OA
HETATM   18  H   UNL     1      57.690  86.411  37.714  1.00  0.00     0.169 HD
BRANCH  16  19
HETATM   19  C   UNL     1      55.342  85.970  38.459  1.00  0.00     0.078 A 
HETATM   20  C   UNL     1      56.156  86.714  39.458  1.00  0.00     0.015 A 
HETATM   21  C   UNL     1      56.157  85.214  39.449  1.00  0.00     0.015 A 
ENDBRANCH  16  19
ENDBRANCH  11  15
ENDBRANCH   7   9
ENDBRANCH   3   7
BRANCH   5  22
HETATM   22  N   UNL     1      60.403  79.569  34.297  1.00  0.00    -0.341 N 
HETATM   23  H   UNL     1      60.802  79.812  35.202  1.00  0.00     0.167 HD
BRANCH  22  24
HETATM   24  C   UNL     1      60.538  78.197  33.999  1.00  0.00     0.034 A 
HETATM   25  C   UNL     1      59.404  77.391  33.892  1.00  0.00     0.045 A 
HETATM   26  C   UNL     1      59.538  76.035  33.596  1.00  0.00     0.050 A 
HETATM   27  C   UNL     1      60.806  75.484  33.406  1.00  0.00     0.016 A 
HETATM   28  C   UNL     1      61.939  76.289  33.514  1.00  0.00     0.003 A 
HETATM   29  C   UNL     1      61.805  77.646  33.810  1.00  0.00     0.029 A 
BRANCH  26  30
HETATM   30  C   UNL     1      58.326  75.172  33.482  1.00  0.00     0.417 C 
HETATM   31  F   UNL     1      58.069  74.755  32.207  1.00  0.00    -0.166 F 
HETATM   32  F   UNL     1      58.398  74.028  34.224  1.00  0.00    -0.166 F 
HETATM   33  F   UNL     1      57.189  75.806  33.896  1.00  0.00    -0.166 F 
ENDBRANCH  26  30
ENDBRANCH  22  24
ENDBRANCH   5  22
TORSDOF 7
ENDMDL
MODEL 5
REMARK VINA RESULT:      -6.9      1.677      2.201
REMARK  7 active torsions:
REMARK  status: ('A' for Active; 'I' for Inactive)
REMARK       I    between atoms: N_5  and  C_13 
REMARK    1  A    between atoms: N_5  and  C_14 
REMARK    2  A    between atoms: N_6  and  C_17 
REMARK    3  A    between atoms: N_6  and  C_20 
REMARK    4  A    between atoms: N_7  and  C_21 
REMARK    5  A    between atoms: N_7  and  C_23 
REMARK    6  A    between atoms: C_10  and  C_13 
REMARK    7  A    between atoms: C_24  and  C_29 
ROOT
HETATM    1  N   UNL     1      59.244  87.385  33.383  1.00  0.00    -0.224 NA
HETATM    2  N   UNL     1      60.479  85.451  32.648  1.00  0.00    -0.224 NA
HETATM    3  C   UNL     1      58.812  86.662  34.438  1.00  0.00     0.133 A 
HETATM    4  C   UNL     1      59.166  85.347  34.662  1.00  0.00     0.100 A 
HETATM    5  C   UNL     1      60.012  84.780  33.726  1.00  0.00     0.133 A 
HETATM    6  C   UNL     1      60.062  86.726  32.540  1.00  0.00     0.237 A 
ENDROOT
BRANCH   3   7
HETATM    7  N   UNL     1      57.947  87.274  35.376  1.00  0.00    -0.341 N 
HETATM    8  H   UNL     1      58.138  88.262  35.519  1.00  0.00     0.167 HD
BRANCH   7   9
HETATM    9  C   UNL     1      56.874  86.782  36.139  1.00  0.00     0.035 A 
HETATM   10  C   UNL     1      56.959  86.749  37.533  1.00  0.00     0.059 A 
HETATM   11  C   UNL     1      55.893  86.261  38.289  1.00  0.00     0.036 A 
HETATM   12  C   UNL     1      54.738  85.805  37.654  1.00  0.00     0.029 A 
HETATM   13  C   UNL     1      54.649  85.836  36.262  1.00  0.00     0.004 A 
HETATM   14  C   UNL     1      55.715  86.323  35.506  1.00  0.00     0.029 A 
BRANCH  11  15
HETATM   15  N   UNL     1      55.981  86.230  39.682  1.00  0.00    -0.327 N 
HETATM   16  C   UNL     1      56.231  85.130  40.505  1.00  0.00     0.226 C 
HETATM   17  O   UNL     1      56.424  83.969  40.167  1.00  0.00    -0.273 OA
HETATM   18  H   UNL     1      55.839  87.125  40.145  1.00  0.00     0.169 HD
BRANCH  16  19
HETATM   19  C   UNL     1      56.258  85.460  41.965  1.00  0.00     0.078 A 
HETATM   20  C   UNL     1      56.060  84.355  42.941  1.00  0.00     0.015 A 
HETATM   21  C   UNL     1      54.983  85.378  42.729  1.00  0.00     0.015 A 
ENDBRANCH  16  19
ENDBRANCH  11  15
ENDBRANCH   7   9
ENDBRANCH   3   7
BRANCH   5  22
HETATM   22  N   UNL     1      60.397  83.439  33.919  1.00  0.00    -0.341 N 
HETATM   23  H   UNL     1      61.311  83.350  34.358  1.00  0.00     0.167 HD
BRANCH  22  24
HETATM   24  C   UNL     1      59.948  82.226  33.358  1.00  0.00     0.034 A 
HETATM   25  C   UNL     1      60.275  81.012  33.963  1.00  0.00     0.045 A 
HETATM   26  C   UNL     1      59.828  79.814  33.408  1.00  0.00     0.050 A 
HETATM   27  C   UNL     1      59.054  79.828  32.248  1.00  0.00     0.016 A 
HETATM   28  C   UNL     1      58.727  81.041  31.642  1.00  0.00     0.003 A 
HETATM   29  C   UNL     1      59.174  82.240  32.197  1.00  0.00     0.029 A 
BRANCH  26  30
HETATM   30  C   UNL     1      60.178  78.516  34.055  1.00  0.00     0.417 C 
HETATM   31  F   UNL     1      59.138  77.633  34.109  1.00  0.00    -0.166 F 
HETATM   32  F   UNL     1      61.183  77.843  33.421  1.00  0.00    -0.166 F 
HETATM   33  F   UNL     1      60.597  78.668  35.346  1.00  0.00    -0.166 F 
ENDBRANCH  26  30
ENDBRANCH  22  24
ENDBRANCH   5  22
TORSDOF 7
ENDMDL
MODEL 6
REMARK VINA RESULT:      -6.9      4.796      8.812
REMARK  7 active torsions:
REMARK  status: ('A' for Active; 'I' for Inactive)
REMARK       I    between atoms: N_5  and  C_13 
REMARK    1  A    between atoms: N_5  and  C_14 
REMARK    2  A    between atoms: N_6  and  C_17 
REMARK    3  A    between atoms: N_6  and  C_20 
REMARK    4  A    between atoms: N_7  and  C_21 
REMARK    5  A    between atoms: N_7  and  C_23 
REMARK    6  A    between atoms: C_10  and  C_13 
REMARK    7  A    between atoms: C_24  and  C_29 
ROOT
HETATM    1  N   UNL     1      59.142  85.673  34.431  1.00  0.00    -0.224 NA
HETATM    2  N   UNL     1      57.711  86.409  36.224  1.00  0.00    -0.224 NA
HETATM    3  C   UNL     1      59.135  84.441  34.981  1.00  0.00     0.133 A 
HETATM    4  C   UNL     1      58.449  84.120  36.135  1.00  0.00     0.100 A 
HETATM    5  C   UNL     1      57.743  85.153  36.726  1.00  0.00     0.133 A 
HETATM    6  C   UNL     1      58.421  86.596  35.095  1.00  0.00     0.237 A 
ENDROOT
BRANCH   3   7
HETATM    7  N   UNL     1      59.869  83.407  34.350  1.00  0.00    -0.341 N 
HETATM    8  H   UNL     1      60.835  83.349  34.659  1.00  0.00     0.167 HD
BRANCH   7   9
HETATM    9  C   UNL     1      59.517  82.447  33.387  1.00  0.00     0.035 A 
HETATM   10  C   UNL     1      59.291  81.120  33.764  1.00  0.00     0.059 A 
HETATM   11  C   UNL     1      58.940  80.169  32.808  1.00  0.00     0.036 A 
HETATM   12  C   UNL     1      58.814  80.538  31.468  1.00  0.00     0.029 A 
HETATM   13  C   UNL     1      59.038  81.861  31.086  1.00  0.00     0.004 A 
HETATM   14  C   UNL     1      59.390  82.813  32.044  1.00  0.00     0.029 A 
BRANCH  11  15
HETATM   15  N   UNL     1      58.715  78.845  33.190  1.00  0.00    -0.327 N 
HETATM   16  C   UNL     1      59.660  77.859  33.480  1.00  0.00     0.226 C 
HETATM   17  O   UNL     1      60.880  77.960  33.458  1.00  0.00    -0.273 OA
HETATM   18  H   UNL     1      57.736  78.574  33.256  1.00  0.00     0.169 HD
BRANCH  16  19
HETATM   19  C   UNL     1      59.063  76.540  33.859  1.00  0.00     0.078 A 
HETATM   20  C   UNL     1      58.321  75.776  32.820  1.00  0.00     0.015 A 
HETATM   21  C   UNL     1      57.580  76.437  33.945  1.00  0.00     0.015 A 
ENDBRANCH  16  19
ENDBRANCH  11  15
ENDBRANCH   7   9
ENDBRANCH   3   7
BRANCH   5  22
HETATM   22  N   UNL     1      57.029  84.867  37.905  1.00  0.00    -0.341 N 
HETATM   23  H   UNL     1      56.021  84.852  37.763  1.00  0.00     0.167 HD
BRANCH  22  24
HETATM   24  C   UNL     1      57.381  84.916  39.270  1.00  0.00     0.034 A 
HETATM   25  C   UNL     1      56.402  84.749  40.250  1.00  0.00     0.045 A 
HETATM   26  C   UNL     1      56.751  84.796  41.599  1.00  0.00     0.050 A 
HETATM   27  C   UNL     1      58.079  85.009  41.969  1.00  0.00     0.016 A 
HETATM   28  C   UNL     1      59.058  85.176  40.990  1.00  0.00     0.003 A 
HETATM   29  C   UNL     1      58.709  85.129  39.640  1.00  0.00     0.029 A 
BRANCH  26  30
HETATM   30  C   UNL     1      55.705  84.618  42.648  1.00  0.00     0.417 C 
HETATM   31  F   UNL     1      56.194  84.656  43.922  1.00  0.00    -0.166 F 
HETATM   32  F   UNL     1      54.729  85.572  42.612  1.00  0.00    -0.166 F 
HETATM   33  F   UNL     1      55.053  83.423  42.541  1.00  0.00    -0.166 F 
ENDBRANCH  26  30
ENDBRANCH  22  24
ENDBRANCH   5  22
TORSDOF 7
ENDMDL
MODEL 7
REMARK VINA RESULT:      -6.8      3.884      6.007
REMARK  7 active torsions:
REMARK  status: ('A' for Active; 'I' for Inactive)
REMARK       I    between atoms: N_5  and  C_13 
REMARK    1  A    between atoms: N_5  and  C_14 
REMARK    2  A    between atoms: N_6  and  C_17 
REMARK    3  A    between atoms: N_6  and  C_20 
REMARK    4  A    between atoms: N_7  and  C_21 
REMARK    5  A    between atoms: N_7  and  C_23 
REMARK    6  A    between atoms: C_10  and  C_13 
REMARK    7  A    between atoms: C_24  and  C_29 
ROOT
HETATM    1  N   UNL     1      62.195  81.910  35.381  1.00  0.00    -0.224 NA
HETATM    2  N   UNL     1      61.916  79.614  34.707  1.00  0.00    -0.224 NA
HETATM    3  C   UNL     1      61.920  81.533  36.647  1.00  0.00     0.133 A 
HETATM    4  C   UNL     1      61.637  80.233  37.016  1.00  0.00     0.100 A 
HETATM    5  C   UNL     1      61.647  79.299  35.995  1.00  0.00     0.133 A 
HETATM    6  C   UNL     1      62.175  80.915  34.475  1.00  0.00     0.237 A 
ENDROOT
BRANCH   3   7
HETATM    7  N   UNL     1      61.917  82.516  37.667  1.00  0.00    -0.341 N 
HETATM    8  H   UNL     1      62.845  82.852  37.908  1.00  0.00     0.167 HD
BRANCH   7   9
HETATM    9  C   UNL     1      60.881  83.118  38.401  1.00  0.00     0.035 A 
HETATM   10  C   UNL     1      60.014  84.023  37.783  1.00  0.00     0.059 A 
HETATM   11  C   UNL     1      58.986  84.619  38.512  1.00  0.00     0.036 A 
HETATM   12  C   UNL     1      58.819  84.311  39.863  1.00  0.00     0.029 A 
HETATM   13  C   UNL     1      59.681  83.408  40.484  1.00  0.00     0.004 A 
HETATM   14  C   UNL     1      60.711  82.813  39.754  1.00  0.00     0.029 A 
BRANCH  11  15
HETATM   15  N   UNL     1      58.122  85.522  37.891  1.00  0.00    -0.327 N 
HETATM   16  C   UNL     1      56.801  85.313  37.487  1.00  0.00     0.226 C 
HETATM   17  O   UNL     1      56.136  84.292  37.600  1.00  0.00    -0.273 OA
HETATM   18  H   UNL     1      58.515  86.443  37.709  1.00  0.00     0.169 HD
BRANCH  16  19
HETATM   19  C   UNL     1      56.166  86.508  36.849  1.00  0.00     0.078 A 
HETATM   20  C   UNL     1      55.601  86.360  35.481  1.00  0.00     0.015 A 
HETATM   21  C   UNL     1      56.862  87.144  35.696  1.00  0.00     0.015 A 
ENDBRANCH  16  19
ENDBRANCH  11  15
ENDBRANCH   7   9
ENDBRANCH   3   7
BRANCH   5  22
HETATM   22  N   UNL     1      61.364  77.961  36.330  1.00  0.00    -0.341 N 
HETATM   23  H   UNL     1      61.815  77.666  37.193  1.00  0.00     0.167 HD
BRANCH  22  24
HETATM   24  C   UNL     1      60.868  76.874  35.581  1.00  0.00     0.034 A 
HETATM   25  C   UNL     1      59.651  76.986  34.909  1.00  0.00     0.045 A 
HETATM   26  C   UNL     1      59.162  75.912  34.167  1.00  0.00     0.050 A 
HETATM   27  C   UNL     1      59.890  74.724  34.097  1.00  0.00     0.016 A 
HETATM   28  C   UNL     1      61.107  74.611  34.768  1.00  0.00     0.003 A 
HETATM   29  C   UNL     1      61.596  75.687  35.510  1.00  0.00     0.029 A 
BRANCH  26  30
HETATM   30  C   UNL     1      57.860  76.031  33.449  1.00  0.00     0.417 C 
HETATM   31  F   UNL     1      56.969  76.863  34.064  1.00  0.00    -0.166 F 
HETATM   32  F   UNL     1      57.980  76.516  32.178  1.00  0.00    -0.166 F 
HETATM   33  F   UNL     1      57.216  74.833  33.325  1.00  0.00    -0.166 F 
ENDBRANCH  26  30
ENDBRANCH  22  24
ENDBRANCH   5  22
TORSDOF 7
ENDMDL
MODEL 8
REMARK VINA RESULT:      -6.8      4.758      8.713
REMARK  7 active torsions:
REMARK  status: ('A' for Active; 'I' for Inactive)
REMARK       I    between atoms: N_5  and  C_13 
REMARK    1  A    between atoms: N_5  and  C_14 
REMARK    2  A    between atoms: N_6  and  C_17 
REMARK    3  A    between atoms: N_6  and  C_20 
REMARK    4  A    between atoms: N_7  and  C_21 
REMARK    5  A    between atoms: N_7  and  C_23 
REMARK    6  A    between atoms: C_10  and  C_13 
REMARK    7  A    between atoms: C_24  and  C_29 
ROOT
HETATM    1  N   UNL     1      55.912  86.632  35.359  1.00  0.00    -0.224 NA
HETATM    2  N   UNL     1      54.932  85.333  37.137  1.00  0.00    -0.224 NA
HETATM    3  C   UNL     1      57.125  86.377  35.892  1.00  0.00     0.133 A 
HETATM    4  C   UNL     1      57.320  85.619  37.029  1.00  0.00     0.100 A 
HETATM    5  C   UNL     1      56.176  85.113  37.622  1.00  0.00     0.133 A 
HETATM    6  C   UNL     1      54.875  86.088  36.023  1.00  0.00     0.237 A 
ENDROOT
BRANCH   3   7
HETATM    7  N   UNL     1      58.275  86.911  35.260  1.00  0.00    -0.341 N 
HETATM    8  H   UNL     1      58.581  87.795  35.656  1.00  0.00     0.167 HD
BRANCH   7   9
HETATM    9  C   UNL     1      59.073  86.452  34.199  1.00  0.00     0.035 A 
HETATM   10  C   UNL     1      59.407  85.098  34.104  1.00  0.00     0.059 A 
HETATM   11  C   UNL     1      60.198  84.643  33.050  1.00  0.00     0.036 A 
HETATM   12  C   UNL     1      60.658  85.540  32.085  1.00  0.00     0.029 A 
HETATM   13  C   UNL     1      60.327  86.891  32.175  1.00  0.00     0.004 A 
HETATM   14  C   UNL     1      59.536  87.346  33.230  1.00  0.00     0.029 A 
BRANCH  11  15
HETATM   15  N   UNL     1      60.530  83.290  32.959  1.00  0.00    -0.327 N 
HETATM   16  C   UNL     1      59.887  82.294  32.221  1.00  0.00     0.226 C 
HETATM   17  O   UNL     1      58.902  82.409  31.504  1.00  0.00    -0.273 OA
HETATM   18  H   UNL     1      61.338  83.004  33.507  1.00  0.00     0.169 HD
BRANCH  16  19
HETATM   19  C   UNL     1      60.515  80.941  32.355  1.00  0.00     0.078 A 
HETATM   20  C   UNL     1      59.681  79.824  32.874  1.00  0.00     0.015 A 
HETATM   21  C   UNL     1      60.768  80.414  33.723  1.00  0.00     0.015 A 
ENDBRANCH  16  19
ENDBRANCH  11  15
ENDBRANCH   7   9
ENDBRANCH   3   7
BRANCH   5  22
HETATM   22  N   UNL     1      56.331  84.334  38.784  1.00  0.00    -0.341 N 
HETATM   23  H   UNL     1      55.642  83.588  38.854  1.00  0.00     0.167 HD
BRANCH  22  24
HETATM   24  C   UNL     1      57.012  84.556  39.999  1.00  0.00     0.034 A 
HETATM   25  C   UNL     1      56.292  84.805  41.168  1.00  0.00     0.045 A 
HETATM   26  C   UNL     1      56.966  85.022  42.369  1.00  0.00     0.050 A 
HETATM   27  C   UNL     1      58.360  84.993  42.402  1.00  0.00     0.016 A 
HETATM   28  C   UNL     1      59.080  84.745  41.234  1.00  0.00     0.003 A 
HETATM   29  C   UNL     1      58.406  84.526  40.032  1.00  0.00     0.029 A 
BRANCH  26  30
HETATM   30  C   UNL     1      56.196  85.288  43.619  1.00  0.00     0.417 C 
HETATM   31  F   UNL     1      56.621  86.393  44.299  1.00  0.00    -0.166 F 
HETATM   32  F   UNL     1      54.863  85.492  43.406  1.00  0.00    -0.166 F 
HETATM   33  F   UNL     1      56.272  84.257  44.512  1.00  0.00    -0.166 F 
ENDBRANCH  26  30
ENDBRANCH  22  24
ENDBRANCH   5  22
TORSDOF 7
ENDMDL
MODEL 9
REMARK VINA RESULT:      -6.8      2.627      3.646
REMARK  7 active torsions:
REMARK  status: ('A' for Active; 'I' for Inactive)
REMARK       I    between atoms: N_5  and  C_13 
REMARK    1  A    between atoms: N_5  and  C_14 
REMARK    2  A    between atoms: N_6  and  C_17 
REMARK    3  A    between atoms: N_6  and  C_20 
REMARK    4  A    between atoms: N_7  and  C_21 
REMARK    5  A    between atoms: N_7  and  C_23 
REMARK    6  A    between atoms: C_10  and  C_13 
REMARK    7  A    between atoms: C_24  and  C_29 
ROOT
HETATM    1  N   UNL     1      60.682  84.502  35.517  1.00  0.00    -0.224 NA
HETATM    2  N   UNL     1      61.953  82.597  34.768  1.00  0.00    -0.224 NA
HETATM    3  C   UNL     1      59.557  83.832  35.191  1.00  0.00     0.133 A 
HETATM    4  C   UNL     1      59.549  82.559  34.657  1.00  0.00     0.100 A 
HETATM    5  C   UNL     1      60.789  81.978  34.462  1.00  0.00     0.133 A 
HETATM    6  C   UNL     1      61.828  83.835  35.281  1.00  0.00     0.237 A 
ENDROOT
BRANCH   3   7
HETATM    7  N   UNL     1      58.304  84.458  35.403  1.00  0.00    -0.341 N 
HETATM    8  H   UNL     1      57.601  84.201  34.716  1.00  0.00     0.167 HD
BRANCH   7   9
HETATM    9  C   UNL     1      57.847  85.356  36.382  1.00  0.00     0.035 A 
HETATM   10  C   UNL     1      57.294  84.878  37.573  1.00  0.00     0.059 A 
HETATM   11  C   UNL     1      56.842  85.770  38.545  1.00  0.00     0.036 A 
HETATM   12  C   UNL     1      56.941  87.145  38.330  1.00  0.00     0.029 A 
HETATM   13  C   UNL     1      57.493  87.627  37.143  1.00  0.00     0.004 A 
HETATM   14  C   UNL     1      57.944  86.734  36.171  1.00  0.00     0.029 A 
BRANCH  11  15
HETATM   15  N   UNL     1      56.291  85.288  39.733  1.00  0.00    -0.327 N 
HETATM   16  C   UNL     1      56.910  84.515  40.718  1.00  0.00     0.226 C 
HETATM   17  O   UNL     1      58.063  84.105  40.736  1.00  0.00    -0.273 OA
HETATM   18  H   UNL     1      55.315  85.531  39.888  1.00  0.00     0.169 HD
BRANCH  16  19
HETATM   19  C   UNL     1      56.016  84.173  41.870  1.00  0.00     0.078 A 
HETATM   20  C   UNL     1      55.132  85.237  42.416  1.00  0.00     0.015 A 
HETATM   21  C   UNL     1      56.322  84.768  43.199  1.00  0.00     0.015 A 
ENDBRANCH  16  19
ENDBRANCH  11  15
ENDBRANCH   7   9
ENDBRANCH   3   7
BRANCH   5  22
HETATM   22  N   UNL     1      60.826  80.679  33.919  1.00  0.00    -0.341 N 
HETATM   23  H   UNL     1      60.695  80.669  32.910  1.00  0.00     0.167 HD
BRANCH  22  24
HETATM   24  C   UNL     1      60.683  79.399  34.495  1.00  0.00     0.034 A 
HETATM   25  C   UNL     1      59.845  78.455  33.901  1.00  0.00     0.045 A 
HETATM   26  C   UNL     1      59.706  77.190  34.469  1.00  0.00     0.050 A 
HETATM   27  C   UNL     1      60.405  76.868  35.633  1.00  0.00     0.016 A 
HETATM   28  C   UNL     1      61.242  77.811  36.228  1.00  0.00     0.003 A 
HETATM   29  C   UNL     1      61.381  79.077  35.658  1.00  0.00     0.029 A 
BRANCH  26  30
HETATM   30  C   UNL     1      58.810  76.180  33.834  1.00  0.00     0.417 C 
HETATM   31  F   UNL     1      57.498  76.313  34.188  1.00  0.00    -0.166 F 
HETATM   32  F   UNL     1      58.817  76.225  32.470  1.00  0.00    -0.166 F 
HETATM   33  F   UNL     1      59.149  74.898  34.160  1.00  0.00    -0.166 F 
ENDBRANCH  26  30
ENDBRANCH  22  24
ENDBRANCH   5  22
TORSDOF 7
ENDMDL
