MODEL 1
REMARK VINA RESULT:      -7.3      0.000      0.000
REMARK  7 active torsions:
REMARK  status: ('A' for Active; 'I' for Inactive)
REMARK       I    between atoms: N_5  and  C_13 
REMARK    1  A    between atoms: N_5  and  C_14 
REMARK    2  A    between atoms: N_6  and  C_17 
REMARK    3  A    between atoms: N_6  and  C_20 
REMARK    4  A    between atoms: N_7  and  C_21 
REMARK    5  A    between atoms: N_7  and  C_23 
REMARK    6  A    between atoms: C_10  and  C_13 
REMARK    7  A    between atoms: C_24  and  C_29 
ROOT
HETATM    1  N   UNL     1      59.059  87.939  33.568  1.00  0.00    -0.224 NA
HETATM    2  N   UNL     1      60.631  86.267  32.833  1.00  0.00    -0.224 NA
HETATM    3  C   UNL     1      58.820  87.182  34.659  1.00  0.00     0.133 A 
HETATM    4  C   UNL     1      59.440  85.973  34.904  1.00  0.00     0.100 A 
HETATM    5  C   UNL     1      60.348  85.554  33.948  1.00  0.00     0.133 A 
HETATM    6  C   UNL     1      59.961  87.429  32.708  1.00  0.00     0.237 A 
ENDROOT
BRANCH   3   7
HETATM    7  N   UNL     1      57.883  87.641  35.616  1.00  0.00    -0.341 N 
HETATM    8  H   UNL     1      57.994  88.623  35.853  1.00  0.00     0.167 HD
BRANCH   7   9
HETATM    9  C   UNL     1      56.831  87.003  36.294  1.00  0.00     0.035 A 
HETATM   10  C   UNL     1      56.853  86.897  37.688  1.00  0.00     0.059 A 
HETATM   11  C   UNL     1      55.807  86.266  38.359  1.00  0.00     0.036 A 
HETATM   12  C   UNL     1      54.734  85.737  37.641  1.00  0.00     0.029 A 
HETATM   13  C   UNL     1      54.707  85.841  36.251  1.00  0.00     0.004 A 
HETATM   14  C   UNL     1      55.755  86.472  35.578  1.00  0.00     0.029 A 
BRANCH  11  15
HETATM   15  N   UNL     1      55.832  86.163  39.751  1.00  0.00    -0.327 N 
HETATM   16  C   UNL     1      56.316  85.108  40.528  1.00  0.00     0.226 C 
HETATM   17  O   UNL     1      56.818  84.060  40.142  1.00  0.00    -0.273 OA
HETATM   18  H   UNL     1      55.442  86.958  40.252  1.00  0.00     0.169 HD
BRANCH  16  19
HETATM   19  C   UNL     1      56.186  85.332  42.002  1.00  0.00     0.078 A 
HETATM   20  C   UNL     1      55.562  84.263  42.827  1.00  0.00     0.015 A 
HETATM   21  C   UNL     1      54.825  85.544  42.565  1.00  0.00     0.015 A 
ENDBRANCH  16  19
ENDBRANCH  11  15
ENDBRANCH   7   9
ENDBRANCH   3   7
BRANCH   5  22
HETATM   22  N   UNL     1      61.003  84.326  34.161  1.00  0.00    -0.341 N 
HETATM   23  H   UNL     1      62.011  84.427  34.255  1.00  0.00     0.167 HD
BRANCH  22  24
HETATM   24  C   UNL     1      60.612  82.987  33.953  1.00  0.00     0.034 A 
HETATM   25  C   UNL     1      59.675  82.678  32.967  1.00  0.00     0.045 A 
HETATM   26  C   UNL     1      59.290  81.353  32.762  1.00  0.00     0.050 A 
HETATM   27  C   UNL     1      59.841  80.338  33.543  1.00  0.00     0.016 A 
HETATM   28  C   UNL     1      60.777  80.646  34.529  1.00  0.00     0.003 A 
HETATM   29  C   UNL     1      61.163  81.971  34.735  1.00  0.00     0.029 A 
BRANCH  26  30
HETATM   30  C   UNL     1      58.288  81.022  31.707  1.00  0.00     0.417 C 
HETATM   31  F   UNL     1      57.845  82.110  31.012  1.00  0.00    -0.166 F 
HETATM   32  F   UNL     1      58.759  80.161  30.758  1.00  0.00    -0.166 F 
HETATM   33  F   UNL     1      57.167  80.430  32.215  1.00  0.00    -0.166 F 
ENDBRANCH  26  30
ENDBRANCH  22  24
ENDBRANCH   5  22
TORSDOF 7
ENDMDL
MODEL 2
REMARK VINA RESULT:      -7.0      4.252      8.780
REMARK  7 active torsions:
REMARK  status: ('A' for Active; 'I' for Inactive)
REMARK       I    between atoms: N_5  and  C_13 
REMARK    1  A    between atoms: N_5  and  C_14 
REMARK    2  A    between atoms: N_6  and  C_17 
REMARK    3  A    between atoms: N_6  and  C_20 
REMARK    4  A    between atoms: N_7  and  C_21 
REMARK    5  A    between atoms: N_7  and  C_23 
REMARK    6  A    between atoms: C_10  and  C_13 
REMARK    7  A    between atoms: C_24  and  C_29 
ROOT
HETATM    1  N   UNL     1      60.686  81.881  32.410  1.00  0.00    -0.224 NA
HETATM    2  N   UNL     1      59.655  84.026  32.785  1.00  0.00    -0.224 NA
HETATM    3  C   UNL     1      61.057  81.874  33.707  1.00  0.00     0.133 A 
HETATM    4  C   UNL     1      60.767  82.892  34.593  1.00  0.00     0.100 A 
HETATM    5  C   UNL     1      60.055  83.959  34.076  1.00  0.00     0.133 A 
HETATM    6  C   UNL     1      59.998  82.972  32.022  1.00  0.00     0.237 A 
ENDROOT
BRANCH   3   7
HETATM    7  N   UNL     1      61.785  80.765  34.203  1.00  0.00    -0.341 N 
HETATM    8  H   UNL     1      62.793  80.883  34.142  1.00  0.00     0.167 HD
BRANCH   7   9
HETATM    9  C   UNL     1      61.384  79.542  34.766  1.00  0.00     0.035 A 
HETATM   10  C   UNL     1      60.735  78.585  33.982  1.00  0.00     0.059 A 
HETATM   11  C   UNL     1      60.338  77.371  34.542  1.00  0.00     0.036 A 
HETATM   12  C   UNL     1      60.589  77.108  35.889  1.00  0.00     0.029 A 
HETATM   13  C   UNL     1      61.237  78.060  36.676  1.00  0.00     0.004 A 
HETATM   14  C   UNL     1      61.632  79.275  36.116  1.00  0.00     0.029 A 
BRANCH  11  15
HETATM   15  N   UNL     1      59.691  76.417  33.754  1.00  0.00    -0.327 N 
HETATM   16  C   UNL     1      58.319  76.256  33.551  1.00  0.00     0.226 C 
HETATM   17  O   UNL     1      57.407  76.922  34.024  1.00  0.00    -0.273 OA
HETATM   18  H   UNL     1      60.305  75.759  33.278  1.00  0.00     0.169 HD
BRANCH  16  19
HETATM   19  C   UNL     1      57.971  75.122  32.638  1.00  0.00     0.078 A 
HETATM   20  C   UNL     1      59.057  74.517  31.820  1.00  0.00     0.015 A 
HETATM   21  C   UNL     1      58.004  75.365  31.170  1.00  0.00     0.015 A 
ENDBRANCH  16  19
ENDBRANCH  11  15
ENDBRANCH   7   9
ENDBRANCH   3   7
BRANCH   5  22
HETATM   22  N   UNL     1      59.739  85.019  34.948  1.00  0.00    -0.341 N 
HETATM   23  H   UNL     1      60.413  85.124  35.703  1.00  0.00     0.167 HD
BRANCH  22  24
HETATM   24  C   UNL     1      58.551  85.742  35.181  1.00  0.00     0.034 A 
HETATM   25  C   UNL     1      57.617  85.271  36.104  1.00  0.00     0.045 A 
HETATM   26  C   UNL     1      56.443  85.987  36.335  1.00  0.00     0.050 A 
HETATM   27  C   UNL     1      56.202  87.173  35.643  1.00  0.00     0.016 A 
HETATM   28  C   UNL     1      57.134  87.644  34.719  1.00  0.00     0.003 A 
HETATM   29  C   UNL     1      58.309  86.928  34.488  1.00  0.00     0.029 A 
BRANCH  26  30
HETATM   30  C   UNL     1      55.444  85.484  37.323  1.00  0.00     0.417 C 
HETATM   31  F   UNL     1      54.178  85.389  36.821  1.00  0.00    -0.166 F 
HETATM   32  F   UNL     1      55.731  84.239  37.804  1.00  0.00    -0.166 F 
HETATM   33  F   UNL     1      55.343  86.287  38.423  1.00  0.00    -0.166 F 
ENDBRANCH  26  30
ENDBRANCH  22  24
ENDBRANCH   5  22
TORSDOF 7
ENDMDL
MODEL 3
REMARK VINA RESULT:      -7.0      1.554      2.086
REMARK  7 active torsions:
REMARK  status: ('A' for Active; 'I' for Inactive)
REMARK       I    between atoms: N_5  and  C_13 
REMARK    1  A    between atoms: N_5  and  C_14 
REMARK    2  A    between atoms: N_6  and  C_17 
REMARK    3  A    between atoms: N_6  and  C_20 
REMARK    4  A    between atoms: N_7  and  C_21 
REMARK    5  A    between atoms: N_7  and  C_23 
REMARK    6  A    between atoms: C_10  and  C_13 
REMARK    7  A    between atoms: C_24  and  C_29 
ROOT
HETATM    1  N   UNL     1      59.123  87.467  33.503  1.00  0.00    -0.224 NA
HETATM    2  N   UNL     1      60.231  85.738  32.243  1.00  0.00    -0.224 NA
HETATM    3  C   UNL     1      59.019  86.599  34.531  1.00  0.00     0.133 A 
HETATM    4  C   UNL     1      59.491  85.302  34.491  1.00  0.00     0.100 A 
HETATM    5  C   UNL     1      60.096  84.915  33.309  1.00  0.00     0.133 A 
HETATM    6  C   UNL     1      59.730  86.977  32.406  1.00  0.00     0.237 A 
ENDROOT
BRANCH   3   7
HETATM    7  N   UNL     1      58.392  87.028  35.727  1.00  0.00    -0.341 N 
HETATM    8  H   UNL     1      58.883  87.788  36.190  1.00  0.00     0.167 HD
BRANCH   7   9
HETATM    9  C   UNL     1      57.225  86.613  36.387  1.00  0.00     0.035 A 
HETATM   10  C   UNL     1      57.190  86.546  37.783  1.00  0.00     0.059 A 
HETATM   11  C   UNL     1      56.030  86.135  38.437  1.00  0.00     0.036 A 
HETATM   12  C   UNL     1      54.898  85.788  37.699  1.00  0.00     0.029 A 
HETATM   13  C   UNL     1      54.927  85.852  36.307  1.00  0.00     0.004 A 
HETATM   14  C   UNL     1      56.088  86.263  35.652  1.00  0.00     0.029 A 
BRANCH  11  15
HETATM   15  N   UNL     1      56.000  86.071  39.831  1.00  0.00    -0.327 N 
HETATM   16  C   UNL     1      56.403  85.016  40.654  1.00  0.00     0.226 C 
HETATM   17  O   UNL     1      56.865  83.935  40.315  1.00  0.00    -0.273 OA
HETATM   18  H   UNL     1      55.632  86.898  40.296  1.00  0.00     0.169 HD
BRANCH  16  19
HETATM   19  C   UNL     1      56.232  85.289  42.116  1.00  0.00     0.078 A 
HETATM   20  C   UNL     1      55.615  84.233  42.963  1.00  0.00     0.015 A 
HETATM   21  C   UNL     1      54.852  85.483  42.639  1.00  0.00     0.015 A 
ENDBRANCH  16  19
ENDBRANCH  11  15
ENDBRANCH   7   9
ENDBRANCH   3   7
BRANCH   5  22
HETATM   22  N   UNL     1      60.591  83.600  33.227  1.00  0.00    -0.341 N 
HETATM   23  H   UNL     1      61.608  83.561  33.211  1.00  0.00     0.167 HD
BRANCH  22  24
HETATM   24  C   UNL     1      59.998  82.378  32.846  1.00  0.00     0.034 A 
HETATM   25  C   UNL     1      60.329  81.201  33.518  1.00  0.00     0.045 A 
HETATM   26  C   UNL     1      59.740  79.995  33.142  1.00  0.00     0.050 A 
HETATM   27  C   UNL     1      58.821  79.964  32.093  1.00  0.00     0.016 A 
HETATM   28  C   UNL     1      58.490  81.140  31.420  1.00  0.00     0.003 A 
HETATM   29  C   UNL     1      59.079  82.347  31.797  1.00  0.00     0.029 A 
BRANCH  26  30
HETATM   30  C   UNL     1      60.094  78.736  33.860  1.00  0.00     0.417 C 
HETATM   31  F   UNL     1      60.572  78.941  35.123  1.00  0.00    -0.166 F 
HETATM   32  F   UNL     1      59.041  77.880  34.012  1.00  0.00    -0.166 F 
HETATM   33  F   UNL     1      61.060  78.017  33.216  1.00  0.00    -0.166 F 
ENDBRANCH  26  30
ENDBRANCH  22  24
ENDBRANCH   5  22
TORSDOF 7
ENDMDL
MODEL 4
REMARK VINA RESULT:      -6.9      3.187      4.802
REMARK  7 active torsions:
REMARK  status: ('A' for Active; 'I' for Inactive)
REMARK       I    between atoms: N_5  and  C_13 
REMARK    1  A    between atoms: N_5  and  C_14 
REMARK    2  A    between atoms: N_6  and  C_17 
REMARK    3  A    between atoms: N_6  and  C_20 
REMARK    4  A    between atoms: N_7  and  C_21 
REMARK    5  A    between atoms: N_7  and  C_23 
REMARK    6  A    between atoms: C_10  and  C_13 
REMARK    7  A    between atoms: C_24  and  C_29 
ROOT
HETATM    1  N   UNL     1      59.464  82.968  32.012  1.00  0.00    -0.224 NA
HETATM    2  N   UNL     1      59.594  80.571  32.226  1.00  0.00    -0.224 NA
HETATM    3  C   UNL     1      60.052  83.071  33.222  1.00  0.00     0.133 A 
HETATM    4  C   UNL     1      60.435  81.984  33.983  1.00  0.00     0.100 A 
HETATM    5  C   UNL     1      60.180  80.741  33.434  1.00  0.00     0.133 A 
HETATM    6  C   UNL     1      59.267  81.707  31.581  1.00  0.00     0.237 A 
ENDROOT
BRANCH   3   7
HETATM    7  N   UNL     1      60.297  84.360  33.755  1.00  0.00    -0.341 N 
HETATM    8  H   UNL     1      61.281  84.548  33.923  1.00  0.00     0.167 HD
BRANCH   7   9
HETATM    9  C   UNL     1      59.444  85.425  34.088  1.00  0.00     0.035 A 
HETATM   10  C   UNL     1      58.709  85.394  35.277  1.00  0.00     0.059 A 
HETATM   11  C   UNL     1      57.864  86.453  35.607  1.00  0.00     0.036 A 
HETATM   12  C   UNL     1      57.750  87.549  34.750  1.00  0.00     0.029 A 
HETATM   13  C   UNL     1      58.482  87.584  33.563  1.00  0.00     0.004 A 
HETATM   14  C   UNL     1      59.326  86.524  33.232  1.00  0.00     0.029 A 
BRANCH  11  15
HETATM   15  N   UNL     1      57.133  86.419  36.795  1.00  0.00    -0.327 N 
HETATM   16  C   UNL     1      55.841  85.928  36.997  1.00  0.00     0.226 C 
HETATM   17  O   UNL     1      55.090  85.428  36.170  1.00  0.00    -0.273 OA
HETATM   18  H   UNL     1      57.607  86.807  37.608  1.00  0.00     0.169 HD
BRANCH  16  19
HETATM   19  C   UNL     1      55.362  86.049  38.411  1.00  0.00     0.078 A 
HETATM   20  C   UNL     1      56.242  86.730  39.398  1.00  0.00     0.015 A 
HETATM   21  C   UNL     1      56.048  85.244  39.458  1.00  0.00     0.015 A 
ENDBRANCH  16  19
ENDBRANCH  11  15
ENDBRANCH   7   9
ENDBRANCH   3   7
BRANCH   5  22
HETATM   22  N   UNL     1      60.556  79.606  34.178  1.00  0.00    -0.341 N 
HETATM   23  H   UNL     1      61.105  79.839  35.003  1.00  0.00     0.167 HD
BRANCH  22  24
HETATM   24  C   UNL     1      60.611  78.233  33.864  1.00  0.00     0.034 A 
HETATM   25  C   UNL     1      59.438  77.478  33.822  1.00  0.00     0.045 A 
HETATM   26  C   UNL     1      59.493  76.121  33.509  1.00  0.00     0.050 A 
HETATM   27  C   UNL     1      60.721  75.517  33.238  1.00  0.00     0.016 A 
HETATM   28  C   UNL     1      61.894  76.270  33.280  1.00  0.00     0.003 A 
HETATM   29  C   UNL     1      61.839  77.629  33.593  1.00  0.00     0.029 A 
BRANCH  26  30
HETATM   30  C   UNL     1      58.240  75.313  33.464  1.00  0.00     0.417 C 
HETATM   31  F   UNL     1      57.155  75.957  33.987  1.00  0.00    -0.166 F 
HETATM   32  F   UNL     1      57.866  74.955  32.200  1.00  0.00    -0.166 F 
HETATM   33  F   UNL     1      58.343  74.144  34.161  1.00  0.00    -0.166 F 
ENDBRANCH  26  30
ENDBRANCH  22  24
ENDBRANCH   5  22
TORSDOF 7
ENDMDL
MODEL 5
REMARK VINA RESULT:      -6.9      2.615      3.640
REMARK  7 active torsions:
REMARK  status: ('A' for Active; 'I' for Inactive)
REMARK       I    between atoms: N_5  and  C_13 
REMARK    1  A    between atoms: N_5  and  C_14 
REMARK    2  A    between atoms: N_6  and  C_17 
REMARK    3  A    between atoms: N_6  and  C_20 
REMARK    4  A    between atoms: N_7  and  C_21 
REMARK    5  A    between atoms: N_7  and  C_23 
REMARK    6  A    between atoms: C_10  and  C_13 
REMARK    7  A    between atoms: C_24  and  C_29 
ROOT
HETATM    1  N   UNL     1      60.753  84.264  35.538  1.00  0.00    -0.224 NA
HETATM    2  N   UNL     1      61.909  82.293  34.771  1.00  0.00    -0.224 NA
HETATM    3  C   UNL     1      59.596  83.694  35.141  1.00  0.00     0.133 A 
HETATM    4  C   UNL     1      59.516  82.444  34.561  1.00  0.00     0.100 A 
HETATM    5  C   UNL     1      60.716  81.776  34.395  1.00  0.00     0.133 A 
HETATM    6  C   UNL     1      61.855  83.519  35.325  1.00  0.00     0.237 A 
ENDROOT
BRANCH   3   7
HETATM    7  N   UNL     1      58.386  84.407  35.325  1.00  0.00    -0.341 N 
HETATM    8  H   UNL     1      57.699  84.232  34.598  1.00  0.00     0.167 HD
BRANCH   7   9
HETATM    9  C   UNL     1      57.954  85.300  36.320  1.00  0.00     0.035 A 
HETATM   10  C   UNL     1      57.357  84.818  37.488  1.00  0.00     0.059 A 
HETATM   11  C   UNL     1      56.930  85.705  38.475  1.00  0.00     0.036 A 
HETATM   12  C   UNL     1      57.097  87.079  38.299  1.00  0.00     0.029 A 
HETATM   13  C   UNL     1      57.692  87.565  37.135  1.00  0.00     0.004 A 
HETATM   14  C   UNL     1      58.119  86.677  36.147  1.00  0.00     0.029 A 
BRANCH  11  15
HETATM   15  N   UNL     1      56.336  85.219  39.641  1.00  0.00    -0.327 N 
HETATM   16  C   UNL     1      56.944  84.542  40.700  1.00  0.00     0.226 C 
HETATM   17  O   UNL     1      58.124  84.240  40.818  1.00  0.00    -0.273 OA
HETATM   18  H   UNL     1      55.333  85.378  39.715  1.00  0.00     0.169 HD
BRANCH  16  19
HETATM   19  C   UNL     1      56.000  84.163  41.798  1.00  0.00     0.078 A 
HETATM   20  C   UNL     1      55.140  85.225  42.387  1.00  0.00     0.015 A 
HETATM   21  C   UNL     1      56.285  84.657  43.173  1.00  0.00     0.015 A 
ENDBRANCH  16  19
ENDBRANCH  11  15
ENDBRANCH   7   9
ENDBRANCH   3   7
BRANCH   5  22
HETATM   22  N   UNL     1      60.678  80.498  33.806  1.00  0.00    -0.341 N 
HETATM   23  H   UNL     1      60.520  80.530  32.802  1.00  0.00     0.167 HD
BRANCH  22  24
HETATM   24  C   UNL     1      60.494  79.206  34.341  1.00  0.00     0.034 A 
HETATM   25  C   UNL     1      59.545  78.348  33.784  1.00  0.00     0.045 A 
HETATM   26  C   UNL     1      59.364  77.071  34.312  1.00  0.00     0.050 A 
HETATM   27  C   UNL     1      60.132  76.649  35.397  1.00  0.00     0.016 A 
HETATM   28  C   UNL     1      61.081  77.506  35.955  1.00  0.00     0.003 A 
HETATM   29  C   UNL     1      61.262  78.785  35.426  1.00  0.00     0.029 A 
BRANCH  26  30
HETATM   30  C   UNL     1      58.349  76.153  33.716  1.00  0.00     0.417 C 
HETATM   31  F   UNL     1      58.271  76.233  32.355  1.00  0.00    -0.166 F 
HETATM   32  F   UNL     1      58.582  74.835  33.984  1.00  0.00    -0.166 F 
HETATM   33  F   UNL     1      57.086  76.402  34.171  1.00  0.00    -0.166 F 
ENDBRANCH  26  30
ENDBRANCH  22  24
ENDBRANCH   5  22
TORSDOF 7
ENDMDL
MODEL 6
REMARK VINA RESULT:      -6.9      5.031      8.420
REMARK  7 active torsions:
REMARK  status: ('A' for Active; 'I' for Inactive)
REMARK       I    between atoms: N_5  and  C_13 
REMARK    1  A    between atoms: N_5  and  C_14 
REMARK    2  A    between atoms: N_6  and  C_17 
REMARK    3  A    between atoms: N_6  and  C_20 
REMARK    4  A    between atoms: N_7  and  C_21 
REMARK    5  A    between atoms: N_7  and  C_23 
REMARK    6  A    between atoms: C_10  and  C_13 
REMARK    7  A    between atoms: C_24  and  C_29 
ROOT
HETATM    1  N   UNL     1      56.142  84.518  43.401  1.00  0.00    -0.224 NA
HETATM    2  N   UNL     1      56.036  84.919  41.028  1.00  0.00    -0.224 NA
HETATM    3  C   UNL     1      57.215  85.335  43.454  1.00  0.00     0.133 A 
HETATM    4  C   UNL     1      57.748  85.971  42.352  1.00  0.00     0.100 A 
HETATM    5  C   UNL     1      57.115  85.727  41.147  1.00  0.00     0.133 A 
HETATM    6  C   UNL     1      55.611  84.356  42.175  1.00  0.00     0.237 A 
ENDROOT
BRANCH   3   7
HETATM    7  N   UNL     1      57.839  85.562  44.705  1.00  0.00    -0.341 N 
HETATM    8  H   UNL     1      58.564  84.884  44.925  1.00  0.00     0.167 HD
BRANCH   7   9
HETATM    9  C   UNL     1      57.654  86.544  45.692  1.00  0.00     0.035 A 
HETATM   10  C   UNL     1      57.798  87.897  45.375  1.00  0.00     0.059 A 
HETATM   11  C   UNL     1      57.612  88.871  46.356  1.00  0.00     0.036 A 
HETATM   12  C   UNL     1      57.282  88.496  47.658  1.00  0.00     0.029 A 
HETATM   13  C   UNL     1      57.137  87.147  47.980  1.00  0.00     0.004 A 
HETATM   14  C   UNL     1      57.324  86.172  46.999  1.00  0.00     0.029 A 
BRANCH  11  15
HETATM   15  N   UNL     1      57.756  90.221  46.034  1.00  0.00    -0.327 N 
HETATM   16  C   UNL     1      56.793  91.092  45.519  1.00  0.00     0.226 C 
HETATM   17  O   UNL     1      55.626  90.842  45.246  1.00  0.00    -0.273 OA
HETATM   18  H   UNL     1      58.684  90.609  46.194  1.00  0.00     0.169 HD
BRANCH  16  19
HETATM   19  C   UNL     1      57.294  92.484  45.291  1.00  0.00     0.078 A 
HETATM   20  C   UNL     1      56.754  93.247  44.134  1.00  0.00     0.015 A 
HETATM   21  C   UNL     1      58.164  92.735  44.110  1.00  0.00     0.015 A 
ENDBRANCH  16  19
ENDBRANCH  11  15
ENDBRANCH   7   9
ENDBRANCH   3   7
BRANCH   5  22
HETATM   22  N   UNL     1      57.629  86.358  39.997  1.00  0.00    -0.341 N 
HETATM   23  H   UNL     1      57.713  87.367  40.105  1.00  0.00     0.167 HD
BRANCH  22  24
HETATM   24  C   UNL     1      57.744  85.947  38.653  1.00  0.00     0.034 A 
HETATM   25  C   UNL     1      57.068  86.641  37.650  1.00  0.00     0.045 A 
HETATM   26  C   UNL     1      57.185  86.235  36.321  1.00  0.00     0.050 A 
HETATM   27  C   UNL     1      57.977  85.134  35.995  1.00  0.00     0.016 A 
HETATM   28  C   UNL     1      58.653  84.439  36.998  1.00  0.00     0.003 A 
HETATM   29  C   UNL     1      58.537  84.846  38.327  1.00  0.00     0.029 A 
BRANCH  26  30
HETATM   30  C   UNL     1      56.462  86.977  35.247  1.00  0.00     0.417 C 
HETATM   31  F   UNL     1      57.161  87.068  34.078  1.00  0.00    -0.166 F 
HETATM   32  F   UNL     1      55.266  86.414  34.905  1.00  0.00    -0.166 F 
HETATM   33  F   UNL     1      56.172  88.264  35.602  1.00  0.00    -0.166 F 
ENDBRANCH  26  30
ENDBRANCH  22  24
ENDBRANCH   5  22
TORSDOF 7
ENDMDL
MODEL 7
REMARK VINA RESULT:      -6.8      3.986      7.958
REMARK  7 active torsions:
REMARK  status: ('A' for Active; 'I' for Inactive)
REMARK       I    between atoms: N_5  and  C_13 
REMARK    1  A    between atoms: N_5  and  C_14 
REMARK    2  A    between atoms: N_6  and  C_17 
REMARK    3  A    between atoms: N_6  and  C_20 
REMARK    4  A    between atoms: N_7  and  C_21 
REMARK    5  A    between atoms: N_7  and  C_23 
REMARK    6  A    between atoms: C_10  and  C_13 
REMARK    7  A    between atoms: C_24  and  C_29 
ROOT
HETATM    1  N   UNL     1      60.492  85.636  32.143  1.00  0.00    -0.224 NA
HETATM    2  N   UNL     1      59.386  87.469  33.249  1.00  0.00    -0.224 NA
HETATM    3  C   UNL     1      60.141  84.847  33.180  1.00  0.00     0.133 A 
HETATM    4  C   UNL     1      59.423  85.291  34.272  1.00  0.00     0.100 A 
HETATM    5  C   UNL     1      59.065  86.627  34.259  1.00  0.00     0.133 A 
HETATM    6  C   UNL     1      60.089  86.917  32.242  1.00  0.00     0.237 A 
ENDROOT
BRANCH   3   7
HETATM    7  N   UNL     1      60.525  83.484  33.161  1.00  0.00    -0.341 N 
HETATM    8  H   UNL     1      61.480  83.328  33.471  1.00  0.00     0.167 HD
BRANCH   7   9
HETATM    9  C   UNL     1      59.839  82.311  32.805  1.00  0.00     0.035 A 
HETATM   10  C   UNL     1      59.952  81.162  33.593  1.00  0.00     0.059 A 
HETATM   11  C   UNL     1      59.270  79.999  33.239  1.00  0.00     0.036 A 
HETATM   12  C   UNL     1      58.471  79.979  32.095  1.00  0.00     0.029 A 
HETATM   13  C   UNL     1      58.355  81.123  31.306  1.00  0.00     0.004 A 
HETATM   14  C   UNL     1      59.039  82.286  31.659  1.00  0.00     0.029 A 
BRANCH  11  15
HETATM   15  N   UNL     1      59.385  78.854  34.029  1.00  0.00    -0.327 N 
HETATM   16  C   UNL     1      60.415  77.912  34.035  1.00  0.00     0.226 C 
HETATM   17  O   UNL     1      61.428  77.903  33.348  1.00  0.00    -0.273 OA
HETATM   18  H   UNL     1      58.613  78.693  34.673  1.00  0.00     0.169 HD
BRANCH  16  19
HETATM   19  C   UNL     1      60.214  76.801  35.018  1.00  0.00     0.078 A 
HETATM   20  C   UNL     1      61.108  76.739  36.206  1.00  0.00     0.015 A 
HETATM   21  C   UNL     1      61.251  75.736  35.100  1.00  0.00     0.015 A 
ENDBRANCH  16  19
ENDBRANCH  11  15
ENDBRANCH   7   9
ENDBRANCH   3   7
BRANCH   5  22
HETATM   22  N   UNL     1      58.330  87.119  35.354  1.00  0.00    -0.341 N 
HETATM   23  H   UNL     1      58.834  87.829  35.881  1.00  0.00     0.167 HD
BRANCH  22  24
HETATM   24  C   UNL     1      57.209  86.623  36.053  1.00  0.00     0.034 A 
HETATM   25  C   UNL     1      57.326  86.263  37.395  1.00  0.00     0.045 A 
HETATM   26  C   UNL     1      56.217  85.775  38.085  1.00  0.00     0.050 A 
HETATM   27  C   UNL     1      54.991  85.646  37.432  1.00  0.00     0.016 A 
HETATM   28  C   UNL     1      54.874  86.006  36.090  1.00  0.00     0.003 A 
HETATM   29  C   UNL     1      55.983  86.494  35.400  1.00  0.00     0.029 A 
BRANCH  26  30
HETATM   30  C   UNL     1      56.341  85.390  39.521  1.00  0.00     0.417 C 
HETATM   31  F   UNL     1      55.479  86.057  40.343  1.00  0.00    -0.166 F 
HETATM   32  F   UNL     1      56.102  84.066  39.753  1.00  0.00    -0.166 F 
HETATM   33  F   UNL     1      57.587  85.631  40.023  1.00  0.00    -0.166 F 
ENDBRANCH  26  30
ENDBRANCH  22  24
ENDBRANCH   5  22
TORSDOF 7
ENDMDL
MODEL 8
REMARK VINA RESULT:      -6.7      4.058      6.119
REMARK  7 active torsions:
REMARK  status: ('A' for Active; 'I' for Inactive)
REMARK       I    between atoms: N_5  and  C_13 
REMARK    1  A    between atoms: N_5  and  C_14 
REMARK    2  A    between atoms: N_6  and  C_17 
REMARK    3  A    between atoms: N_6  and  C_20 
REMARK    4  A    between atoms: N_7  and  C_21 
REMARK    5  A    between atoms: N_7  and  C_23 
REMARK    6  A    between atoms: C_10  and  C_13 
REMARK    7  A    between atoms: C_24  and  C_29 
ROOT
HETATM    1  N   UNL     1      60.201  83.517  40.271  1.00  0.00    -0.224 NA
HETATM    2  N   UNL     1      60.835  82.951  38.016  1.00  0.00    -0.224 NA
HETATM    3  C   UNL     1      59.590  84.616  39.783  1.00  0.00     0.133 A 
HETATM    4  C   UNL     1      59.558  84.946  38.443  1.00  0.00     0.100 A 
HETATM    5  C   UNL     1      60.204  84.070  37.590  1.00  0.00     0.133 A 
HETATM    6  C   UNL     1      60.796  82.740  39.345  1.00  0.00     0.237 A 
ENDROOT
BRANCH   3   7
HETATM    7  N   UNL     1      58.939  85.492  40.686  1.00  0.00    -0.341 N 
HETATM    8  H   UNL     1      59.321  86.434  40.684  1.00  0.00     0.167 HD
BRANCH   7   9
HETATM    9  C   UNL     1      57.866  85.311  41.575  1.00  0.00     0.035 A 
HETATM   10  C   UNL     1      57.907  85.876  42.852  1.00  0.00     0.059 A 
HETATM   11  C   UNL     1      56.841  85.697  43.733  1.00  0.00     0.036 A 
HETATM   12  C   UNL     1      55.729  84.952  43.341  1.00  0.00     0.029 A 
HETATM   13  C   UNL     1      55.683  84.386  42.067  1.00  0.00     0.004 A 
HETATM   14  C   UNL     1      56.750  84.565  41.186  1.00  0.00     0.029 A 
BRANCH  11  15
HETATM   15  N   UNL     1      56.886  86.264  45.008  1.00  0.00    -0.327 N 
HETATM   16  C   UNL     1      57.232  85.649  46.213  1.00  0.00     0.226 C 
HETATM   17  O   UNL     1      57.568  84.485  46.391  1.00  0.00    -0.273 OA
HETATM   18  H   UNL     1      56.626  87.247  45.055  1.00  0.00     0.169 HD
BRANCH  16  19
HETATM   19  C   UNL     1      57.173  86.561  47.398  1.00  0.00     0.078 A 
HETATM   20  C   UNL     1      58.264  86.479  48.407  1.00  0.00     0.015 A 
HETATM   21  C   UNL     1      56.893  85.965  48.733  1.00  0.00     0.015 A 
ENDBRANCH  16  19
ENDBRANCH  11  15
ENDBRANCH   7   9
ENDBRANCH   3   7
BRANCH   5  22
HETATM   22  N   UNL     1      60.195  84.370  36.214  1.00  0.00    -0.341 N 
HETATM   23  H   UNL     1      60.979  83.956  35.714  1.00  0.00     0.167 HD
BRANCH  22  24
HETATM   24  C   UNL     1      59.534  85.359  35.457  1.00  0.00     0.034 A 
HETATM   25  C   UNL     1      58.239  85.751  35.798  1.00  0.00     0.045 A 
HETATM   26  C   UNL     1      57.587  86.730  35.050  1.00  0.00     0.050 A 
HETATM   27  C   UNL     1      58.228  87.317  33.959  1.00  0.00     0.016 A 
HETATM   28  C   UNL     1      59.522  86.925  33.617  1.00  0.00     0.003 A 
HETATM   29  C   UNL     1      60.175  85.946  34.366  1.00  0.00     0.029 A 
BRANCH  26  30
HETATM   30  C   UNL     1      56.202  87.149  35.415  1.00  0.00     0.417 C 
HETATM   31  F   UNL     1      55.228  86.431  34.783  1.00  0.00    -0.166 F 
HETATM   32  F   UNL     1      55.928  87.027  36.747  1.00  0.00    -0.166 F 
HETATM   33  F   UNL     1      55.951  88.456  35.107  1.00  0.00    -0.166 F 
ENDBRANCH  26  30
ENDBRANCH  22  24
ENDBRANCH   5  22
TORSDOF 7
ENDMDL
MODEL 9
REMARK VINA RESULT:      -6.7      4.659      8.775
REMARK  7 active torsions:
REMARK  status: ('A' for Active; 'I' for Inactive)
REMARK       I    between atoms: N_5  and  C_13 
REMARK    1  A    between atoms: N_5  and  C_14 
REMARK    2  A    between atoms: N_6  and  C_17 
REMARK    3  A    between atoms: N_6  and  C_20 
REMARK    4  A    between atoms: N_7  and  C_21 
REMARK    5  A    between atoms: N_7  and  C_23 
REMARK    6  A    between atoms: C_10  and  C_13 
REMARK    7  A    between atoms: C_24  and  C_29 
ROOT
HETATM    1  N   UNL     1      59.098  85.673  34.412  1.00  0.00    -0.224 NA
HETATM    2  N   UNL     1      57.651  86.281  36.241  1.00  0.00    -0.224 NA
HETATM    3  C   UNL     1      59.206  84.443  34.955  1.00  0.00     0.133 A 
HETATM    4  C   UNL     1      58.575  84.062  36.122  1.00  0.00     0.100 A 
HETATM    5  C   UNL     1      57.799  85.030  36.735  1.00  0.00     0.133 A 
HETATM    6  C   UNL     1      58.318  86.530  35.097  1.00  0.00     0.237 A 
ENDROOT
BRANCH   3   7
HETATM    7  N   UNL     1      60.009  83.476  34.302  1.00  0.00    -0.341 N 
HETATM    8  H   UNL     1      60.997  83.555  34.522  1.00  0.00     0.167 HD
BRANCH   7   9
HETATM    9  C   UNL     1      59.701  82.430  33.417  1.00  0.00     0.035 A 
HETATM   10  C   UNL     1      59.825  81.100  33.829  1.00  0.00     0.059 A 
HETATM   11  C   UNL     1      59.518  80.062  32.950  1.00  0.00     0.036 A 
HETATM   12  C   UNL     1      59.084  80.349  31.655  1.00  0.00     0.029 A 
HETATM   13  C   UNL     1      58.958  81.674  31.240  1.00  0.00     0.004 A 
HETATM   14  C   UNL     1      59.267  82.713  32.119  1.00  0.00     0.029 A 
BRANCH  11  15
HETATM   15  N   UNL     1      59.642  78.735  33.365  1.00  0.00    -0.327 N 
HETATM   16  C   UNL     1      58.631  77.788  33.539  1.00  0.00     0.226 C 
HETATM   17  O   UNL     1      57.429  77.933  33.359  1.00  0.00    -0.273 OA
HETATM   18  H   UNL     1      60.592  78.433  33.571  1.00  0.00     0.169 HD
BRANCH  16  19
HETATM   19  C   UNL     1      59.124  76.452  33.998  1.00  0.00     0.078 A 
HETATM   20  C   UNL     1      60.153  76.411  35.072  1.00  0.00     0.015 A 
HETATM   21  C   UNL     1      60.520  76.062  33.659  1.00  0.00     0.015 A 
ENDBRANCH  16  19
ENDBRANCH  11  15
ENDBRANCH   7   9
ENDBRANCH   3   7
BRANCH   5  22
HETATM   22  N   UNL     1      57.138  84.681  37.928  1.00  0.00    -0.341 N 
HETATM   23  H   UNL     1      56.156  84.457  37.784  1.00  0.00     0.167 HD
BRANCH  22  24
HETATM   24  C   UNL     1      57.452  84.884  39.288  1.00  0.00     0.034 A 
HETATM   25  C   UNL     1      56.488  84.653  40.269  1.00  0.00     0.045 A 
HETATM   26  C   UNL     1      56.800  84.851  41.614  1.00  0.00     0.050 A 
HETATM   27  C   UNL     1      58.076  85.282  41.977  1.00  0.00     0.016 A 
HETATM   28  C   UNL     1      59.040  85.513  40.997  1.00  0.00     0.003 A 
HETATM   29  C   UNL     1      58.728  85.314  39.652  1.00  0.00     0.029 A 
BRANCH  26  30
HETATM   30  C   UNL     1      55.769  84.604  42.664  1.00  0.00     0.417 C 
HETATM   31  F   UNL     1      56.288  84.462  43.918  1.00  0.00    -0.166 F 
HETATM   32  F   UNL     1      54.848  85.607  42.771  1.00  0.00    -0.166 F 
HETATM   33  F   UNL     1      55.048  83.468  42.434  1.00  0.00    -0.166 F 
ENDBRANCH  26  30
ENDBRANCH  22  24
ENDBRANCH   5  22
TORSDOF 7
ENDMDL
