MODEL 1
REMARK VINA RESULT:      -7.2      0.000      0.000
REMARK  7 active torsions:
REMARK  status: ('A' for Active; 'I' for Inactive)
REMARK       I    between atoms: N_5  and  C_13 
REMARK    1  A    between atoms: N_5  and  C_14 
REMARK    2  A    between atoms: N_6  and  C_17 
REMARK    3  A    between atoms: N_6  and  C_20 
REMARK    4  A    between atoms: N_7  and  C_21 
REMARK    5  A    between atoms: N_7  and  C_23 
REMARK    6  A    between atoms: C_10  and  C_13 
REMARK    7  A    between atoms: C_24  and  C_29 
ROOT
HETATM    1  N   UNL     1      60.598  81.841  32.456  1.00  0.00    -0.224 NA
HETATM    2  N   UNL     1      59.556  83.979  32.838  1.00  0.00    -0.224 NA
HETATM    3  C   UNL     1      61.005  81.851  33.743  1.00  0.00     0.133 A 
HETATM    4  C   UNL     1      60.729  82.875  34.626  1.00  0.00     0.100 A 
HETATM    5  C   UNL     1      59.993  83.930  34.118  1.00  0.00     0.133 A 
HETATM    6  C   UNL     1      59.889  82.921  32.076  1.00  0.00     0.237 A 
ENDROOT
BRANCH   3   7
HETATM    7  N   UNL     1      61.758  80.754  34.229  1.00  0.00    -0.341 N 
HETATM    8  H   UNL     1      62.762  80.893  34.164  1.00  0.00     0.167 HD
BRANCH   7   9
HETATM    9  C   UNL     1      61.384  79.520  34.787  1.00  0.00     0.035 A 
HETATM   10  C   UNL     1      60.731  78.563  34.006  1.00  0.00     0.059 A 
HETATM   11  C   UNL     1      60.361  77.338  34.560  1.00  0.00     0.036 A 
HETATM   12  C   UNL     1      60.644  77.065  35.899  1.00  0.00     0.029 A 
HETATM   13  C   UNL     1      61.295  78.017  36.683  1.00  0.00     0.004 A 
HETATM   14  C   UNL     1      61.664  79.242  36.128  1.00  0.00     0.029 A 
BRANCH  11  15
HETATM   15  N   UNL     1      59.710  76.385  33.776  1.00  0.00    -0.327 N 
HETATM   16  C   UNL     1      58.340  76.261  33.532  1.00  0.00     0.226 C 
HETATM   17  O   UNL     1      57.435  76.967  33.957  1.00  0.00    -0.273 OA
HETATM   18  H   UNL     1      60.317  75.696  33.337  1.00  0.00     0.169 HD
BRANCH  16  19
HETATM   19  C   UNL     1      57.987  75.115  32.636  1.00  0.00     0.078 A 
HETATM   20  C   UNL     1      59.065  74.504  31.812  1.00  0.00     0.015 A 
HETATM   21  C   UNL     1      58.000  75.340  31.165  1.00  0.00     0.015 A 
ENDBRANCH  16  19
ENDBRANCH  11  15
ENDBRANCH   7   9
ENDBRANCH   3   7
BRANCH   5  22
HETATM   22  N   UNL     1      59.690  84.995  34.988  1.00  0.00    -0.341 N 
HETATM   23  H   UNL     1      60.363  85.090  35.745  1.00  0.00     0.167 HD
BRANCH  22  24
HETATM   24  C   UNL     1      58.512  85.736  35.216  1.00  0.00     0.034 A 
HETATM   25  C   UNL     1      57.570  85.284  36.140  1.00  0.00     0.045 A 
HETATM   26  C   UNL     1      56.407  86.018  36.367  1.00  0.00     0.050 A 
HETATM   27  C   UNL     1      56.184  87.205  35.668  1.00  0.00     0.016 A 
HETATM   28  C   UNL     1      57.124  87.657  34.744  1.00  0.00     0.003 A 
HETATM   29  C   UNL     1      58.289  86.923  34.518  1.00  0.00     0.029 A 
BRANCH  26  30
HETATM   30  C   UNL     1      55.399  85.534  37.355  1.00  0.00     0.417 C 
HETATM   31  F   UNL     1      54.139  85.422  36.842  1.00  0.00    -0.166 F 
HETATM   32  F   UNL     1      55.686  84.302  37.869  1.00  0.00    -0.166 F 
HETATM   33  F   UNL     1      55.283  86.363  38.434  1.00  0.00    -0.166 F 
ENDBRANCH  26  30
ENDBRANCH  22  24
ENDBRANCH   5  22
TORSDOF 7
ENDMDL
MODEL 2
REMARK VINA RESULT:      -7.1      2.891      4.303
REMARK  7 active torsions:
REMARK  status: ('A' for Active; 'I' for Inactive)
REMARK       I    between atoms: N_5  and  C_13 
REMARK    1  A    between atoms: N_5  and  C_14 
REMARK    2  A    between atoms: N_6  and  C_17 
REMARK    3  A    between atoms: N_6  and  C_20 
REMARK    4  A    between atoms: N_7  and  C_21 
REMARK    5  A    between atoms: N_7  and  C_23 
REMARK    6  A    between atoms: C_10  and  C_13 
REMARK    7  A    between atoms: C_24  and  C_29 
ROOT
HETATM    1  N   UNL     1      59.455  85.452  34.220  1.00  0.00    -0.224 NA
HETATM    2  N   UNL     1      58.000  86.294  35.947  1.00  0.00    -0.224 NA
HETATM    3  C   UNL     1      59.378  84.236  34.800  1.00  0.00     0.133 A 
HETATM    4  C   UNL     1      58.643  83.975  35.939  1.00  0.00     0.100 A 
HETATM    5  C   UNL     1      57.964  85.051  36.481  1.00  0.00     0.133 A 
HETATM    6  C   UNL     1      58.752  86.421  34.837  1.00  0.00     0.237 A 
ENDROOT
BRANCH   3   7
HETATM    7  N   UNL     1      60.088  83.157  34.219  1.00  0.00    -0.341 N 
HETATM    8  H   UNL     1      61.052  83.090  34.533  1.00  0.00     0.167 HD
BRANCH   7   9
HETATM    9  C   UNL     1      59.714  82.162  33.301  1.00  0.00     0.035 A 
HETATM   10  C   UNL     1      59.669  80.821  33.694  1.00  0.00     0.059 A 
HETATM   11  C   UNL     1      59.296  79.835  32.782  1.00  0.00     0.036 A 
HETATM   12  C   UNL     1      58.966  80.183  31.473  1.00  0.00     0.029 A 
HETATM   13  C   UNL     1      59.008  81.519  31.075  1.00  0.00     0.004 A 
HETATM   14  C   UNL     1      59.382  82.507  31.988  1.00  0.00     0.029 A 
BRANCH  11  15
HETATM   15  N   UNL     1      59.253  78.497  33.180  1.00  0.00    -0.327 N 
HETATM   16  C   UNL     1      58.130  77.728  33.492  1.00  0.00     0.226 C 
HETATM   17  O   UNL     1      56.956  78.074  33.478  1.00  0.00    -0.273 OA
HETATM   18  H   UNL     1      60.157  78.037  33.254  1.00  0.00     0.169 HD
BRANCH  16  19
HETATM   19  C   UNL     1      58.451  76.319  33.883  1.00  0.00     0.078 A 
HETATM   20  C   UNL     1      59.213  75.477  32.922  1.00  0.00     0.015 A 
HETATM   21  C   UNL     1      57.757  75.214  33.166  1.00  0.00     0.015 A 
ENDBRANCH  16  19
ENDBRANCH  11  15
ENDBRANCH   7   9
ENDBRANCH   3   7
BRANCH   5  22
HETATM   22  N   UNL     1      57.201  84.826  37.643  1.00  0.00    -0.341 N 
HETATM   23  H   UNL     1      56.199  84.870  37.472  1.00  0.00     0.167 HD
BRANCH  22  24
HETATM   24  C   UNL     1      57.518  84.873  39.016  1.00  0.00     0.034 A 
HETATM   25  C   UNL     1      56.505  84.777  39.970  1.00  0.00     0.045 A 
HETATM   26  C   UNL     1      56.819  84.822  41.328  1.00  0.00     0.050 A 
HETATM   27  C   UNL     1      58.146  84.964  41.733  1.00  0.00     0.016 A 
HETATM   28  C   UNL     1      59.159  85.060  40.780  1.00  0.00     0.003 A 
HETATM   29  C   UNL     1      58.845  85.015  39.421  1.00  0.00     0.029 A 
BRANCH  26  30
HETATM   30  C   UNL     1      55.735  84.719  42.349  1.00  0.00     0.417 C 
HETATM   31  F   UNL     1      55.110  83.506  42.363  1.00  0.00    -0.166 F 
HETATM   32  F   UNL     1      56.171  84.910  43.629  1.00  0.00    -0.166 F 
HETATM   33  F   UNL     1      54.745  85.639  42.158  1.00  0.00    -0.166 F 
ENDBRANCH  26  30
ENDBRANCH  22  24
ENDBRANCH   5  22
TORSDOF 7
ENDMDL
MODEL 3
REMARK VINA RESULT:      -7.1      7.980     12.594
REMARK  7 active torsions:
REMARK  status: ('A' for Active; 'I' for Inactive)
REMARK       I    between atoms: N_5  and  C_13 
REMARK    1  A    between atoms: N_5  and  C_14 
REMARK    2  A    between atoms: N_6  and  C_17 
REMARK    3  A    between atoms: N_6  and  C_20 
REMARK    4  A    between atoms: N_7  and  C_21 
REMARK    5  A    between atoms: N_7  and  C_23 
REMARK    6  A    between atoms: C_10  and  C_13 
REMARK    7  A    between atoms: C_24  and  C_29 
ROOT
HETATM    1  N   UNL     1      56.207  84.510  43.385  1.00  0.00    -0.224 NA
HETATM    2  N   UNL     1      56.006  84.911  41.017  1.00  0.00    -0.224 NA
HETATM    3  C   UNL     1      57.246  85.371  43.404  1.00  0.00     0.133 A 
HETATM    4  C   UNL     1      57.715  86.032  42.287  1.00  0.00     0.100 A 
HETATM    5  C   UNL     1      57.053  85.763  41.103  1.00  0.00     0.133 A 
HETATM    6  C   UNL     1      55.643  84.328  42.176  1.00  0.00     0.237 A 
ENDROOT
BRANCH   3   7
HETATM    7  N   UNL     1      57.901  85.622  44.635  1.00  0.00    -0.341 N 
HETATM    8  H   UNL     1      58.657  84.971  44.831  1.00  0.00     0.167 HD
BRANCH   7   9
HETATM    9  C   UNL     1      57.713  86.597  45.628  1.00  0.00     0.035 A 
HETATM   10  C   UNL     1      57.810  87.954  45.309  1.00  0.00     0.059 A 
HETATM   11  C   UNL     1      57.621  88.922  46.295  1.00  0.00     0.036 A 
HETATM   12  C   UNL     1      57.334  88.537  47.605  1.00  0.00     0.029 A 
HETATM   13  C   UNL     1      57.236  87.183  47.928  1.00  0.00     0.004 A 
HETATM   14  C   UNL     1      57.426  86.216  46.941  1.00  0.00     0.029 A 
BRANCH  11  15
HETATM   15  N   UNL     1      57.718  90.276  45.972  1.00  0.00    -0.327 N 
HETATM   16  C   UNL     1      56.714  91.123  45.498  1.00  0.00     0.226 C 
HETATM   17  O   UNL     1      55.544  90.845  45.271  1.00  0.00    -0.273 OA
HETATM   18  H   UNL     1      58.642  90.686  46.096  1.00  0.00     0.169 HD
BRANCH  16  19
HETATM   19  C   UNL     1      57.171  92.527  45.255  1.00  0.00     0.078 A 
HETATM   20  C   UNL     1      56.715  93.213  44.015  1.00  0.00     0.015 A 
HETATM   21  C   UNL     1      58.142  92.772  44.153  1.00  0.00     0.015 A 
ENDBRANCH  16  19
ENDBRANCH  11  15
ENDBRANCH   7   9
ENDBRANCH   3   7
BRANCH   5  22
HETATM   22  N   UNL     1      57.501  86.418  39.939  1.00  0.00    -0.341 N 
HETATM   23  H   UNL     1      57.503  87.431  40.032  1.00  0.00     0.167 HD
BRANCH  22  24
HETATM   24  C   UNL     1      57.635  85.999  38.600  1.00  0.00     0.034 A 
HETATM   25  C   UNL     1      57.004  86.708  37.578  1.00  0.00     0.045 A 
HETATM   26  C   UNL     1      57.139  86.294  36.254  1.00  0.00     0.050 A 
HETATM   27  C   UNL     1      57.905  85.169  35.950  1.00  0.00     0.016 A 
HETATM   28  C   UNL     1      58.537  84.458  36.970  1.00  0.00     0.003 A 
HETATM   29  C   UNL     1      58.402  84.874  38.296  1.00  0.00     0.029 A 
BRANCH  26  30
HETATM   30  C   UNL     1      56.463  87.053  35.162  1.00  0.00     0.417 C 
HETATM   31  F   UNL     1      56.145  88.336  35.502  1.00  0.00    -0.166 F 
HETATM   32  F   UNL     1      57.214  87.161  34.026  1.00  0.00    -0.166 F 
HETATM   33  F   UNL     1      55.289  86.476  34.770  1.00  0.00    -0.166 F 
ENDBRANCH  26  30
ENDBRANCH  22  24
ENDBRANCH   5  22
TORSDOF 7
ENDMDL
MODEL 4
REMARK VINA RESULT:      -7.0      4.417      9.359
REMARK  7 active torsions:
REMARK  status: ('A' for Active; 'I' for Inactive)
REMARK       I    between atoms: N_5  and  C_13 
REMARK    1  A    between atoms: N_5  and  C_14 
REMARK    2  A    between atoms: N_6  and  C_17 
REMARK    3  A    between atoms: N_6  and  C_20 
REMARK    4  A    between atoms: N_7  and  C_21 
REMARK    5  A    between atoms: N_7  and  C_23 
REMARK    6  A    between atoms: C_10  and  C_13 
REMARK    7  A    between atoms: C_24  and  C_29 
ROOT
HETATM    1  N   UNL     1      60.586  84.417  35.720  1.00  0.00    -0.224 NA
HETATM    2  N   UNL     1      61.832  82.539  34.867  1.00  0.00    -0.224 NA
HETATM    3  C   UNL     1      59.455  83.802  35.317  1.00  0.00     0.133 A 
HETATM    4  C   UNL     1      59.432  82.572  34.692  1.00  0.00     0.100 A 
HETATM    5  C   UNL     1      60.662  81.974  34.487  1.00  0.00     0.133 A 
HETATM    6  C   UNL     1      61.722  83.740  35.466  1.00  0.00     0.237 A 
ENDROOT
BRANCH   3   7
HETATM    7  N   UNL     1      58.212  84.444  35.542  1.00  0.00    -0.341 N 
HETATM    8  H   UNL     1      57.505  84.210  34.851  1.00  0.00     0.167 HD
BRANCH   7   9
HETATM    9  C   UNL     1      57.770  85.331  36.537  1.00  0.00     0.035 A 
HETATM   10  C   UNL     1      57.167  84.843  37.699  1.00  0.00     0.059 A 
HETATM   11  C   UNL     1      56.730  85.724  38.687  1.00  0.00     0.036 A 
HETATM   12  C   UNL     1      56.894  87.100  38.517  1.00  0.00     0.029 A 
HETATM   13  C   UNL     1      57.496  87.592  37.360  1.00  0.00     0.004 A 
HETATM   14  C   UNL     1      57.932  86.709  36.371  1.00  0.00     0.029 A 
BRANCH  11  15
HETATM   15  N   UNL     1      56.128  85.232  39.846  1.00  0.00    -0.327 N 
HETATM   16  C   UNL     1      56.748  84.780  41.013  1.00  0.00     0.226 C 
HETATM   17  O   UNL     1      57.948  84.727  41.253  1.00  0.00    -0.273 OA
HETATM   18  H   UNL     1      55.111  85.196  39.825  1.00  0.00     0.169 HD
BRANCH  16  19
HETATM   19  C   UNL     1      55.792  84.318  42.068  1.00  0.00     0.078 A 
HETATM   20  C   UNL     1      55.037  85.346  42.835  1.00  0.00     0.015 A 
HETATM   21  C   UNL     1      56.139  84.569  43.493  1.00  0.00     0.015 A 
ENDBRANCH  16  19
ENDBRANCH  11  15
ENDBRANCH   7   9
ENDBRANCH   3   7
BRANCH   5  22
HETATM   22  N   UNL     1      60.682  80.718  33.852  1.00  0.00    -0.341 N 
HETATM   23  H   UNL     1      60.560  80.782  32.844  1.00  0.00     0.167 HD
BRANCH  22  24
HETATM   24  C   UNL     1      60.514  79.402  34.333  1.00  0.00     0.034 A 
HETATM   25  C   UNL     1      59.561  78.564  33.756  1.00  0.00     0.045 A 
HETATM   26  C   UNL     1      59.397  77.263  34.231  1.00  0.00     0.050 A 
HETATM   27  C   UNL     1      60.187  76.800  35.283  1.00  0.00     0.016 A 
HETATM   28  C   UNL     1      61.140  77.638  35.861  1.00  0.00     0.003 A 
HETATM   29  C   UNL     1      61.304  78.940  35.386  1.00  0.00     0.029 A 
BRANCH  26  30
HETATM   30  C   UNL     1      58.377  76.366  33.614  1.00  0.00     0.417 C 
HETATM   31  F   UNL     1      58.412  76.354  32.249  1.00  0.00    -0.166 F 
HETATM   32  F   UNL     1      58.504  75.058  33.985  1.00  0.00    -0.166 F 
HETATM   33  F   UNL     1      57.100  76.718  33.945  1.00  0.00    -0.166 F 
ENDBRANCH  26  30
ENDBRANCH  22  24
ENDBRANCH   5  22
TORSDOF 7
ENDMDL
MODEL 5
REMARK VINA RESULT:      -7.0      3.955      9.257
REMARK  7 active torsions:
REMARK  status: ('A' for Active; 'I' for Inactive)
REMARK       I    between atoms: N_5  and  C_13 
REMARK    1  A    between atoms: N_5  and  C_14 
REMARK    2  A    between atoms: N_6  and  C_17 
REMARK    3  A    between atoms: N_6  and  C_20 
REMARK    4  A    between atoms: N_7  and  C_21 
REMARK    5  A    between atoms: N_7  and  C_23 
REMARK    6  A    between atoms: C_10  and  C_13 
REMARK    7  A    between atoms: C_24  and  C_29 
ROOT
HETATM    1  N   UNL     1      59.462  82.936  31.992  1.00  0.00    -0.224 NA
HETATM    2  N   UNL     1      59.600  80.552  32.315  1.00  0.00    -0.224 NA
HETATM    3  C   UNL     1      60.059  83.095  33.192  1.00  0.00     0.133 A 
HETATM    4  C   UNL     1      60.451  82.046  33.999  1.00  0.00     0.100 A 
HETATM    5  C   UNL     1      60.195  80.778  33.509  1.00  0.00     0.133 A 
HETATM    6  C   UNL     1      59.265  81.656  31.622  1.00  0.00     0.237 A 
ENDROOT
BRANCH   3   7
HETATM    7  N   UNL     1      60.306  84.408  33.663  1.00  0.00    -0.341 N 
HETATM    8  H   UNL     1      61.294  84.632  33.739  1.00  0.00     0.167 HD
BRANCH   7   9
HETATM    9  C   UNL     1      59.449  85.457  34.036  1.00  0.00     0.035 A 
HETATM   10  C   UNL     1      58.717  85.380  35.224  1.00  0.00     0.059 A 
HETATM   11  C   UNL     1      57.869  86.423  35.594  1.00  0.00     0.036 A 
HETATM   12  C   UNL     1      57.748  87.548  34.778  1.00  0.00     0.029 A 
HETATM   13  C   UNL     1      58.477  87.630  33.591  1.00  0.00     0.004 A 
HETATM   14  C   UNL     1      59.326  86.586  33.221  1.00  0.00     0.029 A 
BRANCH  11  15
HETATM   15  N   UNL     1      57.140  86.342  36.781  1.00  0.00    -0.327 N 
HETATM   16  C   UNL     1      55.845  85.851  36.966  1.00  0.00     0.226 C 
HETATM   17  O   UNL     1      55.090  85.391  36.119  1.00  0.00    -0.273 OA
HETATM   18  H   UNL     1      57.618  86.692  37.608  1.00  0.00     0.169 HD
BRANCH  16  19
HETATM   19  C   UNL     1      55.370  85.914  38.384  1.00  0.00     0.078 A 
HETATM   20  C   UNL     1      56.210  86.635  39.378  1.00  0.00     0.015 A 
HETATM   21  C   UNL     1      56.116  85.138  39.412  1.00  0.00     0.015 A 
ENDBRANCH  16  19
ENDBRANCH  11  15
ENDBRANCH   7   9
ENDBRANCH   3   7
BRANCH   5  22
HETATM   22  N   UNL     1      60.580  79.680  34.302  1.00  0.00    -0.341 N 
HETATM   23  H   UNL     1      61.141  79.951  35.106  1.00  0.00     0.167 HD
BRANCH  22  24
HETATM   24  C   UNL     1      60.627  78.292  34.053  1.00  0.00     0.034 A 
HETATM   25  C   UNL     1      59.444  77.565  33.920  1.00  0.00     0.045 A 
HETATM   26  C   UNL     1      59.493  76.194  33.673  1.00  0.00     0.050 A 
HETATM   27  C   UNL     1      60.724  75.549  33.558  1.00  0.00     0.016 A 
HETATM   28  C   UNL     1      61.907  76.275  33.691  1.00  0.00     0.003 A 
HETATM   29  C   UNL     1      61.859  77.647  33.939  1.00  0.00     0.029 A 
BRANCH  26  30
HETATM   30  C   UNL     1      58.227  75.416  33.530  1.00  0.00     0.417 C 
HETATM   31  F   UNL     1      57.892  75.148  32.234  1.00  0.00    -0.166 F 
HETATM   32  F   UNL     1      58.263  74.199  34.149  1.00  0.00    -0.166 F 
HETATM   33  F   UNL     1      57.149  76.065  34.061  1.00  0.00    -0.166 F 
ENDBRANCH  26  30
ENDBRANCH  22  24
ENDBRANCH   5  22
TORSDOF 7
ENDMDL
MODEL 6
REMARK VINA RESULT:      -7.0      1.735      2.480
REMARK  7 active torsions:
REMARK  status: ('A' for Active; 'I' for Inactive)
REMARK       I    between atoms: N_5  and  C_13 
REMARK    1  A    between atoms: N_5  and  C_14 
REMARK    2  A    between atoms: N_6  and  C_17 
REMARK    3  A    between atoms: N_6  and  C_20 
REMARK    4  A    between atoms: N_7  and  C_21 
REMARK    5  A    between atoms: N_7  and  C_23 
REMARK    6  A    between atoms: C_10  and  C_13 
REMARK    7  A    between atoms: C_24  and  C_29 
ROOT
HETATM    1  N   UNL     1      61.496  83.663  31.994  1.00  0.00    -0.224 NA
HETATM    2  N   UNL     1      60.811  85.726  33.034  1.00  0.00    -0.224 NA
HETATM    3  C   UNL     1      61.005  83.004  33.064  1.00  0.00     0.133 A 
HETATM    4  C   UNL     1      60.410  83.627  34.142  1.00  0.00     0.100 A 
HETATM    5  C   UNL     1      60.337  85.007  34.078  1.00  0.00     0.133 A 
HETATM    6  C   UNL     1      61.369  85.003  32.045  1.00  0.00     0.237 A 
ENDROOT
BRANCH   3   7
HETATM    7  N   UNL     1      61.097  81.591  33.096  1.00  0.00    -0.341 N 
HETATM    8  H   UNL     1      62.052  81.248  33.144  1.00  0.00     0.167 HD
BRANCH   7   9
HETATM    9  C   UNL     1      60.125  80.577  33.083  1.00  0.00     0.035 A 
HETATM   10  C   UNL     1      60.492  79.246  33.300  1.00  0.00     0.059 A 
HETATM   11  C   UNL     1      59.526  78.241  33.287  1.00  0.00     0.036 A 
HETATM   12  C   UNL     1      58.187  78.561  33.058  1.00  0.00     0.029 A 
HETATM   13  C   UNL     1      57.816  79.888  32.841  1.00  0.00     0.004 A 
HETATM   14  C   UNL     1      58.783  80.894  32.853  1.00  0.00     0.029 A 
BRANCH  11  15
HETATM   15  N   UNL     1      59.897  76.913  33.505  1.00  0.00    -0.327 N 
HETATM   16  C   UNL     1      60.195  76.290  34.719  1.00  0.00     0.226 C 
HETATM   17  O   UNL     1      60.189  76.786  35.838  1.00  0.00    -0.273 OA
HETATM   18  H   UNL     1      59.961  76.338  32.668  1.00  0.00     0.169 HD
BRANCH  16  19
HETATM   19  C   UNL     1      60.557  74.844  34.585  1.00  0.00     0.078 A 
HETATM   20  C   UNL     1      61.790  74.360  35.263  1.00  0.00     0.015 A 
HETATM   21  C   UNL     1      61.750  74.490  33.768  1.00  0.00     0.015 A 
ENDBRANCH  16  19
ENDBRANCH  11  15
ENDBRANCH   7   9
ENDBRANCH   3   7
BRANCH   5  22
HETATM   22  N   UNL     1      59.737  85.682  35.159  1.00  0.00    -0.341 N 
HETATM   23  H   UNL     1      60.237  85.548  36.035  1.00  0.00     0.167 HD
BRANCH  22  24
HETATM   24  C   UNL     1      58.448  86.222  35.350  1.00  0.00     0.034 A 
HETATM   25  C   UNL     1      57.567  85.625  36.253  1.00  0.00     0.045 A 
HETATM   26  C   UNL     1      56.294  86.161  36.442  1.00  0.00     0.050 A 
HETATM   27  C   UNL     1      55.900  87.293  35.729  1.00  0.00     0.016 A 
HETATM   28  C   UNL     1      56.780  87.889  34.825  1.00  0.00     0.003 A 
HETATM   29  C   UNL     1      58.054  87.354  34.636  1.00  0.00     0.029 A 
BRANCH  26  30
HETATM   30  C   UNL     1      55.352  85.524  37.408  1.00  0.00     0.417 C 
HETATM   31  F   UNL     1      55.297  86.155  38.617  1.00  0.00    -0.166 F 
HETATM   32  F   UNL     1      54.061  85.486  36.966  1.00  0.00    -0.166 F 
HETATM   33  F   UNL     1      55.682  84.228  37.686  1.00  0.00    -0.166 F 
ENDBRANCH  26  30
ENDBRANCH  22  24
ENDBRANCH   5  22
TORSDOF 7
ENDMDL
MODEL 7
REMARK VINA RESULT:      -7.0      2.192      3.707
REMARK  7 active torsions:
REMARK  status: ('A' for Active; 'I' for Inactive)
REMARK       I    between atoms: N_5  and  C_13 
REMARK    1  A    between atoms: N_5  and  C_14 
REMARK    2  A    between atoms: N_6  and  C_17 
REMARK    3  A    between atoms: N_6  and  C_20 
REMARK    4  A    between atoms: N_7  and  C_21 
REMARK    5  A    between atoms: N_7  and  C_23 
REMARK    6  A    between atoms: C_10  and  C_13 
REMARK    7  A    between atoms: C_24  and  C_29 
ROOT
HETATM    1  N   UNL     1      60.537  85.893  32.378  1.00  0.00    -0.224 NA
HETATM    2  N   UNL     1      59.312  87.749  33.306  1.00  0.00    -0.224 NA
HETATM    3  C   UNL     1      60.032  85.117  33.360  1.00  0.00     0.133 A 
HETATM    4  C   UNL     1      59.174  85.579  34.337  1.00  0.00     0.100 A 
HETATM    5  C   UNL     1      58.840  86.919  34.265  1.00  0.00     0.133 A 
HETATM    6  C   UNL     1      60.141  87.180  32.411  1.00  0.00     0.237 A 
ENDROOT
BRANCH   3   7
HETATM    7  N   UNL     1      60.396  83.749  33.404  1.00  0.00    -0.341 N 
HETATM    8  H   UNL     1      61.280  83.580  33.876  1.00  0.00     0.167 HD
BRANCH   7   9
HETATM    9  C   UNL     1      59.769  82.586  32.928  1.00  0.00     0.035 A 
HETATM   10  C   UNL     1      59.836  81.399  33.663  1.00  0.00     0.059 A 
HETATM   11  C   UNL     1      59.211  80.245  33.190  1.00  0.00     0.036 A 
HETATM   12  C   UNL     1      58.516  80.273  31.981  1.00  0.00     0.029 A 
HETATM   13  C   UNL     1      58.446  81.455  31.244  1.00  0.00     0.004 A 
HETATM   14  C   UNL     1      59.072  82.609  31.717  1.00  0.00     0.029 A 
BRANCH  11  15
HETATM   15  N   UNL     1      59.280  79.062  33.928  1.00  0.00    -0.327 N 
HETATM   16  C   UNL     1      60.066  77.935  33.677  1.00  0.00     0.226 C 
HETATM   17  O   UNL     1      60.855  77.761  32.757  1.00  0.00    -0.273 OA
HETATM   18  H   UNL     1      58.674  79.025  34.745  1.00  0.00     0.169 HD
BRANCH  16  19
HETATM   19  C   UNL     1      59.889  76.838  34.680  1.00  0.00     0.078 A 
HETATM   20  C   UNL     1      60.680  76.899  35.938  1.00  0.00     0.015 A 
HETATM   21  C   UNL     1      61.013  75.884  34.885  1.00  0.00     0.015 A 
ENDBRANCH  16  19
ENDBRANCH  11  15
ENDBRANCH   7   9
ENDBRANCH   3   7
BRANCH   5  22
HETATM   22  N   UNL     1      57.965  87.430  35.244  1.00  0.00    -0.341 N 
HETATM   23  H   UNL     1      58.263  88.332  35.608  1.00  0.00     0.167 HD
BRANCH  22  24
HETATM   24  C   UNL     1      56.968  86.829  36.040  1.00  0.00     0.034 A 
HETATM   25  C   UNL     1      57.193  86.619  37.401  1.00  0.00     0.045 A 
HETATM   26  C   UNL     1      56.206  86.027  38.187  1.00  0.00     0.050 A 
HETATM   27  C   UNL     1      54.993  85.644  37.614  1.00  0.00     0.016 A 
HETATM   28  C   UNL     1      54.768  85.853  36.253  1.00  0.00     0.003 A 
HETATM   29  C   UNL     1      55.756  86.446  35.466  1.00  0.00     0.029 A 
BRANCH  26  30
HETATM   30  C   UNL     1      56.446  85.802  39.642  1.00  0.00     0.417 C 
HETATM   31  F   UNL     1      55.305  85.805  40.393  1.00  0.00    -0.166 F 
HETATM   32  F   UNL     1      57.050  84.608  39.918  1.00  0.00    -0.166 F 
HETATM   33  F   UNL     1      57.251  86.756  40.195  1.00  0.00    -0.166 F 
ENDBRANCH  26  30
ENDBRANCH  22  24
ENDBRANCH   5  22
TORSDOF 7
ENDMDL
MODEL 8
REMARK VINA RESULT:      -6.9      3.769      6.684
REMARK  7 active torsions:
REMARK  status: ('A' for Active; 'I' for Inactive)
REMARK       I    between atoms: N_5  and  C_13 
REMARK    1  A    between atoms: N_5  and  C_14 
REMARK    2  A    between atoms: N_6  and  C_17 
REMARK    3  A    between atoms: N_6  and  C_20 
REMARK    4  A    between atoms: N_7  and  C_21 
REMARK    5  A    between atoms: N_7  and  C_23 
REMARK    6  A    between atoms: C_10  and  C_13 
REMARK    7  A    between atoms: C_24  and  C_29 
ROOT
HETATM    1  N   UNL     1      55.939  86.550  35.249  1.00  0.00    -0.224 NA
HETATM    2  N   UNL     1      54.896  85.289  37.018  1.00  0.00    -0.224 NA
HETATM    3  C   UNL     1      57.134  86.287  35.816  1.00  0.00     0.133 A 
HETATM    4  C   UNL     1      57.289  85.542  36.968  1.00  0.00     0.100 A 
HETATM    5  C   UNL     1      56.124  85.060  37.538  1.00  0.00     0.133 A 
HETATM    6  C   UNL     1      54.877  86.029  35.893  1.00  0.00     0.237 A 
ENDROOT
BRANCH   3   7
HETATM    7  N   UNL     1      58.306  86.797  35.206  1.00  0.00    -0.341 N 
HETATM    8  H   UNL     1      58.619  87.678  35.605  1.00  0.00     0.167 HD
BRANCH   7   9
HETATM    9  C   UNL     1      59.119  86.318  34.165  1.00  0.00     0.035 A 
HETATM   10  C   UNL     1      59.374  84.949  34.044  1.00  0.00     0.059 A 
HETATM   11  C   UNL     1      60.179  84.475  33.010  1.00  0.00     0.036 A 
HETATM   12  C   UNL     1      60.733  85.366  32.091  1.00  0.00     0.029 A 
HETATM   13  C   UNL     1      60.481  86.733  32.207  1.00  0.00     0.004 A 
HETATM   14  C   UNL     1      59.676  87.208  33.243  1.00  0.00     0.029 A 
BRANCH  11  15
HETATM   15  N   UNL     1      60.431  83.107  32.892  1.00  0.00    -0.327 N 
HETATM   16  C   UNL     1      59.740  82.167  32.124  1.00  0.00     0.226 C 
HETATM   17  O   UNL     1      58.773  82.356  31.398  1.00  0.00    -0.273 OA
HETATM   18  H   UNL     1      61.214  82.761  33.443  1.00  0.00     0.169 HD
BRANCH  16  19
HETATM   19  C   UNL     1      60.285  80.777  32.234  1.00  0.00     0.078 A 
HETATM   20  C   UNL     1      59.355  79.684  32.627  1.00  0.00     0.015 A 
HETATM   21  C   UNL     1      60.399  80.170  33.589  1.00  0.00     0.015 A 
ENDBRANCH  16  19
ENDBRANCH  11  15
ENDBRANCH   7   9
ENDBRANCH   3   7
BRANCH   5  22
HETATM   22  N   UNL     1      56.239  84.295  38.714  1.00  0.00    -0.341 N 
HETATM   23  H   UNL     1      55.531  83.568  38.783  1.00  0.00     0.167 HD
BRANCH  22  24
HETATM   24  C   UNL     1      56.904  84.519  39.938  1.00  0.00     0.034 A 
HETATM   25  C   UNL     1      56.168  84.748  41.101  1.00  0.00     0.045 A 
HETATM   26  C   UNL     1      56.825  84.968  42.310  1.00  0.00     0.050 A 
HETATM   27  C   UNL     1      58.220  84.959  42.358  1.00  0.00     0.016 A 
HETATM   28  C   UNL     1      58.956  84.731  41.196  1.00  0.00     0.003 A 
HETATM   29  C   UNL     1      58.298  84.511  39.985  1.00  0.00     0.029 A 
BRANCH  26  30
HETATM   30  C   UNL     1      56.039  85.213  43.554  1.00  0.00     0.417 C 
HETATM   31  F   UNL     1      56.056  84.164  44.428  1.00  0.00    -0.166 F 
HETATM   32  F   UNL     1      56.478  86.285  44.276  1.00  0.00    -0.166 F 
HETATM   33  F   UNL     1      54.719  85.457  43.301  1.00  0.00    -0.166 F 
ENDBRANCH  26  30
ENDBRANCH  22  24
ENDBRANCH   5  22
TORSDOF 7
ENDMDL
MODEL 9
REMARK VINA RESULT:      -6.7      7.547     10.702
REMARK  7 active torsions:
REMARK  status: ('A' for Active; 'I' for Inactive)
REMARK       I    between atoms: N_5  and  C_13 
REMARK    1  A    between atoms: N_5  and  C_14 
REMARK    2  A    between atoms: N_6  and  C_17 
REMARK    3  A    between atoms: N_6  and  C_20 
REMARK    4  A    between atoms: N_7  and  C_21 
REMARK    5  A    between atoms: N_7  and  C_23 
REMARK    6  A    between atoms: C_10  and  C_13 
REMARK    7  A    between atoms: C_24  and  C_29 
ROOT
HETATM    1  N   UNL     1      55.969  84.369  41.384  1.00  0.00    -0.224 NA
HETATM    2  N   UNL     1      56.297  85.037  43.676  1.00  0.00    -0.224 NA
HETATM    3  C   UNL     1      57.119  85.001  41.073  1.00  0.00     0.133 A 
HETATM    4  C   UNL     1      57.903  85.663  41.996  1.00  0.00     0.100 A 
HETATM    5  C   UNL     1      57.442  85.653  43.300  1.00  0.00     0.133 A 
HETATM    6  C   UNL     1      55.621  84.427  42.684  1.00  0.00     0.237 A 
ENDROOT
BRANCH   3   7
HETATM    7  N   UNL     1      57.561  84.992  39.728  1.00  0.00    -0.341 N 
HETATM    8  H   UNL     1      58.525  84.690  39.620  1.00  0.00     0.167 HD
BRANCH   7   9
HETATM    9  C   UNL     1      56.922  85.313  38.518  1.00  0.00     0.035 A 
HETATM   10  C   UNL     1      57.677  85.655  37.393  1.00  0.00     0.059 A 
HETATM   11  C   UNL     1      57.042  85.972  36.193  1.00  0.00     0.036 A 
HETATM   12  C   UNL     1      55.649  85.949  36.112  1.00  0.00     0.029 A 
HETATM   13  C   UNL     1      54.892  85.609  37.232  1.00  0.00     0.004 A 
HETATM   14  C   UNL     1      55.527  85.292  38.434  1.00  0.00     0.029 A 
BRANCH  11  15
HETATM   15  N   UNL     1      57.799  86.312  35.071  1.00  0.00    -0.327 N 
HETATM   16  C   UNL     1      57.748  87.490  34.321  1.00  0.00     0.226 C 
HETATM   17  O   UNL     1      57.027  88.463  34.501  1.00  0.00    -0.273 OA
HETATM   18  H   UNL     1      58.464  85.605  34.766  1.00  0.00     0.169 HD
BRANCH  16  19
HETATM   19  C   UNL     1      58.710  87.520  33.174  1.00  0.00     0.078 A 
HETATM   20  C   UNL     1      59.599  86.345  32.968  1.00  0.00     0.015 A 
HETATM   21  C   UNL     1      60.162  87.640  33.475  1.00  0.00     0.015 A 
ENDBRANCH  16  19
ENDBRANCH  11  15
ENDBRANCH   7   9
ENDBRANCH   3   7
BRANCH   5  22
HETATM   22  N   UNL     1      58.214  86.318  44.273  1.00  0.00    -0.341 N 
HETATM   23  H   UNL     1      59.164  85.960  44.336  1.00  0.00     0.167 HD
BRANCH  22  24
HETATM   24  C   UNL     1      57.870  87.131  45.372  1.00  0.00     0.034 A 
HETATM   25  C   UNL     1      57.626  86.555  46.619  1.00  0.00     0.045 A 
HETATM   26  C   UNL     1      57.287  87.360  47.705  1.00  0.00     0.050 A 
HETATM   27  C   UNL     1      57.192  88.742  47.546  1.00  0.00     0.016 A 
HETATM   28  C   UNL     1      57.435  89.320  46.300  1.00  0.00     0.003 A 
HETATM   29  C   UNL     1      57.774  88.514  45.213  1.00  0.00     0.029 A 
BRANCH  26  30
HETATM   30  C   UNL     1      57.026  86.743  49.039  1.00  0.00     0.417 C 
HETATM   31  F   UNL     1      58.161  86.460  49.743  1.00  0.00    -0.166 F 
HETATM   32  F   UNL     1      56.280  87.531  49.868  1.00  0.00    -0.166 F 
HETATM   33  F   UNL     1      56.348  85.562  48.947  1.00  0.00    -0.166 F 
ENDBRANCH  26  30
ENDBRANCH  22  24
ENDBRANCH   5  22
TORSDOF 7
ENDMDL
