MODEL 1
REMARK VINA RESULT:      -7.5      0.000      0.000
REMARK  7 active torsions:
REMARK  status: ('A' for Active; 'I' for Inactive)
REMARK       I    between atoms: N_5  and  C_13 
REMARK    1  A    between atoms: N_5  and  C_14 
REMARK    2  A    between atoms: N_6  and  C_17 
REMARK    3  A    between atoms: N_6  and  C_20 
REMARK    4  A    between atoms: N_7  and  C_21 
REMARK    5  A    between atoms: N_7  and  C_23 
REMARK    6  A    between atoms: C_10  and  C_13 
REMARK    7  A    between atoms: C_24  and  C_29 
ROOT
HETATM    1  N   UNL     1      59.168  88.095  33.669  1.00  0.00    -0.224 NA
HETATM    2  N   UNL     1      60.730  86.476  32.805  1.00  0.00    -0.224 NA
HETATM    3  C   UNL     1      58.921  87.254  34.695  1.00  0.00     0.133 A 
HETATM    4  C   UNL     1      59.531  86.025  34.843  1.00  0.00     0.100 A 
HETATM    5  C   UNL     1      60.439  85.677  33.859  1.00  0.00     0.133 A 
HETATM    6  C   UNL     1      60.069  87.648  32.773  1.00  0.00     0.237 A 
ENDROOT
BRANCH   3   7
HETATM    7  N   UNL     1      57.985  87.641  35.685  1.00  0.00    -0.341 N 
HETATM    8  H   UNL     1      58.156  88.569  36.063  1.00  0.00     0.167 HD
BRANCH   7   9
HETATM    9  C   UNL     1      56.867  86.995  36.237  1.00  0.00     0.035 A 
HETATM   10  C   UNL     1      56.728  86.888  37.624  1.00  0.00     0.059 A 
HETATM   11  C   UNL     1      55.617  86.248  38.171  1.00  0.00     0.036 A 
HETATM   12  C   UNL     1      54.639  85.710  37.333  1.00  0.00     0.029 A 
HETATM   13  C   UNL     1      54.772  85.814  35.949  1.00  0.00     0.004 A 
HETATM   14  C   UNL     1      55.885  86.454  35.402  1.00  0.00     0.029 A 
BRANCH  11  15
HETATM   15  N   UNL     1      55.482  86.144  39.556  1.00  0.00    -0.327 N 
HETATM   16  C   UNL     1      56.013  85.169  40.403  1.00  0.00     0.226 C 
HETATM   17  O   UNL     1      56.706  84.207  40.097  1.00  0.00    -0.273 OA
HETATM   18  H   UNL     1      54.921  86.872  39.992  1.00  0.00     0.169 HD
BRANCH  16  19
HETATM   19  C   UNL     1      55.668  85.367  41.846  1.00  0.00     0.078 A 
HETATM   20  C   UNL     1      56.680  84.992  42.871  1.00  0.00     0.015 A 
HETATM   21  C   UNL     1      55.444  84.160  42.688  1.00  0.00     0.015 A 
ENDBRANCH  16  19
ENDBRANCH  11  15
ENDBRANCH   7   9
ENDBRANCH   3   7
BRANCH   5  22
HETATM   22  N   UNL     1      61.083  84.431  33.973  1.00  0.00    -0.341 N 
HETATM   23  H   UNL     1      62.097  84.505  33.934  1.00  0.00     0.167 HD
BRANCH  22  24
HETATM   24  C   UNL     1      60.633  83.104  33.808  1.00  0.00     0.034 A 
HETATM   25  C   UNL     1      59.706  82.800  32.812  1.00  0.00     0.045 A 
HETATM   26  C   UNL     1      59.262  81.488  32.649  1.00  0.00     0.050 A 
HETATM   27  C   UNL     1      59.746  80.480  33.483  1.00  0.00     0.016 A 
HETATM   28  C   UNL     1      60.673  80.783  34.480  1.00  0.00     0.003 A 
HETATM   29  C   UNL     1      61.117  82.096  34.642  1.00  0.00     0.029 A 
BRANCH  26  30
HETATM   30  C   UNL     1      58.270  81.162  31.584  1.00  0.00     0.417 C 
HETATM   31  F   UNL     1      57.127  80.584  32.058  1.00  0.00    -0.166 F 
HETATM   32  F   UNL     1      57.852  82.251  30.875  1.00  0.00    -0.166 F 
HETATM   33  F   UNL     1      58.764  80.289  30.656  1.00  0.00    -0.166 F 
ENDBRANCH  26  30
ENDBRANCH  22  24
ENDBRANCH   5  22
TORSDOF 7
ENDMDL
MODEL 2
REMARK VINA RESULT:      -7.0      4.320      8.769
REMARK  7 active torsions:
REMARK  status: ('A' for Active; 'I' for Inactive)
REMARK       I    between atoms: N_5  and  C_13 
REMARK    1  A    between atoms: N_5  and  C_14 
REMARK    2  A    between atoms: N_6  and  C_17 
REMARK    3  A    between atoms: N_6  and  C_20 
REMARK    4  A    between atoms: N_7  and  C_21 
REMARK    5  A    between atoms: N_7  and  C_23 
REMARK    6  A    between atoms: C_10  and  C_13 
REMARK    7  A    between atoms: C_24  and  C_29 
ROOT
HETATM    1  N   UNL     1      60.669  81.884  32.419  1.00  0.00    -0.224 NA
HETATM    2  N   UNL     1      59.628  84.021  32.816  1.00  0.00    -0.224 NA
HETATM    3  C   UNL     1      61.046  81.869  33.714  1.00  0.00     0.133 A 
HETATM    4  C   UNL     1      60.755  82.878  34.610  1.00  0.00     0.100 A 
HETATM    5  C   UNL     1      60.035  83.946  34.105  1.00  0.00     0.133 A 
HETATM    6  C   UNL     1      59.974  82.975  32.043  1.00  0.00     0.237 A 
ENDROOT
BRANCH   3   7
HETATM    7  N   UNL     1      61.782  80.760  34.197  1.00  0.00    -0.341 N 
HETATM    8  H   UNL     1      62.789  80.881  34.127  1.00  0.00     0.167 HD
BRANCH   7   9
HETATM    9  C   UNL     1      61.390  79.533  34.759  1.00  0.00     0.035 A 
HETATM   10  C   UNL     1      60.743  78.574  33.974  1.00  0.00     0.059 A 
HETATM   11  C   UNL     1      60.356  77.357  34.532  1.00  0.00     0.036 A 
HETATM   12  C   UNL     1      60.614  77.091  35.877  1.00  0.00     0.029 A 
HETATM   13  C   UNL     1      61.259  78.045  36.664  1.00  0.00     0.004 A 
HETATM   14  C   UNL     1      61.646  79.263  36.106  1.00  0.00     0.029 A 
BRANCH  11  15
HETATM   15  N   UNL     1      59.710  76.402  33.744  1.00  0.00    -0.327 N 
HETATM   16  C   UNL     1      58.339  76.246  33.531  1.00  0.00     0.226 C 
HETATM   17  O   UNL     1      57.426  76.918  33.993  1.00  0.00    -0.273 OA
HETATM   18  H   UNL     1      60.325  75.739  33.277  1.00  0.00     0.169 HD
BRANCH  16  19
HETATM   19  C   UNL     1      57.993  75.108  32.621  1.00  0.00     0.078 A 
HETATM   20  C   UNL     1      59.073  74.527  31.778  1.00  0.00     0.015 A 
HETATM   21  C   UNL     1      57.990  75.357  31.153  1.00  0.00     0.015 A 
ENDBRANCH  16  19
ENDBRANCH  11  15
ENDBRANCH   7   9
ENDBRANCH   3   7
BRANCH   5  22
HETATM   22  N   UNL     1      59.718  84.997  34.986  1.00  0.00    -0.341 N 
HETATM   23  H   UNL     1      60.379  85.081  35.755  1.00  0.00     0.167 HD
BRANCH  22  24
HETATM   24  C   UNL     1      58.535  85.732  35.209  1.00  0.00     0.034 A 
HETATM   25  C   UNL     1      57.594  85.277  36.133  1.00  0.00     0.045 A 
HETATM   26  C   UNL     1      56.425  86.006  36.354  1.00  0.00     0.050 A 
HETATM   27  C   UNL     1      56.197  87.188  35.651  1.00  0.00     0.016 A 
HETATM   28  C   UNL     1      57.137  87.643  34.726  1.00  0.00     0.003 A 
HETATM   29  C   UNL     1      58.306  86.914  34.506  1.00  0.00     0.029 A 
BRANCH  26  30
HETATM   30  C   UNL     1      55.418  85.520  37.343  1.00  0.00     0.417 C 
HETATM   31  F   UNL     1      55.697  84.282  37.845  1.00  0.00    -0.166 F 
HETATM   32  F   UNL     1      55.293  86.328  38.436  1.00  0.00    -0.166 F 
HETATM   33  F   UNL     1      54.164  85.425  36.811  1.00  0.00    -0.166 F 
ENDBRANCH  26  30
ENDBRANCH  22  24
ENDBRANCH   5  22
TORSDOF 7
ENDMDL
MODEL 3
REMARK VINA RESULT:      -7.0      3.290      4.868
REMARK  7 active torsions:
REMARK  status: ('A' for Active; 'I' for Inactive)
REMARK       I    between atoms: N_5  and  C_13 
REMARK    1  A    between atoms: N_5  and  C_14 
REMARK    2  A    between atoms: N_6  and  C_17 
REMARK    3  A    between atoms: N_6  and  C_20 
REMARK    4  A    between atoms: N_7  and  C_21 
REMARK    5  A    between atoms: N_7  and  C_23 
REMARK    6  A    between atoms: C_10  and  C_13 
REMARK    7  A    between atoms: C_24  and  C_29 
ROOT
HETATM    1  N   UNL     1      59.436  83.026  31.914  1.00  0.00    -0.224 NA
HETATM    2  N   UNL     1      59.442  80.628  32.159  1.00  0.00    -0.224 NA
HETATM    3  C   UNL     1      59.976  83.116  33.147  1.00  0.00     0.133 A 
HETATM    4  C   UNL     1      60.274  82.023  33.935  1.00  0.00     0.100 A 
HETATM    5  C   UNL     1      59.984  80.786  33.389  1.00  0.00     0.133 A 
HETATM    6  C   UNL     1      59.197  81.770  31.489  1.00  0.00     0.237 A 
ENDROOT
BRANCH   3   7
HETATM    7  N   UNL     1      60.260  84.399  33.675  1.00  0.00    -0.341 N 
HETATM    8  H   UNL     1      61.253  84.578  33.791  1.00  0.00     0.167 HD
BRANCH   7   9
HETATM    9  C   UNL     1      59.435  85.469  34.061  1.00  0.00     0.035 A 
HETATM   10  C   UNL     1      58.696  85.396  35.245  1.00  0.00     0.059 A 
HETATM   11  C   UNL     1      57.879  86.459  35.627  1.00  0.00     0.036 A 
HETATM   12  C   UNL     1      57.798  87.600  34.829  1.00  0.00     0.029 A 
HETATM   13  C   UNL     1      58.534  87.678  33.647  1.00  0.00     0.004 A 
HETATM   14  C   UNL     1      59.351  86.613  33.264  1.00  0.00     0.029 A 
BRANCH  11  15
HETATM   15  N   UNL     1      57.142  86.383  36.811  1.00  0.00    -0.327 N 
HETATM   16  C   UNL     1      55.830  85.936  36.981  1.00  0.00     0.226 C 
HETATM   17  O   UNL     1      55.062  85.520  36.123  1.00  0.00    -0.273 OA
HETATM   18  H   UNL     1      57.630  86.700  37.646  1.00  0.00     0.169 HD
BRANCH  16  19
HETATM   19  C   UNL     1      55.351  85.990  38.398  1.00  0.00     0.078 A 
HETATM   20  C   UNL     1      56.190  86.701  39.400  1.00  0.00     0.015 A 
HETATM   21  C   UNL     1      56.093  85.204  39.422  1.00  0.00     0.015 A 
ENDBRANCH  16  19
ENDBRANCH  11  15
ENDBRANCH   7   9
ENDBRANCH   3   7
BRANCH   5  22
HETATM   22  N   UNL     1      60.273  79.645  34.162  1.00  0.00    -0.341 N 
HETATM   23  H   UNL     1      60.652  79.874  35.078  1.00  0.00     0.167 HD
BRANCH  22  24
HETATM   24  C   UNL     1      60.450  78.286  33.829  1.00  0.00     0.034 A 
HETATM   25  C   UNL     1      59.351  77.428  33.787  1.00  0.00     0.045 A 
HETATM   26  C   UNL     1      59.527  76.085  33.456  1.00  0.00     0.050 A 
HETATM   27  C   UNL     1      60.803  75.599  33.167  1.00  0.00     0.016 A 
HETATM   28  C   UNL     1      61.902  76.456  33.209  1.00  0.00     0.003 A 
HETATM   29  C   UNL     1      61.725  77.800  33.540  1.00  0.00     0.029 A 
BRANCH  26  30
HETATM   30  C   UNL     1      58.352  75.167  33.411  1.00  0.00     0.417 C 
HETATM   31  F   UNL     1      58.522  74.024  34.138  1.00  0.00    -0.166 F 
HETATM   32  F   UNL     1      57.203  75.727  33.890  1.00  0.00    -0.166 F 
HETATM   33  F   UNL     1      58.057  74.753  32.143  1.00  0.00    -0.166 F 
ENDBRANCH  26  30
ENDBRANCH  22  24
ENDBRANCH   5  22
TORSDOF 7
ENDMDL
MODEL 4
REMARK VINA RESULT:      -6.9      4.958      8.427
REMARK  7 active torsions:
REMARK  status: ('A' for Active; 'I' for Inactive)
REMARK       I    between atoms: N_5  and  C_13 
REMARK    1  A    between atoms: N_5  and  C_14 
REMARK    2  A    between atoms: N_6  and  C_17 
REMARK    3  A    between atoms: N_6  and  C_20 
REMARK    4  A    between atoms: N_7  and  C_21 
REMARK    5  A    between atoms: N_7  and  C_23 
REMARK    6  A    between atoms: C_10  and  C_13 
REMARK    7  A    between atoms: C_24  and  C_29 
ROOT
HETATM    1  N   UNL     1      56.284  84.535  43.308  1.00  0.00    -0.224 NA
HETATM    2  N   UNL     1      56.139  84.915  40.933  1.00  0.00    -0.224 NA
HETATM    3  C   UNL     1      57.332  85.384  43.342  1.00  0.00     0.133 A 
HETATM    4  C   UNL     1      57.833  86.028  42.230  1.00  0.00     0.100 A 
HETATM    5  C   UNL     1      57.194  85.756  41.033  1.00  0.00     0.133 A 
HETATM    6  C   UNL     1      55.744  84.348  42.089  1.00  0.00     0.237 A 
ENDROOT
BRANCH   3   7
HETATM    7  N   UNL     1      57.963  85.639  44.584  1.00  0.00    -0.341 N 
HETATM    8  H   UNL     1      58.731  85.005  44.785  1.00  0.00     0.167 HD
BRANCH   7   9
HETATM    9  C   UNL     1      57.737  86.600  45.583  1.00  0.00     0.035 A 
HETATM   10  C   UNL     1      57.840  87.962  45.286  1.00  0.00     0.059 A 
HETATM   11  C   UNL     1      57.614  88.915  46.278  1.00  0.00     0.036 A 
HETATM   12  C   UNL     1      57.283  88.511  47.572  1.00  0.00     0.029 A 
HETATM   13  C   UNL     1      57.178  87.154  47.873  1.00  0.00     0.004 A 
HETATM   14  C   UNL     1      57.406  86.200  46.881  1.00  0.00     0.029 A 
BRANCH  11  15
HETATM   15  N   UNL     1      57.717  90.274  45.977  1.00  0.00    -0.327 N 
HETATM   16  C   UNL     1      56.721  91.129  45.500  1.00  0.00     0.226 C 
HETATM   17  O   UNL     1      55.554  90.856  45.252  1.00  0.00    -0.273 OA
HETATM   18  H   UNL     1      58.639  90.681  46.121  1.00  0.00     0.169 HD
BRANCH  16  19
HETATM   19  C   UNL     1      57.182  92.537  45.285  1.00  0.00     0.078 A 
HETATM   20  C   UNL     1      56.636  93.288  44.123  1.00  0.00     0.015 A 
HETATM   21  C   UNL     1      58.061  92.819  44.117  1.00  0.00     0.015 A 
ENDBRANCH  16  19
ENDBRANCH  11  15
ENDBRANCH   7   9
ENDBRANCH   3   7
BRANCH   5  22
HETATM   22  N   UNL     1      57.675  86.394  39.874  1.00  0.00    -0.341 N 
HETATM   23  H   UNL     1      57.747  87.404  39.979  1.00  0.00     0.167 HD
BRANCH  22  24
HETATM   24  C   UNL     1      57.769  85.984  38.528  1.00  0.00     0.034 A 
HETATM   25  C   UNL     1      57.118  86.709  37.529  1.00  0.00     0.045 A 
HETATM   26  C   UNL     1      57.213  86.304  36.199  1.00  0.00     0.050 A 
HETATM   27  C   UNL     1      57.958  85.173  35.865  1.00  0.00     0.016 A 
HETATM   28  C   UNL     1      58.609  84.447  36.863  1.00  0.00     0.003 A 
HETATM   29  C   UNL     1      58.514  84.853  38.195  1.00  0.00     0.029 A 
BRANCH  26  30
HETATM   30  C   UNL     1      56.518  87.079  35.131  1.00  0.00     0.417 C 
HETATM   31  F   UNL     1      56.225  88.364  35.489  1.00  0.00    -0.166 F 
HETATM   32  F   UNL     1      57.239  87.187  33.976  1.00  0.00    -0.166 F 
HETATM   33  F   UNL     1      55.326  86.520  34.767  1.00  0.00    -0.166 F 
ENDBRANCH  26  30
ENDBRANCH  22  24
ENDBRANCH   5  22
TORSDOF 7
ENDMDL
MODEL 5
REMARK VINA RESULT:      -6.8      2.641      3.387
REMARK  7 active torsions:
REMARK  status: ('A' for Active; 'I' for Inactive)
REMARK       I    between atoms: N_5  and  C_13 
REMARK    1  A    between atoms: N_5  and  C_14 
REMARK    2  A    between atoms: N_6  and  C_17 
REMARK    3  A    between atoms: N_6  and  C_20 
REMARK    4  A    between atoms: N_7  and  C_21 
REMARK    5  A    between atoms: N_7  and  C_23 
REMARK    6  A    between atoms: C_10  and  C_13 
REMARK    7  A    between atoms: C_24  and  C_29 
ROOT
HETATM    1  N   UNL     1      59.553  85.320  33.695  1.00  0.00    -0.224 NA
HETATM    2  N   UNL     1      60.204  83.444  32.330  1.00  0.00    -0.224 NA
HETATM    3  C   UNL     1      59.451  84.474  34.742  1.00  0.00     0.133 A 
HETATM    4  C   UNL     1      59.706  83.121  34.662  1.00  0.00     0.100 A 
HETATM    5  C   UNL     1      60.084  82.649  33.418  1.00  0.00     0.133 A 
HETATM    6  C   UNL     1      59.927  84.746  32.536  1.00  0.00     0.237 A 
ENDROOT
BRANCH   3   7
HETATM    7  N   UNL     1      59.060  84.992  36.001  1.00  0.00    -0.341 N 
HETATM    8  H   UNL     1      59.845  85.257  36.590  1.00  0.00     0.167 HD
BRANCH   7   9
HETATM    9  C   UNL     1      57.803  85.214  36.586  1.00  0.00     0.035 A 
HETATM   10  C   UNL     1      57.570  84.849  37.915  1.00  0.00     0.059 A 
HETATM   11  C   UNL     1      56.322  85.072  38.496  1.00  0.00     0.036 A 
HETATM   12  C   UNL     1      55.300  85.660  37.750  1.00  0.00     0.029 A 
HETATM   13  C   UNL     1      55.527  86.026  36.423  1.00  0.00     0.004 A 
HETATM   14  C   UNL     1      56.776  85.802  35.843  1.00  0.00     0.029 A 
BRANCH  11  15
HETATM   15  N   UNL     1      56.095  84.707  39.824  1.00  0.00    -0.327 N 
HETATM   16  C   UNL     1      56.685  85.233  40.975  1.00  0.00     0.226 C 
HETATM   17  O   UNL     1      57.521  86.124  41.049  1.00  0.00    -0.273 OA
HETATM   18  H   UNL     1      55.417  83.959  39.958  1.00  0.00     0.169 HD
BRANCH  16  19
HETATM   19  C   UNL     1      56.203  84.603  42.244  1.00  0.00     0.078 A 
HETATM   20  C   UNL     1      55.076  85.248  42.969  1.00  0.00     0.015 A 
HETATM   21  C   UNL     1      56.468  85.311  43.527  1.00  0.00     0.015 A 
ENDBRANCH  16  19
ENDBRANCH  11  15
ENDBRANCH   7   9
ENDBRANCH   3   7
BRANCH   5  22
HETATM   22  N   UNL     1      60.354  81.272  33.294  1.00  0.00    -0.341 N 
HETATM   23  H   UNL     1      61.264  81.084  32.878  1.00  0.00     0.167 HD
BRANCH  22  24
HETATM   24  C   UNL     1      59.526  80.131  33.321  1.00  0.00     0.034 A 
HETATM   25  C   UNL     1      60.033  78.911  33.768  1.00  0.00     0.045 A 
HETATM   26  C   UNL     1      59.214  77.783  33.796  1.00  0.00     0.050 A 
HETATM   27  C   UNL     1      57.887  77.874  33.376  1.00  0.00     0.016 A 
HETATM   28  C   UNL     1      57.379  79.094  32.928  1.00  0.00     0.003 A 
HETATM   29  C   UNL     1      58.199  80.222  32.900  1.00  0.00     0.029 A 
BRANCH  26  30
HETATM   30  C   UNL     1      59.755  76.478  34.275  1.00  0.00     0.417 C 
HETATM   31  F   UNL     1      58.901  75.429  34.091  1.00  0.00    -0.166 F 
HETATM   32  F   UNL     1      60.914  76.107  33.655  1.00  0.00    -0.166 F 
HETATM   33  F   UNL     1      60.041  76.486  35.611  1.00  0.00    -0.166 F 
ENDBRANCH  26  30
ENDBRANCH  22  24
ENDBRANCH   5  22
TORSDOF 7
ENDMDL
MODEL 6
REMARK VINA RESULT:      -6.8      4.130      8.264
REMARK  7 active torsions:
REMARK  status: ('A' for Active; 'I' for Inactive)
REMARK       I    between atoms: N_5  and  C_13 
REMARK    1  A    between atoms: N_5  and  C_14 
REMARK    2  A    between atoms: N_6  and  C_17 
REMARK    3  A    between atoms: N_6  and  C_20 
REMARK    4  A    between atoms: N_7  and  C_21 
REMARK    5  A    between atoms: N_7  and  C_23 
REMARK    6  A    between atoms: C_10  and  C_13 
REMARK    7  A    between atoms: C_24  and  C_29 
ROOT
HETATM    1  N   UNL     1      60.822  84.973  32.859  1.00  0.00    -0.224 NA
HETATM    2  N   UNL     1      59.746  87.007  33.573  1.00  0.00    -0.224 NA
HETATM    3  C   UNL     1      60.109  84.311  33.794  1.00  0.00     0.133 A 
HETATM    4  C   UNL     1      59.208  84.920  34.644  1.00  0.00     0.100 A 
HETATM    5  C   UNL     1      59.061  86.287  34.491  1.00  0.00     0.133 A 
HETATM    6  C   UNL     1      60.596  86.299  32.804  1.00  0.00     0.237 A 
ENDROOT
BRANCH   3   7
HETATM    7  N   UNL     1      60.285  82.912  33.924  1.00  0.00    -0.341 N 
HETATM    8  H   UNL     1      60.790  82.643  34.763  1.00  0.00     0.167 HD
BRANCH   7   9
HETATM    9  C   UNL     1      59.891  81.829  33.121  1.00  0.00     0.035 A 
HETATM   10  C   UNL     1      59.985  80.522  33.606  1.00  0.00     0.059 A 
HETATM   11  C   UNL     1      59.592  79.448  32.808  1.00  0.00     0.036 A 
HETATM   12  C   UNL     1      59.103  79.676  31.521  1.00  0.00     0.029 A 
HETATM   13  C   UNL     1      59.008  80.978  31.033  1.00  0.00     0.004 A 
HETATM   14  C   UNL     1      59.402  82.053  31.831  1.00  0.00     0.029 A 
BRANCH  11  15
HETATM   15  N   UNL     1      59.687  78.144  33.297  1.00  0.00    -0.327 N 
HETATM   16  C   UNL     1      58.650  77.292  33.686  1.00  0.00     0.226 C 
HETATM   17  O   UNL     1      57.448  77.520  33.674  1.00  0.00    -0.273 OA
HETATM   18  H   UNL     1      60.634  77.780  33.383  1.00  0.00     0.169 HD
BRANCH  16  19
HETATM   19  C   UNL     1      59.115  75.952  34.165  1.00  0.00     0.078 A 
HETATM   20  C   UNL     1      60.039  75.174  33.297  1.00  0.00     0.015 A 
HETATM   21  C   UNL     1      58.613  74.740  33.461  1.00  0.00     0.015 A 
ENDBRANCH  16  19
ENDBRANCH  11  15
ENDBRANCH   7   9
ENDBRANCH   3   7
BRANCH   5  22
HETATM   22  N   UNL     1      58.150  86.947  35.339  1.00  0.00    -0.341 N 
HETATM   23  H   UNL     1      58.487  87.855  35.649  1.00  0.00     0.167 HD
BRANCH  22  24
HETATM   24  C   UNL     1      57.045  86.494  36.090  1.00  0.00     0.034 A 
HETATM   25  C   UNL     1      57.205  86.156  37.434  1.00  0.00     0.045 A 
HETATM   26  C   UNL     1      56.112  85.711  38.176  1.00  0.00     0.050 A 
HETATM   27  C   UNL     1      54.858  85.603  37.574  1.00  0.00     0.016 A 
HETATM   28  C   UNL     1      54.698  85.940  36.230  1.00  0.00     0.003 A 
HETATM   29  C   UNL     1      55.792  86.387  35.488  1.00  0.00     0.029 A 
BRANCH  26  30
HETATM   30  C   UNL     1      56.283  85.349  39.613  1.00  0.00     0.417 C 
HETATM   31  F   UNL     1      55.282  85.814  40.417  1.00  0.00    -0.166 F 
HETATM   32  F   UNL     1      56.323  84.003  39.836  1.00  0.00    -0.166 F 
HETATM   33  F   UNL     1      57.440  85.843  40.145  1.00  0.00    -0.166 F 
ENDBRANCH  26  30
ENDBRANCH  22  24
ENDBRANCH   5  22
TORSDOF 7
ENDMDL
MODEL 7
REMARK VINA RESULT:      -6.8      4.733      8.680
REMARK  7 active torsions:
REMARK  status: ('A' for Active; 'I' for Inactive)
REMARK       I    between atoms: N_5  and  C_13 
REMARK    1  A    between atoms: N_5  and  C_14 
REMARK    2  A    between atoms: N_6  and  C_17 
REMARK    3  A    between atoms: N_6  and  C_20 
REMARK    4  A    between atoms: N_7  and  C_21 
REMARK    5  A    between atoms: N_7  and  C_23 
REMARK    6  A    between atoms: C_10  and  C_13 
REMARK    7  A    between atoms: C_24  and  C_29 
ROOT
HETATM    1  N   UNL     1      55.837  86.626  35.351  1.00  0.00    -0.224 NA
HETATM    2  N   UNL     1      54.877  85.268  37.094  1.00  0.00    -0.224 NA
HETATM    3  C   UNL     1      57.049  86.416  35.905  1.00  0.00     0.133 A 
HETATM    4  C   UNL     1      57.252  85.653  37.038  1.00  0.00     0.100 A 
HETATM    5  C   UNL     1      56.119  85.095  37.602  1.00  0.00     0.133 A 
HETATM    6  C   UNL     1      54.810  86.032  35.988  1.00  0.00     0.237 A 
ENDROOT
BRANCH   3   7
HETATM    7  N   UNL     1      58.187  87.004  35.301  1.00  0.00    -0.341 N 
HETATM    8  H   UNL     1      58.467  87.880  35.733  1.00  0.00     0.167 HD
BRANCH   7   9
HETATM    9  C   UNL     1      59.003  86.607  34.229  1.00  0.00     0.035 A 
HETATM   10  C   UNL     1      59.436  85.282  34.126  1.00  0.00     0.059 A 
HETATM   11  C   UNL     1      60.244  84.889  33.061  1.00  0.00     0.036 A 
HETATM   12  C   UNL     1      60.623  85.819  32.092  1.00  0.00     0.029 A 
HETATM   13  C   UNL     1      60.193  87.142  32.189  1.00  0.00     0.004 A 
HETATM   14  C   UNL     1      59.385  87.535  33.256  1.00  0.00     0.029 A 
BRANCH  11  15
HETATM   15  N   UNL     1      60.674  83.565  32.962  1.00  0.00    -0.327 N 
HETATM   16  C   UNL     1      60.069  82.512  32.271  1.00  0.00     0.226 C 
HETATM   17  O   UNL     1      59.038  82.542  31.612  1.00  0.00    -0.273 OA
HETATM   18  H   UNL     1      61.533  83.349  33.464  1.00  0.00     0.169 HD
BRANCH  16  19
HETATM   19  C   UNL     1      60.807  81.214  32.379  1.00  0.00     0.078 A 
HETATM   20  C   UNL     1      60.029  79.950  32.279  1.00  0.00     0.015 A 
HETATM   21  C   UNL     1      60.600  80.385  33.597  1.00  0.00     0.015 A 
ENDBRANCH  16  19
ENDBRANCH  11  15
ENDBRANCH   7   9
ENDBRANCH   3   7
BRANCH   5  22
HETATM   22  N   UNL     1      56.284  84.309  38.759  1.00  0.00    -0.341 N 
HETATM   23  H   UNL     1      55.605  83.554  38.823  1.00  0.00     0.167 HD
BRANCH  22  24
HETATM   24  C   UNL     1      56.960  84.532  39.976  1.00  0.00     0.034 A 
HETATM   25  C   UNL     1      56.236  84.764  41.146  1.00  0.00     0.045 A 
HETATM   26  C   UNL     1      56.905  84.983  42.349  1.00  0.00     0.050 A 
HETATM   27  C   UNL     1      58.300  84.970  42.384  1.00  0.00     0.016 A 
HETATM   28  C   UNL     1      59.025  84.739  41.215  1.00  0.00     0.003 A 
HETATM   29  C   UNL     1      58.354  84.519  40.011  1.00  0.00     0.029 A 
BRANCH  26  30
HETATM   30  C   UNL     1      56.131  85.231  43.600  1.00  0.00     0.417 C 
HETATM   31  F   UNL     1      56.055  84.144  44.422  1.00  0.00    -0.166 F 
HETATM   32  F   UNL     1      56.651  86.228  44.375  1.00  0.00    -0.166 F 
HETATM   33  F   UNL     1      54.838  85.596  43.354  1.00  0.00    -0.166 F 
ENDBRANCH  26  30
ENDBRANCH  22  24
ENDBRANCH   5  22
TORSDOF 7
ENDMDL
MODEL 8
REMARK VINA RESULT:      -6.7      3.898      5.906
REMARK  7 active torsions:
REMARK  status: ('A' for Active; 'I' for Inactive)
REMARK       I    between atoms: N_5  and  C_13 
REMARK    1  A    between atoms: N_5  and  C_14 
REMARK    2  A    between atoms: N_6  and  C_17 
REMARK    3  A    between atoms: N_6  and  C_20 
REMARK    4  A    between atoms: N_7  and  C_21 
REMARK    5  A    between atoms: N_7  and  C_23 
REMARK    6  A    between atoms: C_10  and  C_13 
REMARK    7  A    between atoms: C_24  and  C_29 
ROOT
HETATM    1  N   UNL     1      60.565  83.342  39.436  1.00  0.00    -0.224 NA
HETATM    2  N   UNL     1      60.930  82.848  37.106  1.00  0.00    -0.224 NA
HETATM    3  C   UNL     1      59.821  84.402  39.056  1.00  0.00     0.133 A 
HETATM    4  C   UNL     1      59.589  84.743  37.739  1.00  0.00     0.100 A 
HETATM    5  C   UNL     1      60.174  83.924  36.789  1.00  0.00     0.133 A 
HETATM    6  C   UNL     1      61.083  82.620  38.424  1.00  0.00     0.237 A 
ENDROOT
BRANCH   3   7
HETATM    7  N   UNL     1      59.238  85.219  40.055  1.00  0.00    -0.341 N 
HETATM    8  H   UNL     1      59.696  86.120  40.159  1.00  0.00     0.167 HD
BRANCH   7   9
HETATM    9  C   UNL     1      58.148  85.027  40.920  1.00  0.00     0.035 A 
HETATM   10  C   UNL     1      58.148  85.607  42.191  1.00  0.00     0.059 A 
HETATM   11  C   UNL     1      57.065  85.417  43.049  1.00  0.00     0.036 A 
HETATM   12  C   UNL     1      55.977  84.646  42.639  1.00  0.00     0.029 A 
HETATM   13  C   UNL     1      55.972  84.065  41.371  1.00  0.00     0.004 A 
HETATM   14  C   UNL     1      57.056  84.255  40.513  1.00  0.00     0.029 A 
BRANCH  11  15
HETATM   15  N   UNL     1      57.068  85.999  44.317  1.00  0.00    -0.327 N 
HETATM   16  C   UNL     1      57.274  85.375  45.550  1.00  0.00     0.226 C 
HETATM   17  O   UNL     1      57.494  84.190  45.764  1.00  0.00    -0.273 OA
HETATM   18  H   UNL     1      56.892  87.001  44.335  1.00  0.00     0.169 HD
BRANCH  16  19
HETATM   19  C   UNL     1      57.210  86.309  46.719  1.00  0.00     0.078 A 
HETATM   20  C   UNL     1      58.437  86.498  47.539  1.00  0.00     0.015 A 
HETATM   21  C   UNL     1      57.272  85.728  48.088  1.00  0.00     0.015 A 
ENDBRANCH  16  19
ENDBRANCH  11  15
ENDBRANCH   7   9
ENDBRANCH   3   7
BRANCH   5  22
HETATM   22  N   UNL     1      59.961  84.238  35.433  1.00  0.00    -0.341 N 
HETATM   23  H   UNL     1      60.556  83.702  34.806  1.00  0.00     0.167 HD
BRANCH  22  24
HETATM   24  C   UNL     1      59.351  85.336  34.792  1.00  0.00     0.034 A 
HETATM   25  C   UNL     1      58.292  86.005  35.407  1.00  0.00     0.045 A 
HETATM   26  C   UNL     1      57.691  87.091  34.773  1.00  0.00     0.050 A 
HETATM   27  C   UNL     1      58.146  87.509  33.523  1.00  0.00     0.016 A 
HETATM   28  C   UNL     1      59.204  86.841  32.907  1.00  0.00     0.003 A 
HETATM   29  C   UNL     1      59.807  85.754  33.542  1.00  0.00     0.029 A 
BRANCH  26  30
HETATM   30  C   UNL     1      56.558  87.806  35.431  1.00  0.00     0.417 C 
HETATM   31  F   UNL     1      56.231  88.986  34.826  1.00  0.00    -0.166 F 
HETATM   32  F   UNL     1      55.399  87.085  35.458  1.00  0.00    -0.166 F 
HETATM   33  F   UNL     1      56.823  88.123  36.733  1.00  0.00    -0.166 F 
ENDBRANCH  26  30
ENDBRANCH  22  24
ENDBRANCH   5  22
TORSDOF 7
ENDMDL
MODEL 9
REMARK VINA RESULT:      -6.6      4.148      6.443
REMARK  7 active torsions:
REMARK  status: ('A' for Active; 'I' for Inactive)
REMARK       I    between atoms: N_5  and  C_13 
REMARK    1  A    between atoms: N_5  and  C_14 
REMARK    2  A    between atoms: N_6  and  C_17 
REMARK    3  A    between atoms: N_6  and  C_20 
REMARK    4  A    between atoms: N_7  and  C_21 
REMARK    5  A    between atoms: N_7  and  C_23 
REMARK    6  A    between atoms: C_10  and  C_13 
REMARK    7  A    between atoms: C_24  and  C_29 
ROOT
HETATM    1  N   UNL     1      60.822  83.874  40.602  1.00  0.00    -0.224 NA
HETATM    2  N   UNL     1      60.707  83.208  38.289  1.00  0.00    -0.224 NA
HETATM    3  C   UNL     1      59.763  84.681  40.383  1.00  0.00     0.133 A 
HETATM    4  C   UNL     1      59.131  84.804  39.162  1.00  0.00     0.100 A 
HETATM    5  C   UNL     1      59.648  84.037  38.134  1.00  0.00     0.133 A 
HETATM    6  C   UNL     1      61.236  83.177  39.526  1.00  0.00     0.237 A 
ENDROOT
BRANCH   3   7
HETATM    7  N   UNL     1      59.260  85.453  41.459  1.00  0.00    -0.341 N 
HETATM    8  H   UNL     1      59.886  86.199  41.749  1.00  0.00     0.167 HD
BRANCH   7   9
HETATM    9  C   UNL     1      58.064  85.390  42.193  1.00  0.00     0.035 A 
HETATM   10  C   UNL     1      58.028  85.828  43.520  1.00  0.00     0.059 A 
HETATM   11  C   UNL     1      56.841  85.766  44.247  1.00  0.00     0.036 A 
HETATM   12  C   UNL     1      55.682  85.267  43.651  1.00  0.00     0.029 A 
HETATM   13  C   UNL     1      55.712  84.829  42.327  1.00  0.00     0.004 A 
HETATM   14  C   UNL     1      56.902  84.890  41.600  1.00  0.00     0.029 A 
BRANCH  11  15
HETATM   15  N   UNL     1      56.809  86.205  45.571  1.00  0.00    -0.327 N 
HETATM   16  C   UNL     1      57.154  85.494  46.723  1.00  0.00     0.226 C 
HETATM   17  O   UNL     1      57.554  84.340  46.800  1.00  0.00    -0.273 OA
HETATM   18  H   UNL     1      56.488  87.162  45.704  1.00  0.00     0.169 HD
BRANCH  16  19
HETATM   19  C   UNL     1      57.000  86.279  47.988  1.00  0.00     0.078 A 
HETATM   20  C   UNL     1      57.354  87.724  47.969  1.00  0.00     0.015 A 
HETATM   21  C   UNL     1      58.232  86.740  48.685  1.00  0.00     0.015 A 
ENDBRANCH  16  19
ENDBRANCH  11  15
ENDBRANCH   7   9
ENDBRANCH   3   7
BRANCH   5  22
HETATM   22  N   UNL     1      59.032  84.132  36.871  1.00  0.00    -0.341 N 
HETATM   23  H   UNL     1      59.532  83.622  36.147  1.00  0.00     0.167 HD
BRANCH  22  24
HETATM   24  C   UNL     1      58.076  85.023  36.341  1.00  0.00     0.034 A 
HETATM   25  C   UNL     1      58.463  85.996  35.419  1.00  0.00     0.045 A 
HETATM   26  C   UNL     1      57.518  86.875  34.893  1.00  0.00     0.050 A 
HETATM   27  C   UNL     1      56.183  86.783  35.290  1.00  0.00     0.016 A 
HETATM   28  C   UNL     1      55.795  85.812  36.212  1.00  0.00     0.003 A 
HETATM   29  C   UNL     1      56.742  84.931  36.738  1.00  0.00     0.029 A 
BRANCH  26  30
HETATM   30  C   UNL     1      57.932  87.915  33.907  1.00  0.00     0.417 C 
HETATM   31  F   UNL     1      57.851  87.502  32.608  1.00  0.00    -0.166 F 
HETATM   32  F   UNL     1      57.180  89.054  33.966  1.00  0.00    -0.166 F 
HETATM   33  F   UNL     1      59.224  88.320  34.083  1.00  0.00    -0.166 F 
ENDBRANCH  26  30
ENDBRANCH  22  24
ENDBRANCH   5  22
TORSDOF 7
ENDMDL
