MODEL 1
REMARK VINA RESULT:      -8.0      0.000      0.000
REMARK  7 active torsions:
REMARK  status: ('A' for Active; 'I' for Inactive)
REMARK       I    between atoms: N_5  and  C_13 
REMARK    1  A    between atoms: N_5  and  C_14 
REMARK    2  A    between atoms: N_6  and  C_17 
REMARK    3  A    between atoms: N_6  and  C_20 
REMARK    4  A    between atoms: N_7  and  C_21 
REMARK    5  A    between atoms: N_7  and  C_23 
REMARK    6  A    between atoms: C_10  and  C_13 
REMARK    7  A    between atoms: C_24  and  C_29 
ROOT
HETATM    1  N   UNL     1      60.394  85.399  33.751  1.00  0.00    -0.224 NA
HETATM    2  N   UNL     1      60.363  83.594  32.155  1.00  0.00    -0.224 NA
HETATM    3  C   UNL     1      59.733  84.598  34.614  1.00  0.00     0.133 A 
HETATM    4  C   UNL     1      59.359  83.302  34.323  1.00  0.00     0.100 A 
HETATM    5  C   UNL     1      59.701  82.841  33.065  1.00  0.00     0.133 A 
HETATM    6  C   UNL     1      60.672  84.841  32.558  1.00  0.00     0.237 A 
ENDROOT
BRANCH   3   7
HETATM    7  N   UNL     1      59.398  85.103  35.894  1.00  0.00    -0.341 N 
HETATM    8  H   UNL     1      60.168  85.069  36.556  1.00  0.00     0.167 HD
BRANCH   7   9
HETATM    9  C   UNL     1      58.213  85.645  36.418  1.00  0.00     0.035 A 
HETATM   10  C   UNL     1      57.756  85.250  37.679  1.00  0.00     0.059 A 
HETATM   11  C   UNL     1      56.580  85.790  38.199  1.00  0.00     0.036 A 
HETATM   12  C   UNL     1      55.856  86.728  37.462  1.00  0.00     0.029 A 
HETATM   13  C   UNL     1      56.309  87.125  36.204  1.00  0.00     0.004 A 
HETATM   14  C   UNL     1      57.484  86.584  35.683  1.00  0.00     0.029 A 
BRANCH  11  15
HETATM   15  N   UNL     1      56.128  85.394  39.459  1.00  0.00    -0.327 N 
HETATM   16  C   UNL     1      56.835  84.716  40.454  1.00  0.00     0.226 C 
HETATM   17  O   UNL     1      57.997  84.334  40.420  1.00  0.00    -0.273 OA
HETATM   18  H   UNL     1      55.159  85.628  39.665  1.00  0.00     0.169 HD
BRANCH  16  19
HETATM   19  C   UNL     1      56.035  84.449  41.691  1.00  0.00     0.078 A 
HETATM   20  C   UNL     1      55.155  85.532  42.209  1.00  0.00     0.015 A 
HETATM   21  C   UNL     1      56.412  85.163  42.941  1.00  0.00     0.015 A 
ENDBRANCH  16  19
ENDBRANCH  11  15
ENDBRANCH   7   9
ENDBRANCH   3   7
BRANCH   5  22
HETATM   22  N   UNL     1      59.338  81.523  32.729  1.00  0.00    -0.341 N 
HETATM   23  H   UNL     1      58.555  81.482  32.081  1.00  0.00     0.167 HD
BRANCH  22  24
HETATM   24  C   UNL     1      59.608  80.275  33.330  1.00  0.00     0.034 A 
HETATM   25  C   UNL     1      58.747  79.198  33.119  1.00  0.00     0.045 A 
HETATM   26  C   UNL     1      59.015  77.965  33.713  1.00  0.00     0.050 A 
HETATM   27  C   UNL     1      60.144  77.809  34.518  1.00  0.00     0.016 A 
HETATM   28  C   UNL     1      61.004  78.886  34.729  1.00  0.00     0.003 A 
HETATM   29  C   UNL     1      60.736  80.119  34.135  1.00  0.00     0.029 A 
BRANCH  26  30
HETATM   30  C   UNL     1      58.095  76.812  33.487  1.00  0.00     0.417 C 
HETATM   31  F   UNL     1      56.906  76.923  34.150  1.00  0.00    -0.166 F 
HETATM   32  F   UNL     1      57.757  76.631  32.177  1.00  0.00    -0.166 F 
HETATM   33  F   UNL     1      58.632  75.625  33.895  1.00  0.00    -0.166 F 
ENDBRANCH  26  30
ENDBRANCH  22  24
ENDBRANCH   5  22
TORSDOF 7
ENDMDL
MODEL 2
REMARK VINA RESULT:      -7.7      4.849      9.411
REMARK  7 active torsions:
REMARK  status: ('A' for Active; 'I' for Inactive)
REMARK       I    between atoms: N_5  and  C_13 
REMARK    1  A    between atoms: N_5  and  C_14 
REMARK    2  A    between atoms: N_6  and  C_17 
REMARK    3  A    between atoms: N_6  and  C_20 
REMARK    4  A    between atoms: N_7  and  C_21 
REMARK    5  A    between atoms: N_7  and  C_23 
REMARK    6  A    between atoms: C_10  and  C_13 
REMARK    7  A    between atoms: C_24  and  C_29 
ROOT
HETATM    1  N   UNL     1      56.682  86.595  36.541  1.00  0.00    -0.224 NA
HETATM    2  N   UNL     1      55.399  85.839  38.436  1.00  0.00    -0.224 NA
HETATM    3  C   UNL     1      57.739  85.917  37.033  1.00  0.00     0.133 A 
HETATM    4  C   UNL     1      57.704  85.186  38.204  1.00  0.00     0.100 A 
HETATM    5  C   UNL     1      56.495  85.180  38.877  1.00  0.00     0.133 A 
HETATM    6  C   UNL     1      55.560  86.515  37.282  1.00  0.00     0.237 A 
ENDROOT
BRANCH   3   7
HETATM    7  N   UNL     1      58.961  85.946  36.319  1.00  0.00    -0.341 N 
HETATM    8  H   UNL     1      59.724  86.372  36.838  1.00  0.00     0.167 HD
BRANCH   7   9
HETATM    9  C   UNL     1      59.322  85.495  35.038  1.00  0.00     0.035 A 
HETATM   10  C   UNL     1      59.323  84.128  34.747  1.00  0.00     0.059 A 
HETATM   11  C   UNL     1      59.680  83.682  33.475  1.00  0.00     0.036 A 
HETATM   12  C   UNL     1      60.037  84.601  32.488  1.00  0.00     0.029 A 
HETATM   13  C   UNL     1      60.037  85.966  32.773  1.00  0.00     0.004 A 
HETATM   14  C   UNL     1      59.681  86.412  34.046  1.00  0.00     0.029 A 
BRANCH  11  15
HETATM   15  N   UNL     1      59.679  82.316  33.189  1.00  0.00    -0.327 N 
HETATM   16  C   UNL     1      59.004  81.651  32.162  1.00  0.00     0.226 C 
HETATM   17  O   UNL     1      58.277  82.137  31.305  1.00  0.00    -0.273 OA
HETATM   18  H   UNL     1      60.238  81.741  33.816  1.00  0.00     0.169 HD
BRANCH  16  19
HETATM   19  C   UNL     1      59.229  80.171  32.149  1.00  0.00     0.078 A 
HETATM   20  C   UNL     1      58.391  79.323  33.038  1.00  0.00     0.015 A 
HETATM   21  C   UNL     1      59.843  79.541  33.349  1.00  0.00     0.015 A 
ENDBRANCH  16  19
ENDBRANCH  11  15
ENDBRANCH   7   9
ENDBRANCH   3   7
BRANCH   5  22
HETATM   22  N   UNL     1      56.418  84.446  40.076  1.00  0.00    -0.341 N 
HETATM   23  H   UNL     1      56.006  83.524  39.949  1.00  0.00     0.167 HD
BRANCH  22  24
HETATM   24  C   UNL     1      56.486  84.824  41.433  1.00  0.00     0.034 A 
HETATM   25  C   UNL     1      57.725  84.939  42.065  1.00  0.00     0.045 A 
HETATM   26  C   UNL     1      57.791  85.314  43.406  1.00  0.00     0.050 A 
HETATM   27  C   UNL     1      56.619  85.575  44.116  1.00  0.00     0.016 A 
HETATM   28  C   UNL     1      55.381  85.460  43.486  1.00  0.00     0.003 A 
HETATM   29  C   UNL     1      55.314  85.084  42.143  1.00  0.00     0.029 A 
BRANCH  26  30
HETATM   30  C   UNL     1      59.116  85.437  44.082  1.00  0.00     0.417 C 
HETATM   31  F   UNL     1      59.093  86.233  45.191  1.00  0.00    -0.166 F 
HETATM   32  F   UNL     1      59.623  84.244  44.509  1.00  0.00    -0.166 F 
HETATM   33  F   UNL     1      60.073  85.972  43.267  1.00  0.00    -0.166 F 
ENDBRANCH  26  30
ENDBRANCH  22  24
ENDBRANCH   5  22
TORSDOF 7
ENDMDL
MODEL 3
REMARK VINA RESULT:      -7.6      5.909      9.498
REMARK  7 active torsions:
REMARK  status: ('A' for Active; 'I' for Inactive)
REMARK       I    between atoms: N_5  and  C_13 
REMARK    1  A    between atoms: N_5  and  C_14 
REMARK    2  A    between atoms: N_6  and  C_17 
REMARK    3  A    between atoms: N_6  and  C_20 
REMARK    4  A    between atoms: N_7  and  C_21 
REMARK    5  A    between atoms: N_7  and  C_23 
REMARK    6  A    between atoms: C_10  and  C_13 
REMARK    7  A    between atoms: C_24  and  C_29 
ROOT
HETATM    1  N   UNL     1      55.674  85.640  43.871  1.00  0.00    -0.224 NA
HETATM    2  N   UNL     1      55.709  84.872  41.587  1.00  0.00    -0.224 NA
HETATM    3  C   UNL     1      57.022  85.587  43.870  1.00  0.00     0.133 A 
HETATM    4  C   UNL     1      57.774  85.193  42.782  1.00  0.00     0.100 A 
HETATM    5  C   UNL     1      57.061  84.840  41.650  1.00  0.00     0.133 A 
HETATM    6  C   UNL     1      55.091  85.273  42.714  1.00  0.00     0.237 A 
ENDROOT
BRANCH   3   7
HETATM    7  N   UNL     1      57.720  85.954  45.047  1.00  0.00    -0.341 N 
HETATM    8  H   UNL     1      58.558  85.402  45.210  1.00  0.00     0.167 HD
BRANCH   7   9
HETATM    9  C   UNL     1      57.482  86.936  46.023  1.00  0.00     0.035 A 
HETATM   10  C   UNL     1      57.496  88.290  45.679  1.00  0.00     0.059 A 
HETATM   11  C   UNL     1      57.258  89.263  46.649  1.00  0.00     0.036 A 
HETATM   12  C   UNL     1      57.003  88.886  47.968  1.00  0.00     0.029 A 
HETATM   13  C   UNL     1      56.987  87.536  48.316  1.00  0.00     0.004 A 
HETATM   14  C   UNL     1      57.227  86.563  47.346  1.00  0.00     0.029 A 
BRANCH  11  15
HETATM   15  N   UNL     1      57.273  90.614  46.300  1.00  0.00    -0.327 N 
HETATM   16  C   UNL     1      56.257  91.360  45.697  1.00  0.00     0.226 C 
HETATM   17  O   UNL     1      55.147  90.975  45.353  1.00  0.00    -0.273 OA
HETATM   18  H   UNL     1      58.138  91.107  46.511  1.00  0.00     0.169 HD
BRANCH  16  19
HETATM   19  C   UNL     1      56.615  92.795  45.465  1.00  0.00     0.078 A 
HETATM   20  C   UNL     1      55.784  93.584  44.516  1.00  0.00     0.015 A 
HETATM   21  C   UNL     1      57.178  93.175  44.140  1.00  0.00     0.015 A 
ENDBRANCH  16  19
ENDBRANCH  11  15
ENDBRANCH   7   9
ENDBRANCH   3   7
BRANCH   5  22
HETATM   22  N   UNL     1      57.790  84.432  40.517  1.00  0.00    -0.341 N 
HETATM   23  H   UNL     1      58.659  83.958  40.756  1.00  0.00     0.167 HD
BRANCH  22  24
HETATM   24  C   UNL     1      57.739  84.813  39.160  1.00  0.00     0.034 A 
HETATM   25  C   UNL     1      56.534  85.235  38.598  1.00  0.00     0.045 A 
HETATM   26  C   UNL     1      56.485  85.614  37.257  1.00  0.00     0.050 A 
HETATM   27  C   UNL     1      57.640  85.570  36.477  1.00  0.00     0.016 A 
HETATM   28  C   UNL     1      58.845  85.148  37.038  1.00  0.00     0.003 A 
HETATM   29  C   UNL     1      58.895  84.770  38.380  1.00  0.00     0.029 A 
BRANCH  26  30
HETATM   30  C   UNL     1      55.196  86.065  36.656  1.00  0.00     0.417 C 
HETATM   31  F   UNL     1      54.185  86.200  37.564  1.00  0.00    -0.166 F 
HETATM   32  F   UNL     1      55.279  87.277  36.032  1.00  0.00    -0.166 F 
HETATM   33  F   UNL     1      54.726  85.198  35.711  1.00  0.00    -0.166 F 
ENDBRANCH  26  30
ENDBRANCH  22  24
ENDBRANCH   5  22
TORSDOF 7
ENDMDL
MODEL 4
REMARK VINA RESULT:      -7.4      2.289      3.648
REMARK  7 active torsions:
REMARK  status: ('A' for Active; 'I' for Inactive)
REMARK       I    between atoms: N_5  and  C_13 
REMARK    1  A    between atoms: N_5  and  C_14 
REMARK    2  A    between atoms: N_6  and  C_17 
REMARK    3  A    between atoms: N_6  and  C_20 
REMARK    4  A    between atoms: N_7  and  C_21 
REMARK    5  A    between atoms: N_7  and  C_23 
REMARK    6  A    between atoms: C_10  and  C_13 
REMARK    7  A    between atoms: C_24  and  C_29 
ROOT
HETATM    1  N   UNL     1      58.843  82.636  31.411  1.00  0.00    -0.224 NA
HETATM    2  N   UNL     1      58.746  80.438  32.393  1.00  0.00    -0.224 NA
HETATM    3  C   UNL     1      59.790  82.958  32.315  1.00  0.00     0.133 A 
HETATM    4  C   UNL     1      60.262  82.086  33.276  1.00  0.00     0.100 A 
HETATM    5  C   UNL     1      59.700  80.822  33.273  1.00  0.00     0.133 A 
HETATM    6  C   UNL     1      58.370  81.379  31.506  1.00  0.00     0.237 A 
ENDROOT
BRANCH   3   7
HETATM    7  N   UNL     1      60.343  84.262  32.290  1.00  0.00    -0.341 N 
HETATM    8  H   UNL     1      61.216  84.322  31.774  1.00  0.00     0.167 HD
BRANCH   7   9
HETATM    9  C   UNL     1      59.914  85.484  32.833  1.00  0.00     0.035 A 
HETATM   10  C   UNL     1      59.237  85.513  34.055  1.00  0.00     0.059 A 
HETATM   11  C   UNL     1      58.813  86.727  34.594  1.00  0.00     0.036 A 
HETATM   12  C   UNL     1      59.063  87.919  33.913  1.00  0.00     0.029 A 
HETATM   13  C   UNL     1      59.738  87.895  32.693  1.00  0.00     0.004 A 
HETATM   14  C   UNL     1      60.162  86.680  32.153  1.00  0.00     0.029 A 
BRANCH  11  15
HETATM   15  N   UNL     1      58.138  86.751  35.816  1.00  0.00    -0.327 N 
HETATM   16  C   UNL     1      56.776  86.954  36.043  1.00  0.00     0.226 C 
HETATM   17  O   UNL     1      55.898  87.151  35.214  1.00  0.00    -0.273 OA
HETATM   18  H   UNL     1      58.723  86.607  36.637  1.00  0.00     0.169 HD
BRANCH  16  19
HETATM   19  C   UNL     1      56.391  86.915  37.490  1.00  0.00     0.078 A 
HETATM   20  C   UNL     1      56.610  85.652  38.244  1.00  0.00     0.015 A 
HETATM   21  C   UNL     1      55.220  86.086  37.885  1.00  0.00     0.015 A 
ENDBRANCH  16  19
ENDBRANCH  11  15
ENDBRANCH   7   9
ENDBRANCH   3   7
BRANCH   5  22
HETATM   22  N   UNL     1      60.154  79.902  34.237  1.00  0.00    -0.341 N 
HETATM   23  H   UNL     1      60.783  80.321  34.918  1.00  0.00     0.167 HD
BRANCH  22  24
HETATM   24  C   UNL     1      60.182  78.492  34.273  1.00  0.00     0.034 A 
HETATM   25  C   UNL     1      59.312  77.756  33.469  1.00  0.00     0.045 A 
HETATM   26  C   UNL     1      59.341  76.362  33.504  1.00  0.00     0.050 A 
HETATM   27  C   UNL     1      60.241  75.704  34.343  1.00  0.00     0.016 A 
HETATM   28  C   UNL     1      61.110  76.440  35.147  1.00  0.00     0.003 A 
HETATM   29  C   UNL     1      61.081  77.834  35.112  1.00  0.00     0.029 A 
BRANCH  26  30
HETATM   30  C   UNL     1      58.411  75.574  32.644  1.00  0.00     0.417 C 
HETATM   31  F   UNL     1      57.950  76.264  31.560  1.00  0.00    -0.166 F 
HETATM   32  F   UNL     1      58.970  74.438  32.132  1.00  0.00    -0.166 F 
HETATM   33  F   UNL     1      57.296  75.162  33.317  1.00  0.00    -0.166 F 
ENDBRANCH  26  30
ENDBRANCH  22  24
ENDBRANCH   5  22
TORSDOF 7
ENDMDL
MODEL 5
REMARK VINA RESULT:      -7.3      5.298      9.278
REMARK  7 active torsions:
REMARK  status: ('A' for Active; 'I' for Inactive)
REMARK       I    between atoms: N_5  and  C_13 
REMARK    1  A    between atoms: N_5  and  C_14 
REMARK    2  A    between atoms: N_6  and  C_17 
REMARK    3  A    between atoms: N_6  and  C_20 
REMARK    4  A    between atoms: N_7  and  C_21 
REMARK    5  A    between atoms: N_7  and  C_23 
REMARK    6  A    between atoms: C_10  and  C_13 
REMARK    7  A    between atoms: C_24  and  C_29 
ROOT
HETATM    1  N   UNL     1      55.836  85.101  44.043  1.00  0.00    -0.224 NA
HETATM    2  N   UNL     1      55.778  84.531  41.702  1.00  0.00    -0.224 NA
HETATM    3  C   UNL     1      57.147  85.385  43.903  1.00  0.00     0.133 A 
HETATM    4  C   UNL     1      57.834  85.269  42.712  1.00  0.00     0.100 A 
HETATM    5  C   UNL     1      57.095  84.832  41.627  1.00  0.00     0.133 A 
HETATM    6  C   UNL     1      55.222  84.684  42.919  1.00  0.00     0.237 A 
ENDROOT
BRANCH   3   7
HETATM    7  N   UNL     1      57.874  85.830  45.035  1.00  0.00    -0.341 N 
HETATM    8  H   UNL     1      58.754  85.340  45.169  1.00  0.00     0.167 HD
BRANCH   7   9
HETATM    9  C   UNL     1      57.615  86.817  45.999  1.00  0.00     0.035 A 
HETATM   10  C   UNL     1      57.634  88.169  45.646  1.00  0.00     0.059 A 
HETATM   11  C   UNL     1      57.375  89.149  46.604  1.00  0.00     0.036 A 
HETATM   12  C   UNL     1      57.096  88.781  47.920  1.00  0.00     0.029 A 
HETATM   13  C   UNL     1      57.075  87.434  48.278  1.00  0.00     0.004 A 
HETATM   14  C   UNL     1      57.335  86.454  47.320  1.00  0.00     0.029 A 
BRANCH  11  15
HETATM   15  N   UNL     1      57.395  90.498  46.246  1.00  0.00    -0.327 N 
HETATM   16  C   UNL     1      56.368  91.252  45.672  1.00  0.00     0.226 C 
HETATM   17  O   UNL     1      55.242  90.878  45.369  1.00  0.00    -0.273 OA
HETATM   18  H   UNL     1      58.272  90.981  46.424  1.00  0.00     0.169 HD
BRANCH  16  19
HETATM   19  C   UNL     1      56.735  92.680  45.418  1.00  0.00     0.078 A 
HETATM   20  C   UNL     1      55.864  93.484  44.519  1.00  0.00     0.015 A 
HETATM   21  C   UNL     1      57.227  93.051  44.063  1.00  0.00     0.015 A 
ENDBRANCH  16  19
ENDBRANCH  11  15
ENDBRANCH   7   9
ENDBRANCH   3   7
BRANCH   5  22
HETATM   22  N   UNL     1      57.759  84.700  40.393  1.00  0.00    -0.341 N 
HETATM   23  H   UNL     1      58.770  84.643  40.492  1.00  0.00     0.167 HD
BRANCH  22  24
HETATM   24  C   UNL     1      57.361  84.950  39.063  1.00  0.00     0.034 A 
HETATM   25  C   UNL     1      58.284  84.835  38.024  1.00  0.00     0.045 A 
HETATM   26  C   UNL     1      57.889  85.080  36.709  1.00  0.00     0.050 A 
HETATM   27  C   UNL     1      56.570  85.440  36.433  1.00  0.00     0.016 A 
HETATM   28  C   UNL     1      55.646  85.555  37.471  1.00  0.00     0.003 A 
HETATM   29  C   UNL     1      56.042  85.310  38.787  1.00  0.00     0.029 A 
BRANCH  26  30
HETATM   30  C   UNL     1      58.876  84.958  35.597  1.00  0.00     0.417 C 
HETATM   31  F   UNL     1      58.816  83.763  34.940  1.00  0.00    -0.166 F 
HETATM   32  F   UNL     1      58.726  85.907  34.627  1.00  0.00    -0.166 F 
HETATM   33  F   UNL     1      60.168  85.074  36.027  1.00  0.00    -0.166 F 
ENDBRANCH  26  30
ENDBRANCH  22  24
ENDBRANCH   5  22
TORSDOF 7
ENDMDL
MODEL 6
REMARK VINA RESULT:      -7.1      9.163     12.383
REMARK  7 active torsions:
REMARK  status: ('A' for Active; 'I' for Inactive)
REMARK       I    between atoms: N_5  and  C_13 
REMARK    1  A    between atoms: N_5  and  C_14 
REMARK    2  A    between atoms: N_6  and  C_17 
REMARK    3  A    between atoms: N_6  and  C_20 
REMARK    4  A    between atoms: N_7  and  C_21 
REMARK    5  A    between atoms: N_7  and  C_23 
REMARK    6  A    between atoms: C_10  and  C_13 
REMARK    7  A    between atoms: C_24  and  C_29 
ROOT
HETATM    1  N   UNL     1      56.900  89.201  48.427  1.00  0.00    -0.224 NA
HETATM    2  N   UNL     1      57.558  86.884  48.349  1.00  0.00    -0.224 NA
HETATM    3  C   UNL     1      56.728  89.159  47.089  1.00  0.00     0.133 A 
HETATM    4  C   UNL     1      56.947  88.032  46.323  1.00  0.00     0.100 A 
HETATM    5  C   UNL     1      57.367  86.906  47.009  1.00  0.00     0.133 A 
HETATM    6  C   UNL     1      57.311  88.046  48.984  1.00  0.00     0.237 A 
ENDROOT
BRANCH   3   7
HETATM    7  N   UNL     1      56.297  90.330  46.419  1.00  0.00    -0.341 N 
HETATM    8  H   UNL     1      55.341  90.593  46.638  1.00  0.00     0.167 HD
BRANCH   7   9
HETATM    9  C   UNL     1      56.939  91.197  45.520  1.00  0.00     0.035 A 
HETATM   10  C   UNL     1      56.351  92.418  45.177  1.00  0.00     0.059 A 
HETATM   11  C   UNL     1      56.990  93.279  44.286  1.00  0.00     0.036 A 
HETATM   12  C   UNL     1      58.220  92.924  43.732  1.00  0.00     0.029 A 
HETATM   13  C   UNL     1      58.812  91.707  44.072  1.00  0.00     0.004 A 
HETATM   14  C   UNL     1      58.172  90.845  44.963  1.00  0.00     0.029 A 
BRANCH  11  15
HETATM   15  N   UNL     1      56.399  94.497  43.947  1.00  0.00    -0.327 N 
HETATM   16  C   UNL     1      56.547  95.732  44.581  1.00  0.00     0.226 C 
HETATM   17  O   UNL     1      57.228  95.994  45.564  1.00  0.00    -0.273 OA
HETATM   18  H   UNL     1      55.780  94.469  43.139  1.00  0.00     0.169 HD
BRANCH  16  19
HETATM   19  C   UNL     1      55.761  96.837  43.947  1.00  0.00     0.078 A 
HETATM   20  C   UNL     1      56.467  97.761  43.018  1.00  0.00     0.015 A 
HETATM   21  C   UNL     1      56.039  98.235  44.376  1.00  0.00     0.015 A 
ENDBRANCH  16  19
ENDBRANCH  11  15
ENDBRANCH   7   9
ENDBRANCH   3   7
BRANCH   5  22
HETATM   22  N   UNL     1      57.602  85.735  46.264  1.00  0.00    -0.341 N 
HETATM   23  H   UNL     1      57.882  84.947  46.844  1.00  0.00     0.167 HD
BRANCH  22  24
HETATM   24  C   UNL     1      57.840  85.507  44.893  1.00  0.00     0.034 A 
HETATM   25  C   UNL     1      56.775  85.237  44.034  1.00  0.00     0.045 A 
HETATM   26  C   UNL     1      57.011  85.014  42.678  1.00  0.00     0.050 A 
HETATM   27  C   UNL     1      58.313  85.061  42.180  1.00  0.00     0.016 A 
HETATM   28  C   UNL     1      59.379  85.330  43.038  1.00  0.00     0.003 A 
HETATM   29  C   UNL     1      59.142  85.554  44.395  1.00  0.00     0.029 A 
BRANCH  26  30
HETATM   30  C   UNL     1      55.872  84.726  41.759  1.00  0.00     0.417 C 
HETATM   31  F   UNL     1      55.216  85.844  41.331  1.00  0.00    -0.166 F 
HETATM   32  F   UNL     1      56.242  84.072  40.619  1.00  0.00    -0.166 F 
HETATM   33  F   UNL     1      54.917  83.940  42.338  1.00  0.00    -0.166 F 
ENDBRANCH  26  30
ENDBRANCH  22  24
ENDBRANCH   5  22
TORSDOF 7
ENDMDL
MODEL 7
REMARK VINA RESULT:      -7.0      9.606     12.878
REMARK  7 active torsions:
REMARK  status: ('A' for Active; 'I' for Inactive)
REMARK       I    between atoms: N_5  and  C_13 
REMARK    1  A    between atoms: N_5  and  C_14 
REMARK    2  A    between atoms: N_6  and  C_17 
REMARK    3  A    between atoms: N_6  and  C_20 
REMARK    4  A    between atoms: N_7  and  C_21 
REMARK    5  A    between atoms: N_7  and  C_23 
REMARK    6  A    between atoms: C_10  and  C_13 
REMARK    7  A    between atoms: C_24  and  C_29 
ROOT
HETATM    1  N   UNL     1      57.025  89.808  48.693  1.00  0.00    -0.224 NA
HETATM    2  N   UNL     1      56.593  87.438  48.635  1.00  0.00    -0.224 NA
HETATM    3  C   UNL     1      57.498  89.715  47.433  1.00  0.00     0.133 A 
HETATM    4  C   UNL     1      57.549  88.536  46.718  1.00  0.00     0.100 A 
HETATM    5  C   UNL     1      57.080  87.411  47.372  1.00  0.00     0.133 A 
HETATM    6  C   UNL     1      56.596  88.648  49.226  1.00  0.00     0.237 A 
ENDROOT
BRANCH   3   7
HETATM    7  N   UNL     1      57.972  90.887  46.794  1.00  0.00    -0.341 N 
HETATM    8  H   UNL     1      58.942  91.101  47.009  1.00  0.00     0.167 HD
BRANCH   7   9
HETATM    9  C   UNL     1      57.364  91.801  45.918  1.00  0.00     0.035 A 
HETATM   10  C   UNL     1      56.255  92.544  46.334  1.00  0.00     0.059 A 
HETATM   11  C   UNL     1      55.653  93.452  45.464  1.00  0.00     0.036 A 
HETATM   12  C   UNL     1      56.156  93.622  44.174  1.00  0.00     0.029 A 
HETATM   13  C   UNL     1      57.262  92.884  43.754  1.00  0.00     0.004 A 
HETATM   14  C   UNL     1      57.864  91.974  44.625  1.00  0.00     0.029 A 
BRANCH  11  15
HETATM   15  N   UNL     1      54.546  94.192  45.884  1.00  0.00    -0.327 N 
HETATM   16  C   UNL     1      54.454  95.059  46.975  1.00  0.00     0.226 C 
HETATM   17  O   UNL     1      55.328  95.344  47.783  1.00  0.00    -0.273 OA
HETATM   18  H   UNL     1      53.707  94.073  45.322  1.00  0.00     0.169 HD
BRANCH  16  19
HETATM   19  C   UNL     1      53.106  95.692  47.133  1.00  0.00     0.078 A 
HETATM   20  C   UNL     1      53.042  97.133  47.498  1.00  0.00     0.015 A 
HETATM   21  C   UNL     1      52.667  96.082  48.501  1.00  0.00     0.015 A 
ENDBRANCH  16  19
ENDBRANCH  11  15
ENDBRANCH   7   9
ENDBRANCH   3   7
BRANCH   5  22
HETATM   22  N   UNL     1      57.114  86.187  46.677  1.00  0.00    -0.341 N 
HETATM   23  H   UNL     1      57.125  85.380  47.298  1.00  0.00     0.167 HD
BRANCH  22  24
HETATM   24  C   UNL     1      57.455  85.852  45.350  1.00  0.00     0.034 A 
HETATM   25  C   UNL     1      56.456  85.520  44.435  1.00  0.00     0.045 A 
HETATM   26  C   UNL     1      56.793  85.191  43.123  1.00  0.00     0.050 A 
HETATM   27  C   UNL     1      58.130  85.192  42.726  1.00  0.00     0.016 A 
HETATM   28  C   UNL     1      59.130  85.523  43.640  1.00  0.00     0.003 A 
HETATM   29  C   UNL     1      58.792  85.853  44.953  1.00  0.00     0.029 A 
BRANCH  26  30
HETATM   30  C   UNL     1      55.725  84.836  42.144  1.00  0.00     0.417 C 
HETATM   31  F   UNL     1      56.199  84.258  41.001  1.00  0.00    -0.166 F 
HETATM   32  F   UNL     1      54.806  83.954  42.635  1.00  0.00    -0.166 F 
HETATM   33  F   UNL     1      55.007  85.923  41.734  1.00  0.00    -0.166 F 
ENDBRANCH  26  30
ENDBRANCH  22  24
ENDBRANCH   5  22
TORSDOF 7
ENDMDL
MODEL 8
REMARK VINA RESULT:      -7.0     11.031     15.587
REMARK  7 active torsions:
REMARK  status: ('A' for Active; 'I' for Inactive)
REMARK       I    between atoms: N_5  and  C_13 
REMARK    1  A    between atoms: N_5  and  C_14 
REMARK    2  A    between atoms: N_6  and  C_17 
REMARK    3  A    between atoms: N_6  and  C_20 
REMARK    4  A    between atoms: N_7  and  C_21 
REMARK    5  A    between atoms: N_7  and  C_23 
REMARK    6  A    between atoms: C_10  and  C_13 
REMARK    7  A    between atoms: C_24  and  C_29 
ROOT
HETATM    1  N   UNL     1      59.435  90.995  44.507  1.00  0.00    -0.224 NA
HETATM    2  N   UNL     1      58.016  92.656  43.492  1.00  0.00    -0.224 NA
HETATM    3  C   UNL     1      58.518  90.864  45.488  1.00  0.00     0.133 A 
HETATM    4  C   UNL     1      57.342  91.584  45.538  1.00  0.00     0.100 A 
HETATM    5  C   UNL     1      57.135  92.479  44.504  1.00  0.00     0.133 A 
HETATM    6  C   UNL     1      59.125  91.896  43.556  1.00  0.00     0.237 A 
ENDROOT
BRANCH   3   7
HETATM    7  N   UNL     1      58.763  89.939  46.532  1.00  0.00    -0.341 N 
HETATM    8  H   UNL     1      59.474  90.248  47.189  1.00  0.00     0.167 HD
BRANCH   7   9
HETATM    9  C   UNL     1      58.208  88.685  46.836  1.00  0.00     0.035 A 
HETATM   10  C   UNL     1      57.508  87.969  45.861  1.00  0.00     0.059 A 
HETATM   11  C   UNL     1      56.959  86.724  46.164  1.00  0.00     0.036 A 
HETATM   12  C   UNL     1      57.109  86.187  47.443  1.00  0.00     0.029 A 
HETATM   13  C   UNL     1      57.807  86.897  48.419  1.00  0.00     0.004 A 
HETATM   14  C   UNL     1      58.355  88.144  48.117  1.00  0.00     0.029 A 
BRANCH  11  15
HETATM   15  N   UNL     1      56.261  86.012  45.187  1.00  0.00    -0.327 N 
HETATM   16  C   UNL     1      56.782  85.264  44.129  1.00  0.00     0.226 C 
HETATM   17  O   UNL     1      57.959  85.081  43.847  1.00  0.00    -0.273 OA
HETATM   18  H   UNL     1      55.247  86.056  45.261  1.00  0.00     0.169 HD
BRANCH  16  19
HETATM   19  C   UNL     1      55.738  84.627  43.266  1.00  0.00     0.078 A 
HETATM   20  C   UNL     1      55.907  84.694  41.789  1.00  0.00     0.015 A 
HETATM   21  C   UNL     1      54.849  85.514  42.466  1.00  0.00     0.015 A 
ENDBRANCH  16  19
ENDBRANCH  11  15
ENDBRANCH   7   9
ENDBRANCH   3   7
BRANCH   5  22
HETATM   22  N   UNL     1      55.946  93.233  44.518  1.00  0.00    -0.341 N 
HETATM   23  H   UNL     1      55.244  92.876  43.873  1.00  0.00     0.167 HD
BRANCH  22  24
HETATM   24  C   UNL     1      55.644  94.530  44.982  1.00  0.00     0.034 A 
HETATM   25  C   UNL     1      56.020  95.645  44.232  1.00  0.00     0.045 A 
HETATM   26  C   UNL     1      55.719  96.927  44.691  1.00  0.00     0.050 A 
HETATM   27  C   UNL     1      55.042  97.095  45.898  1.00  0.00     0.016 A 
HETATM   28  C   UNL     1      54.666  95.981  46.648  1.00  0.00     0.003 A 
HETATM   29  C   UNL     1      54.966  94.698  46.190  1.00  0.00     0.029 A 
BRANCH  26  30
HETATM   30  C   UNL     1      56.121  98.120  43.889  1.00  0.00     0.417 C 
HETATM   31  F   UNL     1      55.476  99.267  44.253  1.00  0.00    -0.166 F 
HETATM   32  F   UNL     1      57.451  98.415  43.981  1.00  0.00    -0.166 F 
HETATM   33  F   UNL     1      55.871  97.965  42.556  1.00  0.00    -0.166 F 
ENDBRANCH  26  30
ENDBRANCH  22  24
ENDBRANCH   5  22
TORSDOF 7
ENDMDL
MODEL 9
REMARK VINA RESULT:      -6.9     11.158     15.726
REMARK  7 active torsions:
REMARK  status: ('A' for Active; 'I' for Inactive)
REMARK       I    between atoms: N_5  and  C_13 
REMARK    1  A    between atoms: N_5  and  C_14 
REMARK    2  A    between atoms: N_6  and  C_17 
REMARK    3  A    between atoms: N_6  and  C_20 
REMARK    4  A    between atoms: N_7  and  C_21 
REMARK    5  A    between atoms: N_7  and  C_23 
REMARK    6  A    between atoms: C_10  and  C_13 
REMARK    7  A    between atoms: C_24  and  C_29 
ROOT
HETATM    1  N   UNL     1      59.422  90.894  44.809  1.00  0.00    -0.224 NA
HETATM    2  N   UNL     1      58.087  92.560  43.692  1.00  0.00    -0.224 NA
HETATM    3  C   UNL     1      58.430  90.760  45.715  1.00  0.00     0.133 A 
HETATM    4  C   UNL     1      57.254  91.481  45.676  1.00  0.00     0.100 A 
HETATM    5  C   UNL     1      57.129  92.380  44.632  1.00  0.00     0.133 A 
HETATM    6  C   UNL     1      59.187  91.799  43.840  1.00  0.00     0.237 A 
ENDROOT
BRANCH   3   7
HETATM    7  N   UNL     1      58.592  89.831  46.771  1.00  0.00    -0.341 N 
HETATM    8  H   UNL     1      59.219  90.155  47.503  1.00  0.00     0.167 HD
BRANCH   7   9
HETATM    9  C   UNL     1      58.049  88.557  47.004  1.00  0.00     0.035 A 
HETATM   10  C   UNL     1      57.401  87.869  45.975  1.00  0.00     0.059 A 
HETATM   11  C   UNL     1      56.863  86.603  46.207  1.00  0.00     0.036 A 
HETATM   12  C   UNL     1      56.971  86.020  47.470  1.00  0.00     0.029 A 
HETATM   13  C   UNL     1      57.617  86.703  48.500  1.00  0.00     0.004 A 
HETATM   14  C   UNL     1      58.154  87.969  48.268  1.00  0.00     0.029 A 
BRANCH  11  15
HETATM   15  N   UNL     1      56.217  85.919  45.176  1.00  0.00    -0.327 N 
HETATM   16  C   UNL     1      56.786  85.332  44.044  1.00  0.00     0.226 C 
HETATM   17  O   UNL     1      57.969  85.299  43.730  1.00  0.00    -0.273 OA
HETATM   18  H   UNL     1      55.206  85.851  45.268  1.00  0.00     0.169 HD
BRANCH  16  19
HETATM   19  C   UNL     1      55.792  84.675  43.138  1.00  0.00     0.078 A 
HETATM   20  C   UNL     1      56.062  84.676  41.675  1.00  0.00     0.015 A 
HETATM   21  C   UNL     1      54.976  85.541  42.243  1.00  0.00     0.015 A 
ENDBRANCH  16  19
ENDBRANCH  11  15
ENDBRANCH   7   9
ENDBRANCH   3   7
BRANCH   5  22
HETATM   22  N   UNL     1      55.943  93.135  44.556  1.00  0.00    -0.341 N 
HETATM   23  H   UNL     1      55.340  92.846  43.788  1.00  0.00     0.167 HD
BRANCH  22  24
HETATM   24  C   UNL     1      55.569  94.382  45.097  1.00  0.00     0.034 A 
HETATM   25  C   UNL     1      54.860  94.438  46.297  1.00  0.00     0.045 A 
HETATM   26  C   UNL     1      54.492  95.672  46.833  1.00  0.00     0.050 A 
HETATM   27  C   UNL     1      54.832  96.850  46.168  1.00  0.00     0.016 A 
HETATM   28  C   UNL     1      55.540  96.795  44.968  1.00  0.00     0.003 A 
HETATM   29  C   UNL     1      55.908  95.560  44.432  1.00  0.00     0.029 A 
BRANCH  26  30
HETATM   30  C   UNL     1      53.734  95.732  48.116  1.00  0.00     0.417 C 
HETATM   31  F   UNL     1      54.125  94.795  49.028  1.00  0.00    -0.166 F 
HETATM   32  F   UNL     1      53.850  96.929  48.763  1.00  0.00    -0.166 F 
HETATM   33  F   UNL     1      52.393  95.538  47.944  1.00  0.00    -0.166 F 
ENDBRANCH  26  30
ENDBRANCH  22  24
ENDBRANCH   5  22
TORSDOF 7
ENDMDL
