MODEL 1
REMARK VINA RESULT:      -7.4      0.000      0.000
REMARK  7 active torsions:
REMARK  status: ('A' for Active; 'I' for Inactive)
REMARK       I    between atoms: N_5  and  C_13 
REMARK    1  A    between atoms: N_5  and  C_14 
REMARK    2  A    between atoms: N_6  and  C_17 
REMARK    3  A    between atoms: N_6  and  C_20 
REMARK    4  A    between atoms: N_7  and  C_21 
REMARK    5  A    between atoms: N_7  and  C_23 
REMARK    6  A    between atoms: C_10  and  C_13 
REMARK    7  A    between atoms: C_24  and  C_29 
ROOT
HETATM    1  N   UNL     1      60.806  82.483  32.428  1.00  0.00    -0.224 NA
HETATM    2  N   UNL     1      59.711  84.549  33.009  1.00  0.00    -0.224 NA
HETATM    3  C   UNL     1      61.065  82.294  33.739  1.00  0.00     0.133 A 
HETATM    4  C   UNL     1      60.683  83.175  34.730  1.00  0.00     0.100 A 
HETATM    5  C   UNL     1      60.001  84.302  34.308  1.00  0.00     0.133 A 
HETATM    6  C   UNL     1      60.137  83.615  32.138  1.00  0.00     0.237 A 
ENDROOT
BRANCH   3   7
HETATM    7  N   UNL     1      61.766  81.129  34.135  1.00  0.00    -0.341 N 
HETATM    8  H   UNL     1      62.768  81.186  33.975  1.00  0.00     0.167 HD
BRANCH   7   9
HETATM    9  C   UNL     1      61.345  79.919  34.711  1.00  0.00     0.035 A 
HETATM   10  C   UNL     1      60.688  78.961  33.934  1.00  0.00     0.059 A 
HETATM   11  C   UNL     1      60.272  77.760  34.507  1.00  0.00     0.036 A 
HETATM   12  C   UNL     1      60.512  77.510  35.858  1.00  0.00     0.029 A 
HETATM   13  C   UNL     1      61.168  78.463  36.637  1.00  0.00     0.004 A 
HETATM   14  C   UNL     1      61.583  79.666  36.065  1.00  0.00     0.029 A 
BRANCH  11  15
HETATM   15  N   UNL     1      59.617  76.805  33.727  1.00  0.00    -0.327 N 
HETATM   16  C   UNL     1      58.242  76.647  33.534  1.00  0.00     0.226 C 
HETATM   17  O   UNL     1      57.336  77.317  34.011  1.00  0.00    -0.273 OA
HETATM   18  H   UNL     1      60.225  76.144  33.249  1.00  0.00     0.169 HD
BRANCH  16  19
HETATM   19  C   UNL     1      57.885  75.511  32.627  1.00  0.00     0.078 A 
HETATM   20  C   UNL     1      58.989  74.713  32.028  1.00  0.00     0.015 A 
HETATM   21  C   UNL     1      58.183  75.648  31.175  1.00  0.00     0.015 A 
ENDBRANCH  16  19
ENDBRANCH  11  15
ENDBRANCH   7   9
ENDBRANCH   3   7
BRANCH   5  22
HETATM   22  N   UNL     1      59.593  85.227  35.289  1.00  0.00    -0.341 N 
HETATM   23  H   UNL     1      60.171  85.195  36.126  1.00  0.00     0.167 HD
BRANCH  22  24
HETATM   24  C   UNL     1      58.394  85.941  35.488  1.00  0.00     0.034 A 
HETATM   25  C   UNL     1      57.451  85.482  36.408  1.00  0.00     0.045 A 
HETATM   26  C   UNL     1      56.267  86.190  36.605  1.00  0.00     0.050 A 
HETATM   27  C   UNL     1      56.024  87.358  35.882  1.00  0.00     0.016 A 
HETATM   28  C   UNL     1      56.965  87.818  34.962  1.00  0.00     0.003 A 
HETATM   29  C   UNL     1      58.151  87.109  34.765  1.00  0.00     0.029 A 
BRANCH  26  30
HETATM   30  C   UNL     1      55.258  85.699  37.589  1.00  0.00     0.417 C 
HETATM   31  F   UNL     1      55.558  84.475  38.115  1.00  0.00    -0.166 F 
HETATM   32  F   UNL     1      55.101  86.522  38.666  1.00  0.00    -0.166 F 
HETATM   33  F   UNL     1      54.013  85.568  37.043  1.00  0.00    -0.166 F 
ENDBRANCH  26  30
ENDBRANCH  22  24
ENDBRANCH   5  22
TORSDOF 7
ENDMDL
MODEL 2
REMARK VINA RESULT:      -7.3      4.206      6.529
REMARK  7 active torsions:
REMARK  status: ('A' for Active; 'I' for Inactive)
REMARK       I    between atoms: N_5  and  C_13 
REMARK    1  A    between atoms: N_5  and  C_14 
REMARK    2  A    between atoms: N_6  and  C_17 
REMARK    3  A    between atoms: N_6  and  C_20 
REMARK    4  A    between atoms: N_7  and  C_21 
REMARK    5  A    between atoms: N_7  and  C_23 
REMARK    6  A    between atoms: C_10  and  C_13 
REMARK    7  A    between atoms: C_24  and  C_29 
ROOT
HETATM    1  N   UNL     1      56.591  86.611  36.446  1.00  0.00    -0.224 NA
HETATM    2  N   UNL     1      55.437  85.837  38.415  1.00  0.00    -0.224 NA
HETATM    3  C   UNL     1      57.688  85.954  36.876  1.00  0.00     0.133 A 
HETATM    4  C   UNL     1      57.736  85.227  38.048  1.00  0.00     0.100 A 
HETATM    5  C   UNL     1      56.570  85.199  38.792  1.00  0.00     0.133 A 
HETATM    6  C   UNL     1      55.517  86.512  37.253  1.00  0.00     0.237 A 
ENDROOT
BRANCH   3   7
HETATM    7  N   UNL     1      58.865  86.005  36.090  1.00  0.00    -0.341 N 
HETATM    8  H   UNL     1      59.562  86.653  36.446  1.00  0.00     0.167 HD
BRANCH   7   9
HETATM    9  C   UNL     1      59.254  85.329  34.922  1.00  0.00     0.035 A 
HETATM   10  C   UNL     1      59.341  83.934  34.911  1.00  0.00     0.059 A 
HETATM   11  C   UNL     1      59.727  83.265  33.750  1.00  0.00     0.036 A 
HETATM   12  C   UNL     1      60.027  83.987  32.594  1.00  0.00     0.029 A 
HETATM   13  C   UNL     1      59.941  85.379  32.600  1.00  0.00     0.004 A 
HETATM   14  C   UNL     1      59.556  86.049  33.762  1.00  0.00     0.029 A 
BRANCH  11  15
HETATM   15  N   UNL     1      59.811  81.872  33.743  1.00  0.00    -0.327 N 
HETATM   16  C   UNL     1      59.086  80.968  32.963  1.00  0.00     0.226 C 
HETATM   17  O   UNL     1      58.228  81.220  32.127  1.00  0.00    -0.273 OA
HETATM   18  H   UNL     1      60.485  81.475  34.395  1.00  0.00     0.169 HD
BRANCH  16  19
HETATM   19  C   UNL     1      59.434  79.535  33.215  1.00  0.00     0.078 A 
HETATM   20  C   UNL     1      59.350  78.578  32.079  1.00  0.00     0.015 A 
HETATM   21  C   UNL     1      58.339  78.528  33.185  1.00  0.00     0.015 A 
ENDBRANCH  16  19
ENDBRANCH  11  15
ENDBRANCH   7   9
ENDBRANCH   3   7
BRANCH   5  22
HETATM   22  N   UNL     1      56.578  84.467  39.994  1.00  0.00    -0.341 N 
HETATM   23  H   UNL     1      56.341  83.486  39.862  1.00  0.00     0.167 HD
BRANCH  22  24
HETATM   24  C   UNL     1      56.527  84.856  41.349  1.00  0.00     0.034 A 
HETATM   25  C   UNL     1      57.702  84.949  42.094  1.00  0.00     0.045 A 
HETATM   26  C   UNL     1      57.651  85.336  43.433  1.00  0.00     0.050 A 
HETATM   27  C   UNL     1      56.424  85.629  44.028  1.00  0.00     0.016 A 
HETATM   28  C   UNL     1      55.248  85.535  43.284  1.00  0.00     0.003 A 
HETATM   29  C   UNL     1      55.299  85.149  41.944  1.00  0.00     0.029 A 
BRANCH  26  30
HETATM   30  C   UNL     1      58.908  85.436  44.230  1.00  0.00     0.417 C 
HETATM   31  F   UNL     1      58.756  86.103  45.411  1.00  0.00    -0.166 F 
HETATM   32  F   UNL     1      59.436  84.223  44.571  1.00  0.00    -0.166 F 
HETATM   33  F   UNL     1      59.902  86.093  43.563  1.00  0.00    -0.166 F 
ENDBRANCH  26  30
ENDBRANCH  22  24
ENDBRANCH   5  22
TORSDOF 7
ENDMDL
MODEL 3
REMARK VINA RESULT:      -7.3      1.790      2.950
REMARK  7 active torsions:
REMARK  status: ('A' for Active; 'I' for Inactive)
REMARK       I    between atoms: N_5  and  C_13 
REMARK    1  A    between atoms: N_5  and  C_14 
REMARK    2  A    between atoms: N_6  and  C_17 
REMARK    3  A    between atoms: N_6  and  C_20 
REMARK    4  A    between atoms: N_7  and  C_21 
REMARK    5  A    between atoms: N_7  and  C_23 
REMARK    6  A    between atoms: C_10  and  C_13 
REMARK    7  A    between atoms: C_24  and  C_29 
ROOT
HETATM    1  N   UNL     1      62.012  82.854  36.237  1.00  0.00    -0.224 NA
HETATM    2  N   UNL     1      61.302  84.792  37.481  1.00  0.00    -0.224 NA
HETATM    3  C   UNL     1      61.327  83.330  35.176  1.00  0.00     0.133 A 
HETATM    4  C   UNL     1      60.617  84.513  35.191  1.00  0.00     0.100 A 
HETATM    5  C   UNL     1      60.635  85.216  36.382  1.00  0.00     0.133 A 
HETATM    6  C   UNL     1      61.957  83.623  37.341  1.00  0.00     0.237 A 
ENDROOT
BRANCH   3   7
HETATM    7  N   UNL     1      61.329  82.585  33.972  1.00  0.00    -0.341 N 
HETATM    8  H   UNL     1      62.260  82.412  33.604  1.00  0.00     0.167 HD
BRANCH   7   9
HETATM    9  C   UNL     1      60.295  82.035  33.196  1.00  0.00     0.035 A 
HETATM   10  C   UNL     1      59.808  80.756  33.477  1.00  0.00     0.059 A 
HETATM   11  C   UNL     1      58.781  80.211  32.707  1.00  0.00     0.036 A 
HETATM   12  C   UNL     1      58.236  80.944  31.652  1.00  0.00     0.029 A 
HETATM   13  C   UNL     1      58.718  82.221  31.368  1.00  0.00     0.004 A 
HETATM   14  C   UNL     1      59.747  82.765  32.138  1.00  0.00     0.029 A 
BRANCH  11  15
HETATM   15  N   UNL     1      58.296  78.934  32.993  1.00  0.00    -0.327 N 
HETATM   16  C   UNL     1      58.930  77.706  32.787  1.00  0.00     0.226 C 
HETATM   17  O   UNL     1      60.042  77.506  32.314  1.00  0.00    -0.273 OA
HETATM   18  H   UNL     1      57.362  78.904  33.395  1.00  0.00     0.169 HD
BRANCH  16  19
HETATM   19  C   UNL     1      58.115  76.525  33.211  1.00  0.00     0.078 A 
HETATM   20  C   UNL     1      58.816  75.237  33.460  1.00  0.00     0.015 A 
HETATM   21  C   UNL     1      57.948  75.402  32.248  1.00  0.00     0.015 A 
ENDBRANCH  16  19
ENDBRANCH  11  15
ENDBRANCH   7   9
ENDBRANCH   3   7
BRANCH   5  22
HETATM   22  N   UNL     1      59.923  86.429  36.439  1.00  0.00    -0.341 N 
HETATM   23  H   UNL     1      60.421  87.157  36.945  1.00  0.00     0.167 HD
BRANCH  22  24
HETATM   24  C   UNL     1      58.565  86.749  36.231  1.00  0.00     0.034 A 
HETATM   25  C   UNL     1      57.587  86.226  37.077  1.00  0.00     0.045 A 
HETATM   26  C   UNL     1      56.245  86.545  36.872  1.00  0.00     0.050 A 
HETATM   27  C   UNL     1      55.880  87.386  35.821  1.00  0.00     0.016 A 
HETATM   28  C   UNL     1      56.858  87.909  34.975  1.00  0.00     0.003 A 
HETATM   29  C   UNL     1      58.200  87.590  35.180  1.00  0.00     0.029 A 
BRANCH  26  30
HETATM   30  C   UNL     1      55.198  85.985  37.777  1.00  0.00     0.417 C 
HETATM   31  F   UNL     1      54.980  86.739  38.894  1.00  0.00    -0.166 F 
HETATM   32  F   UNL     1      53.974  85.863  37.185  1.00  0.00    -0.166 F 
HETATM   33  F   UNL     1      55.511  84.737  38.233  1.00  0.00    -0.166 F 
ENDBRANCH  26  30
ENDBRANCH  22  24
ENDBRANCH   5  22
TORSDOF 7
ENDMDL
MODEL 4
REMARK VINA RESULT:      -7.2      3.987      8.944
REMARK  7 active torsions:
REMARK  status: ('A' for Active; 'I' for Inactive)
REMARK       I    between atoms: N_5  and  C_13 
REMARK    1  A    between atoms: N_5  and  C_14 
REMARK    2  A    between atoms: N_6  and  C_17 
REMARK    3  A    between atoms: N_6  and  C_20 
REMARK    4  A    between atoms: N_7  and  C_21 
REMARK    5  A    between atoms: N_7  and  C_23 
REMARK    6  A    between atoms: C_10  and  C_13 
REMARK    7  A    between atoms: C_24  and  C_29 
ROOT
HETATM    1  N   UNL     1      59.581  84.554  33.492  1.00  0.00    -0.224 NA
HETATM    2  N   UNL     1      60.380  82.502  32.514  1.00  0.00    -0.224 NA
HETATM    3  C   UNL     1      60.005  84.104  34.691  1.00  0.00     0.133 A 
HETATM    4  C   UNL     1      60.618  82.882  34.879  1.00  0.00     0.100 A 
HETATM    5  C   UNL     1      60.784  82.108  33.744  1.00  0.00     0.133 A 
HETATM    6  C   UNL     1      59.796  83.714  32.462  1.00  0.00     0.237 A 
ENDROOT
BRANCH   3   7
HETATM    7  N   UNL     1      59.818  84.923  35.832  1.00  0.00    -0.341 N 
HETATM    8  H   UNL     1      60.661  85.040  36.388  1.00  0.00     0.167 HD
BRANCH   7   9
HETATM    9  C   UNL     1      58.699  85.605  36.336  1.00  0.00     0.035 A 
HETATM   10  C   UNL     1      58.086  85.178  37.517  1.00  0.00     0.059 A 
HETATM   11  C   UNL     1      56.976  85.857  38.017  1.00  0.00     0.036 A 
HETATM   12  C   UNL     1      56.473  86.968  37.338  1.00  0.00     0.029 A 
HETATM   13  C   UNL     1      57.081  87.398  36.159  1.00  0.00     0.004 A 
HETATM   14  C   UNL     1      58.191  86.718  35.659  1.00  0.00     0.029 A 
BRANCH  11  15
HETATM   15  N   UNL     1      56.368  85.427  39.197  1.00  0.00    -0.327 N 
HETATM   16  C   UNL     1      56.953  84.755  40.272  1.00  0.00     0.226 C 
HETATM   17  O   UNL     1      58.121  84.408  40.394  1.00  0.00    -0.273 OA
HETATM   18  H   UNL     1      55.373  85.629  39.271  1.00  0.00     0.169 HD
BRANCH  16  19
HETATM   19  C   UNL     1      56.000  84.444  41.384  1.00  0.00     0.078 A 
HETATM   20  C   UNL     1      55.228  85.565  41.985  1.00  0.00     0.015 A 
HETATM   21  C   UNL     1      56.339  84.914  42.755  1.00  0.00     0.015 A 
ENDBRANCH  16  19
ENDBRANCH  11  15
ENDBRANCH   7   9
ENDBRANCH   3   7
BRANCH   5  22
HETATM   22  N   UNL     1      61.406  80.853  33.893  1.00  0.00    -0.341 N 
HETATM   23  H   UNL     1      62.224  80.745  33.297  1.00  0.00     0.167 HD
BRANCH  22  24
HETATM   24  C   UNL     1      60.965  79.627  34.433  1.00  0.00     0.034 A 
HETATM   25  C   UNL     1      59.939  78.918  33.811  1.00  0.00     0.045 A 
HETATM   26  C   UNL     1      59.505  77.705  34.345  1.00  0.00     0.050 A 
HETATM   27  C   UNL     1      60.098  77.201  35.503  1.00  0.00     0.016 A 
HETATM   28  C   UNL     1      61.124  77.911  36.127  1.00  0.00     0.003 A 
HETATM   29  C   UNL     1      61.558  79.124  35.591  1.00  0.00     0.029 A 
BRANCH  26  30
HETATM   30  C   UNL     1      58.407  76.946  33.679  1.00  0.00     0.417 C 
HETATM   31  F   UNL     1      58.311  77.184  32.338  1.00  0.00    -0.166 F 
HETATM   32  F   UNL     1      58.533  75.591  33.792  1.00  0.00    -0.166 F 
HETATM   33  F   UNL     1      57.177  77.243  34.192  1.00  0.00    -0.166 F 
ENDBRANCH  26  30
ENDBRANCH  22  24
ENDBRANCH   5  22
TORSDOF 7
ENDMDL
MODEL 5
REMARK VINA RESULT:      -7.2      8.010     12.744
REMARK  7 active torsions:
REMARK  status: ('A' for Active; 'I' for Inactive)
REMARK       I    between atoms: N_5  and  C_13 
REMARK    1  A    between atoms: N_5  and  C_14 
REMARK    2  A    between atoms: N_6  and  C_17 
REMARK    3  A    between atoms: N_6  and  C_20 
REMARK    4  A    between atoms: N_7  and  C_21 
REMARK    5  A    between atoms: N_7  and  C_23 
REMARK    6  A    between atoms: C_10  and  C_13 
REMARK    7  A    between atoms: C_24  and  C_29 
ROOT
HETATM    1  N   UNL     1      55.526  85.709  43.805  1.00  0.00    -0.224 NA
HETATM    2  N   UNL     1      55.610  85.044  41.490  1.00  0.00    -0.224 NA
HETATM    3  C   UNL     1      56.863  85.535  43.865  1.00  0.00     0.133 A 
HETATM    4  C   UNL     1      57.631  85.124  42.795  1.00  0.00     0.100 A 
HETATM    5  C   UNL     1      56.949  84.888  41.615  1.00  0.00     0.133 A 
HETATM    6  C   UNL     1      54.973  85.449  42.605  1.00  0.00     0.237 A 
ENDROOT
BRANCH   3   7
HETATM    7  N   UNL     1      57.529  85.785  45.089  1.00  0.00    -0.341 N 
HETATM    8  H   UNL     1      58.278  85.126  45.285  1.00  0.00     0.167 HD
BRANCH   7   9
HETATM    9  C   UNL     1      57.360  86.769  46.078  1.00  0.00     0.035 A 
HETATM   10  C   UNL     1      57.409  88.124  45.738  1.00  0.00     0.059 A 
HETATM   11  C   UNL     1      57.239  89.100  46.719  1.00  0.00     0.036 A 
HETATM   12  C   UNL     1      57.018  88.725  48.045  1.00  0.00     0.029 A 
HETATM   13  C   UNL     1      56.968  87.375  48.389  1.00  0.00     0.004 A 
HETATM   14  C   UNL     1      57.139  86.398  47.407  1.00  0.00     0.029 A 
BRANCH  11  15
HETATM   15  N   UNL     1      57.288  90.451  46.376  1.00  0.00    -0.327 N 
HETATM   16  C   UNL     1      56.307  91.214  45.738  1.00  0.00     0.226 C 
HETATM   17  O   UNL     1      55.204  90.848  45.353  1.00  0.00    -0.273 OA
HETATM   18  H   UNL     1      58.153  90.930  46.619  1.00  0.00     0.169 HD
BRANCH  16  19
HETATM   19  C   UNL     1      56.696  92.644  45.524  1.00  0.00     0.078 A 
HETATM   20  C   UNL     1      55.664  93.587  45.015  1.00  0.00     0.015 A 
HETATM   21  C   UNL     1      56.789  93.146  44.126  1.00  0.00     0.015 A 
ENDBRANCH  16  19
ENDBRANCH  11  15
ENDBRANCH   7   9
ENDBRANCH   3   7
BRANCH   5  22
HETATM   22  N   UNL     1      57.697  84.468  40.499  1.00  0.00    -0.341 N 
HETATM   23  H   UNL     1      58.560  83.994  40.757  1.00  0.00     0.167 HD
BRANCH  22  24
HETATM   24  C   UNL     1      57.670  84.836  39.137  1.00  0.00     0.034 A 
HETATM   25  C   UNL     1      56.475  85.253  38.550  1.00  0.00     0.045 A 
HETATM   26  C   UNL     1      56.450  85.619  37.205  1.00  0.00     0.050 A 
HETATM   27  C   UNL     1      57.619  85.567  36.446  1.00  0.00     0.016 A 
HETATM   28  C   UNL     1      58.814  85.150  37.032  1.00  0.00     0.003 A 
HETATM   29  C   UNL     1      58.839  84.784  38.379  1.00  0.00     0.029 A 
BRANCH  26  30
HETATM   30  C   UNL     1      55.172  86.065  36.576  1.00  0.00     0.417 C 
HETATM   31  F   UNL     1      54.152  86.230  37.468  1.00  0.00    -0.166 F 
HETATM   32  F   UNL     1      55.273  87.260  35.925  1.00  0.00    -0.166 F 
HETATM   33  F   UNL     1      54.707  85.179  35.647  1.00  0.00    -0.166 F 
ENDBRANCH  26  30
ENDBRANCH  22  24
ENDBRANCH   5  22
TORSDOF 7
ENDMDL
MODEL 6
REMARK VINA RESULT:      -7.1      4.891      7.819
REMARK  7 active torsions:
REMARK  status: ('A' for Active; 'I' for Inactive)
REMARK       I    between atoms: N_5  and  C_13 
REMARK    1  A    between atoms: N_5  and  C_14 
REMARK    2  A    between atoms: N_6  and  C_17 
REMARK    3  A    between atoms: N_6  and  C_20 
REMARK    4  A    between atoms: N_7  and  C_21 
REMARK    5  A    between atoms: N_7  and  C_23 
REMARK    6  A    between atoms: C_10  and  C_13 
REMARK    7  A    between atoms: C_24  and  C_29 
ROOT
HETATM    1  N   UNL     1      61.959  81.791  39.998  1.00  0.00    -0.224 NA
HETATM    2  N   UNL     1      61.240  82.634  42.138  1.00  0.00    -0.224 NA
HETATM    3  C   UNL     1      61.729  83.016  39.480  1.00  0.00     0.133 A 
HETATM    4  C   UNL     1      61.262  84.085  40.218  1.00  0.00     0.100 A 
HETATM    5  C   UNL     1      61.030  83.839  41.559  1.00  0.00     0.133 A 
HETATM    6  C   UNL     1      61.695  81.672  41.313  1.00  0.00     0.237 A 
ENDROOT
BRANCH   3   7
HETATM    7  N   UNL     1      61.977  83.232  38.103  1.00  0.00    -0.341 N 
HETATM    8  H   UNL     1      62.966  83.269  37.871  1.00  0.00     0.167 HD
BRANCH   7   9
HETATM    9  C   UNL     1      61.123  83.396  37.000  1.00  0.00     0.035 A 
HETATM   10  C   UNL     1      60.140  84.390  37.013  1.00  0.00     0.059 A 
HETATM   11  C   UNL     1      59.294  84.554  35.917  1.00  0.00     0.036 A 
HETATM   12  C   UNL     1      59.425  83.724  34.803  1.00  0.00     0.029 A 
HETATM   13  C   UNL     1      60.404  82.731  34.786  1.00  0.00     0.004 A 
HETATM   14  C   UNL     1      61.251  82.567  35.883  1.00  0.00     0.029 A 
BRANCH  11  15
HETATM   15  N   UNL     1      58.315  85.549  35.934  1.00  0.00    -0.327 N 
HETATM   16  C   UNL     1      56.989  85.445  36.361  1.00  0.00     0.226 C 
HETATM   17  O   UNL     1      56.420  84.458  36.809  1.00  0.00    -0.273 OA
HETATM   18  H   UNL     1      58.613  86.456  35.583  1.00  0.00     0.169 HD
BRANCH  16  19
HETATM   19  C   UNL     1      56.212  86.719  36.239  1.00  0.00     0.078 A 
HETATM   20  C   UNL     1      56.580  87.668  35.154  1.00  0.00     0.015 A 
HETATM   21  C   UNL     1      56.895  87.996  36.584  1.00  0.00     0.015 A 
ENDBRANCH  16  19
ENDBRANCH  11  15
ENDBRANCH   7   9
ENDBRANCH   3   7
BRANCH   5  22
HETATM   22  N   UNL     1      60.553  84.904  42.347  1.00  0.00    -0.341 N 
HETATM   23  H   UNL     1      61.298  85.505  42.691  1.00  0.00     0.167 HD
BRANCH  22  24
HETATM   24  C   UNL     1      59.329  85.126  43.013  1.00  0.00     0.034 A 
HETATM   25  C   UNL     1      58.126  85.023  42.315  1.00  0.00     0.045 A 
HETATM   26  C   UNL     1      56.917  85.241  42.974  1.00  0.00     0.050 A 
HETATM   27  C   UNL     1      56.910  85.563  44.331  1.00  0.00     0.016 A 
HETATM   28  C   UNL     1      58.113  85.667  45.029  1.00  0.00     0.003 A 
HETATM   29  C   UNL     1      59.323  85.448  44.370  1.00  0.00     0.029 A 
BRANCH  26  30
HETATM   30  C   UNL     1      55.629  85.131  42.228  1.00  0.00     0.417 C 
HETATM   31  F   UNL     1      54.908  84.016  42.542  1.00  0.00    -0.166 F 
HETATM   32  F   UNL     1      54.780  86.178  42.447  1.00  0.00    -0.166 F 
HETATM   33  F   UNL     1      55.809  85.082  40.875  1.00  0.00    -0.166 F 
ENDBRANCH  26  30
ENDBRANCH  22  24
ENDBRANCH   5  22
TORSDOF 7
ENDMDL
MODEL 7
REMARK VINA RESULT:      -7.0      6.581     10.269
REMARK  7 active torsions:
REMARK  status: ('A' for Active; 'I' for Inactive)
REMARK       I    between atoms: N_5  and  C_13 
REMARK    1  A    between atoms: N_5  and  C_14 
REMARK    2  A    between atoms: N_6  and  C_17 
REMARK    3  A    between atoms: N_6  and  C_20 
REMARK    4  A    between atoms: N_7  and  C_21 
REMARK    5  A    between atoms: N_7  and  C_23 
REMARK    6  A    between atoms: C_10  and  C_13 
REMARK    7  A    between atoms: C_24  and  C_29 
ROOT
HETATM    1  N   UNL     1      60.827  82.952  41.246  1.00  0.00    -0.224 NA
HETATM    2  N   UNL     1      61.151  82.522  38.897  1.00  0.00    -0.224 NA
HETATM    3  C   UNL     1      60.142  84.065  40.910  1.00  0.00     0.133 A 
HETATM    4  C   UNL     1      59.922  84.466  39.607  1.00  0.00     0.100 A 
HETATM    5  C   UNL     1      60.454  83.650  38.625  1.00  0.00     0.133 A 
HETATM    6  C   UNL     1      61.297  82.238  40.205  1.00  0.00     0.237 A 
ENDROOT
BRANCH   3   7
HETATM    7  N   UNL     1      59.611  84.877  41.941  1.00  0.00    -0.341 N 
HETATM    8  H   UNL     1      60.275  85.555  42.304  1.00  0.00     0.167 HD
BRANCH   7   9
HETATM    9  C   UNL     1      58.347  84.929  42.551  1.00  0.00     0.035 A 
HETATM   10  C   UNL     1      58.239  85.092  43.935  1.00  0.00     0.059 A 
HETATM   11  C   UNL     1      56.984  85.145  44.539  1.00  0.00     0.036 A 
HETATM   12  C   UNL     1      55.830  85.036  43.763  1.00  0.00     0.029 A 
HETATM   13  C   UNL     1      55.932  84.875  42.381  1.00  0.00     0.004 A 
HETATM   14  C   UNL     1      57.189  84.820  41.777  1.00  0.00     0.029 A 
BRANCH  11  15
HETATM   15  N   UNL     1      56.881  85.308  45.922  1.00  0.00    -0.327 N 
HETATM   16  C   UNL     1      57.087  86.469  46.670  1.00  0.00     0.226 C 
HETATM   17  O   UNL     1      57.399  87.579  46.261  1.00  0.00    -0.273 OA
HETATM   18  H   UNL     1      56.629  84.468  46.440  1.00  0.00     0.169 HD
BRANCH  16  19
HETATM   19  C   UNL     1      56.889  86.284  48.142  1.00  0.00     0.078 A 
HETATM   20  C   UNL     1      56.784  87.496  48.998  1.00  0.00     0.015 A 
HETATM   21  C   UNL     1      58.012  86.635  49.054  1.00  0.00     0.015 A 
ENDBRANCH  16  19
ENDBRANCH  11  15
ENDBRANCH   7   9
ENDBRANCH   3   7
BRANCH   5  22
HETATM   22  N   UNL     1      60.252  84.024  37.283  1.00  0.00    -0.341 N 
HETATM   23  H   UNL     1      60.922  83.596  36.648  1.00  0.00     0.167 HD
BRANCH  22  24
HETATM   24  C   UNL     1      59.546  85.088  36.684  1.00  0.00     0.034 A 
HETATM   25  C   UNL     1      58.151  85.096  36.699  1.00  0.00     0.045 A 
HETATM   26  C   UNL     1      57.453  86.149  36.109  1.00  0.00     0.050 A 
HETATM   27  C   UNL     1      58.150  87.194  35.502  1.00  0.00     0.016 A 
HETATM   28  C   UNL     1      59.544  87.187  35.486  1.00  0.00     0.003 A 
HETATM   29  C   UNL     1      60.242  86.133  36.078  1.00  0.00     0.029 A 
BRANCH  26  30
HETATM   30  C   UNL     1      55.961  86.158  36.124  1.00  0.00     0.417 C 
HETATM   31  F   UNL     1      55.405  86.762  35.033  1.00  0.00    -0.166 F 
HETATM   32  F   UNL     1      55.408  84.910  36.160  1.00  0.00    -0.166 F 
HETATM   33  F   UNL     1      55.451  86.816  37.207  1.00  0.00    -0.166 F 
ENDBRANCH  26  30
ENDBRANCH  22  24
ENDBRANCH   5  22
TORSDOF 7
ENDMDL
MODEL 8
REMARK VINA RESULT:      -7.0      6.906     10.213
REMARK  7 active torsions:
REMARK  status: ('A' for Active; 'I' for Inactive)
REMARK       I    between atoms: N_5  and  C_13 
REMARK    1  A    between atoms: N_5  and  C_14 
REMARK    2  A    between atoms: N_6  and  C_17 
REMARK    3  A    between atoms: N_6  and  C_20 
REMARK    4  A    between atoms: N_7  and  C_21 
REMARK    5  A    between atoms: N_7  and  C_23 
REMARK    6  A    between atoms: C_10  and  C_13 
REMARK    7  A    between atoms: C_24  and  C_29 
ROOT
HETATM    1  N   UNL     1      55.763  84.378  41.498  1.00  0.00    -0.224 NA
HETATM    2  N   UNL     1      55.875  84.889  43.850  1.00  0.00    -0.224 NA
HETATM    3  C   UNL     1      57.038  84.802  41.383  1.00  0.00     0.133 A 
HETATM    4  C   UNL     1      57.787  85.276  42.441  1.00  0.00     0.100 A 
HETATM    5  C   UNL     1      57.152  85.300  43.669  1.00  0.00     0.133 A 
HETATM    6  C   UNL     1      55.250  84.449  42.742  1.00  0.00     0.237 A 
ENDROOT
BRANCH   3   7
HETATM    7  N   UNL     1      57.658  84.764  40.110  1.00  0.00    -0.341 N 
HETATM    8  H   UNL     1      58.596  84.374  40.128  1.00  0.00     0.167 HD
BRANCH   7   9
HETATM    9  C   UNL     1      57.223  85.154  38.832  1.00  0.00     0.035 A 
HETATM   10  C   UNL     1      58.142  85.296  37.789  1.00  0.00     0.059 A 
HETATM   11  C   UNL     1      57.709  85.681  36.521  1.00  0.00     0.036 A 
HETATM   12  C   UNL     1      56.355  85.926  36.290  1.00  0.00     0.029 A 
HETATM   13  C   UNL     1      55.434  85.786  37.328  1.00  0.00     0.004 A 
HETATM   14  C   UNL     1      55.868  85.401  38.597  1.00  0.00     0.029 A 
BRANCH  11  15
HETATM   15  N   UNL     1      58.630  85.821  35.481  1.00  0.00    -0.327 N 
HETATM   16  C   UNL     1      59.527  86.869  35.260  1.00  0.00     0.226 C 
HETATM   17  O   UNL     1      59.685  87.876  35.937  1.00  0.00    -0.273 OA
HETATM   18  H   UNL     1      58.636  85.063  34.803  1.00  0.00     0.169 HD
BRANCH  16  19
HETATM   19  C   UNL     1      60.375  86.693  34.039  1.00  0.00     0.078 A 
HETATM   20  C   UNL     1      59.964  87.386  32.789  1.00  0.00     0.015 A 
HETATM   21  C   UNL     1      59.824  85.897  32.908  1.00  0.00     0.015 A 
ENDBRANCH  16  19
ENDBRANCH  11  15
ENDBRANCH   7   9
ENDBRANCH   3   7
BRANCH   5  22
HETATM   22  N   UNL     1      57.882  85.777  44.775  1.00  0.00    -0.341 N 
HETATM   23  H   UNL     1      58.674  85.183  45.011  1.00  0.00     0.167 HD
BRANCH  22  24
HETATM   24  C   UNL     1      57.573  86.697  45.798  1.00  0.00     0.034 A 
HETATM   25  C   UNL     1      57.359  88.040  45.489  1.00  0.00     0.045 A 
HETATM   26  C   UNL     1      57.051  88.948  46.501  1.00  0.00     0.050 A 
HETATM   27  C   UNL     1      56.959  88.514  47.824  1.00  0.00     0.016 A 
HETATM   28  C   UNL     1      57.173  87.171  48.134  1.00  0.00     0.003 A 
HETATM   29  C   UNL     1      57.480  86.262  47.121  1.00  0.00     0.029 A 
BRANCH  26  30
HETATM   30  C   UNL     1      56.823  90.385  46.171  1.00  0.00     0.417 C 
HETATM   31  F   UNL     1      56.817  91.204  47.263  1.00  0.00    -0.166 F 
HETATM   32  F   UNL     1      57.767  90.911  45.337  1.00  0.00    -0.166 F 
HETATM   33  F   UNL     1      55.626  90.596  45.548  1.00  0.00    -0.166 F 
ENDBRANCH  26  30
ENDBRANCH  22  24
ENDBRANCH   5  22
TORSDOF 7
ENDMDL
MODEL 9
REMARK VINA RESULT:      -6.9      4.133      8.779
REMARK  7 active torsions:
REMARK  status: ('A' for Active; 'I' for Inactive)
REMARK       I    between atoms: N_5  and  C_13 
REMARK    1  A    between atoms: N_5  and  C_14 
REMARK    2  A    between atoms: N_6  and  C_17 
REMARK    3  A    between atoms: N_6  and  C_20 
REMARK    4  A    between atoms: N_7  and  C_21 
REMARK    5  A    between atoms: N_7  and  C_23 
REMARK    6  A    between atoms: C_10  and  C_13 
REMARK    7  A    between atoms: C_24  and  C_29 
ROOT
HETATM    1  N   UNL     1      59.509  86.341  33.486  1.00  0.00    -0.224 NA
HETATM    2  N   UNL     1      60.975  84.465  33.117  1.00  0.00    -0.224 NA
HETATM    3  C   UNL     1      59.314  85.894  34.744  1.00  0.00     0.133 A 
HETATM    4  C   UNL     1      59.907  84.757  35.254  1.00  0.00     0.100 A 
HETATM    5  C   UNL     1      60.739  84.068  34.389  1.00  0.00     0.133 A 
HETATM    6  C   UNL     1      60.338  85.589  32.738  1.00  0.00     0.237 A 
ENDROOT
BRANCH   3   7
HETATM    7  N   UNL     1      58.456  86.623  35.602  1.00  0.00    -0.341 N 
HETATM    8  H   UNL     1      58.690  87.610  35.667  1.00  0.00     0.167 HD
BRANCH   7   9
HETATM    9  C   UNL     1      57.342  86.247  36.372  1.00  0.00     0.035 A 
HETATM   10  C   UNL     1      57.515  85.779  37.677  1.00  0.00     0.059 A 
HETATM   11  C   UNL     1      56.409  85.407  38.441  1.00  0.00     0.036 A 
HETATM   12  C   UNL     1      55.125  85.503  37.903  1.00  0.00     0.029 A 
HETATM   13  C   UNL     1      54.948  85.970  36.601  1.00  0.00     0.004 A 
HETATM   14  C   UNL     1      56.055  86.341  35.837  1.00  0.00     0.029 A 
BRANCH  11  15
HETATM   15  N   UNL     1      56.586  84.941  39.745  1.00  0.00    -0.327 N 
HETATM   16  C   UNL     1      55.851  85.273  40.885  1.00  0.00     0.226 C 
HETATM   17  O   UNL     1      54.902  86.041  40.969  1.00  0.00    -0.273 OA
HETATM   18  H   UNL     1      57.351  84.282  39.869  1.00  0.00     0.169 HD
BRANCH  16  19
HETATM   19  C   UNL     1      56.317  84.580  42.128  1.00  0.00     0.078 A 
HETATM   20  C   UNL     1      55.812  85.070  43.439  1.00  0.00     0.015 A 
HETATM   21  C   UNL     1      57.237  85.313  43.040  1.00  0.00     0.015 A 
ENDBRANCH  16  19
ENDBRANCH  11  15
ENDBRANCH   7   9
ENDBRANCH   3   7
BRANCH   5  22
HETATM   22  N   UNL     1      61.364  82.902  34.871  1.00  0.00    -0.341 N 
HETATM   23  H   UNL     1      62.324  83.062  35.167  1.00  0.00     0.167 HD
BRANCH  22  24
HETATM   24  C   UNL     1      61.062  81.531  34.735  1.00  0.00     0.034 A 
HETATM   25  C   UNL     1      60.075  81.119  33.840  1.00  0.00     0.045 A 
HETATM   26  C   UNL     1      59.779  79.763  33.704  1.00  0.00     0.050 A 
HETATM   27  C   UNL     1      60.469  78.819  34.464  1.00  0.00     0.016 A 
HETATM   28  C   UNL     1      61.456  79.230  35.359  1.00  0.00     0.003 A 
HETATM   29  C   UNL     1      61.753  80.587  35.494  1.00  0.00     0.029 A 
BRANCH  26  30
HETATM   30  C   UNL     1      58.723  79.322  32.747  1.00  0.00     0.417 C 
HETATM   31  F   UNL     1      58.399  78.000  32.859  1.00  0.00    -0.166 F 
HETATM   32  F   UNL     1      57.541  79.991  32.891  1.00  0.00    -0.166 F 
HETATM   33  F   UNL     1      59.088  79.500  31.443  1.00  0.00    -0.166 F 
ENDBRANCH  26  30
ENDBRANCH  22  24
ENDBRANCH   5  22
TORSDOF 7
ENDMDL
