MODEL 1
REMARK VINA RESULT:      -7.8      0.000      0.000
REMARK  7 active torsions:
REMARK  status: ('A' for Active; 'I' for Inactive)
REMARK       I    between atoms: N_5  and  C_13 
REMARK    1  A    between atoms: N_5  and  C_14 
REMARK    2  A    between atoms: N_6  and  C_17 
REMARK    3  A    between atoms: N_6  and  C_20 
REMARK    4  A    between atoms: N_7  and  C_21 
REMARK    5  A    between atoms: N_7  and  C_23 
REMARK    6  A    between atoms: C_10  and  C_13 
REMARK    7  A    between atoms: C_24  and  C_29 
ROOT
HETATM    1  N   UNL     1      59.450  88.398  34.093  1.00  0.00    -0.224 NA
HETATM    2  N   UNL     1      61.010  86.827  33.143  1.00  0.00    -0.224 NA
HETATM    3  C   UNL     1      59.117  87.460  35.004  1.00  0.00     0.133 A 
HETATM    4  C   UNL     1      59.680  86.201  35.048  1.00  0.00     0.100 A 
HETATM    5  C   UNL     1      60.633  85.930  34.083  1.00  0.00     0.133 A 
HETATM    6  C   UNL     1      60.389  88.020  33.205  1.00  0.00     0.237 A 
ENDROOT
BRANCH   3   7
HETATM    7  N   UNL     1      58.136  87.771  35.977  1.00  0.00    -0.341 N 
HETATM    8  H   UNL     1      58.311  88.646  36.463  1.00  0.00     0.167 HD
BRANCH   7   9
HETATM    9  C   UNL     1      56.969  87.109  36.392  1.00  0.00     0.035 A 
HETATM   10  C   UNL     1      56.841  86.667  37.712  1.00  0.00     0.059 A 
HETATM   11  C   UNL     1      55.682  86.011  38.123  1.00  0.00     0.036 A 
HETATM   12  C   UNL     1      54.644  85.794  37.216  1.00  0.00     0.029 A 
HETATM   13  C   UNL     1      54.766  86.233  35.898  1.00  0.00     0.004 A 
HETATM   14  C   UNL     1      55.927  86.888  35.487  1.00  0.00     0.029 A 
BRANCH  11  15
HETATM   15  N   UNL     1      55.559  85.572  39.442  1.00  0.00    -0.327 N 
HETATM   16  C   UNL     1      56.478  84.839  40.196  1.00  0.00     0.226 C 
HETATM   17  O   UNL     1      57.580  84.434  39.848  1.00  0.00    -0.273 OA
HETATM   18  H   UNL     1      54.684  85.818  39.901  1.00  0.00     0.169 HD
BRANCH  16  19
HETATM   19  C   UNL     1      56.017  84.538  41.588  1.00  0.00     0.078 A 
HETATM   20  C   UNL     1      55.245  85.580  42.316  1.00  0.00     0.015 A 
HETATM   21  C   UNL     1      56.657  85.269  42.715  1.00  0.00     0.015 A 
ENDBRANCH  16  19
ENDBRANCH  11  15
ENDBRANCH   7   9
ENDBRANCH   3   7
BRANCH   5  22
HETATM   22  N   UNL     1      61.232  84.655  34.094  1.00  0.00    -0.341 N 
HETATM   23  H   UNL     1      62.247  84.696  34.046  1.00  0.00     0.167 HD
BRANCH  22  24
HETATM   24  C   UNL     1      60.730  83.363  33.836  1.00  0.00     0.034 A 
HETATM   25  C   UNL     1      59.835  83.157  32.786  1.00  0.00     0.045 A 
HETATM   26  C   UNL     1      59.341  81.878  32.531  1.00  0.00     0.050 A 
HETATM   27  C   UNL     1      59.742  80.804  33.326  1.00  0.00     0.016 A 
HETATM   28  C   UNL     1      60.636  81.009  34.376  1.00  0.00     0.003 A 
HETATM   29  C   UNL     1      61.131  82.289  34.631  1.00  0.00     0.029 A 
BRANCH  26  30
HETATM   30  C   UNL     1      58.384  81.658  31.408  1.00  0.00     0.417 C 
HETATM   31  F   UNL     1      57.917  82.814  30.852  1.00  0.00    -0.166 F 
HETATM   32  F   UNL     1      58.916  80.952  30.368  1.00  0.00    -0.166 F 
HETATM   33  F   UNL     1      57.274  80.962  31.793  1.00  0.00    -0.166 F 
ENDBRANCH  26  30
ENDBRANCH  22  24
ENDBRANCH   5  22
TORSDOF 7
ENDMDL
MODEL 2
REMARK VINA RESULT:      -7.4      4.319      8.605
REMARK  7 active torsions:
REMARK  status: ('A' for Active; 'I' for Inactive)
REMARK       I    between atoms: N_5  and  C_13 
REMARK    1  A    between atoms: N_5  and  C_14 
REMARK    2  A    between atoms: N_6  and  C_17 
REMARK    3  A    between atoms: N_6  and  C_20 
REMARK    4  A    between atoms: N_7  and  C_21 
REMARK    5  A    between atoms: N_7  and  C_23 
REMARK    6  A    between atoms: C_10  and  C_13 
REMARK    7  A    between atoms: C_24  and  C_29 
ROOT
HETATM    1  N   UNL     1      60.785  82.526  32.381  1.00  0.00    -0.224 NA
HETATM    2  N   UNL     1      59.678  84.581  32.978  1.00  0.00    -0.224 NA
HETATM    3  C   UNL     1      61.063  82.340  33.689  1.00  0.00     0.133 A 
HETATM    4  C   UNL     1      60.686  83.217  34.685  1.00  0.00     0.100 A 
HETATM    5  C   UNL     1      59.987  84.337  34.273  1.00  0.00     0.133 A 
HETATM    6  C   UNL     1      60.101  83.652  32.101  1.00  0.00     0.237 A 
ENDROOT
BRANCH   3   7
HETATM    7  N   UNL     1      61.781  81.182  34.075  1.00  0.00    -0.341 N 
HETATM    8  H   UNL     1      62.779  81.246  33.897  1.00  0.00     0.167 HD
BRANCH   7   9
HETATM    9  C   UNL     1      61.380  79.970  34.662  1.00  0.00     0.035 A 
HETATM   10  C   UNL     1      60.722  79.001  33.898  1.00  0.00     0.059 A 
HETATM   11  C   UNL     1      60.326  77.798  34.480  1.00  0.00     0.036 A 
HETATM   12  C   UNL     1      60.586  77.557  35.830  1.00  0.00     0.029 A 
HETATM   13  C   UNL     1      61.243  78.520  36.596  1.00  0.00     0.004 A 
HETATM   14  C   UNL     1      61.638  79.724  36.013  1.00  0.00     0.029 A 
BRANCH  11  15
HETATM   15  N   UNL     1      59.670  76.834  33.714  1.00  0.00    -0.327 N 
HETATM   16  C   UNL     1      58.295  76.643  33.562  1.00  0.00     0.226 C 
HETATM   17  O   UNL     1      57.388  77.287  34.073  1.00  0.00    -0.273 OA
HETATM   18  H   UNL     1      60.279  76.191  33.211  1.00  0.00     0.169 HD
BRANCH  16  19
HETATM   19  C   UNL     1      57.938  75.506  32.657  1.00  0.00     0.078 A 
HETATM   20  C   UNL     1      59.037  74.788  31.958  1.00  0.00     0.015 A 
HETATM   21  C   UNL     1      58.116  75.689  31.191  1.00  0.00     0.015 A 
ENDBRANCH  16  19
ENDBRANCH  11  15
ENDBRANCH   7   9
ENDBRANCH   3   7
BRANCH   5  22
HETATM   22  N   UNL     1      59.584  85.258  35.259  1.00  0.00    -0.341 N 
HETATM   23  H   UNL     1      60.153  85.208  36.102  1.00  0.00     0.167 HD
BRANCH  22  24
HETATM   24  C   UNL     1      58.394  85.989  35.453  1.00  0.00     0.034 A 
HETATM   25  C   UNL     1      57.444  85.545  36.374  1.00  0.00     0.045 A 
HETATM   26  C   UNL     1      56.268  86.270  36.567  1.00  0.00     0.050 A 
HETATM   27  C   UNL     1      56.041  87.438  35.839  1.00  0.00     0.016 A 
HETATM   28  C   UNL     1      56.990  87.881  34.918  1.00  0.00     0.003 A 
HETATM   29  C   UNL     1      58.167  87.156  34.725  1.00  0.00     0.029 A 
BRANCH  26  30
HETATM   30  C   UNL     1      55.252  85.796  37.551  1.00  0.00     0.417 C 
HETATM   31  F   UNL     1      55.082  86.640  38.611  1.00  0.00    -0.166 F 
HETATM   32  F   UNL     1      54.006  85.639  37.017  1.00  0.00    -0.166 F 
HETATM   33  F   UNL     1      55.573  84.585  38.095  1.00  0.00    -0.166 F 
ENDBRANCH  26  30
ENDBRANCH  22  24
ENDBRANCH   5  22
TORSDOF 7
ENDMDL
MODEL 3
REMARK VINA RESULT:      -7.3      4.304      8.304
REMARK  7 active torsions:
REMARK  status: ('A' for Active; 'I' for Inactive)
REMARK       I    between atoms: N_5  and  C_13 
REMARK    1  A    between atoms: N_5  and  C_14 
REMARK    2  A    between atoms: N_6  and  C_17 
REMARK    3  A    between atoms: N_6  and  C_20 
REMARK    4  A    between atoms: N_7  and  C_21 
REMARK    5  A    between atoms: N_7  and  C_23 
REMARK    6  A    between atoms: C_10  and  C_13 
REMARK    7  A    between atoms: C_24  and  C_29 
ROOT
HETATM    1  N   UNL     1      61.551  82.230  37.205  1.00  0.00    -0.224 NA
HETATM    2  N   UNL     1      60.876  84.429  37.921  1.00  0.00    -0.224 NA
HETATM    3  C   UNL     1      61.159  82.557  35.956  1.00  0.00     0.133 A 
HETATM    4  C   UNL     1      60.625  83.783  35.616  1.00  0.00     0.100 A 
HETATM    5  C   UNL     1      60.502  84.696  36.648  1.00  0.00     0.133 A 
HETATM    6  C   UNL     1      61.382  83.199  38.125  1.00  0.00     0.237 A 
ENDROOT
BRANCH   3   7
HETATM    7  N   UNL     1      61.299  81.597  34.924  1.00  0.00    -0.341 N 
HETATM    8  H   UNL     1      62.251  81.258  34.812  1.00  0.00     0.167 HD
BRANCH   7   9
HETATM    9  C   UNL     1      60.378  81.021  34.034  1.00  0.00     0.035 A 
HETATM   10  C   UNL     1      60.215  79.634  33.988  1.00  0.00     0.059 A 
HETATM   11  C   UNL     1      59.298  79.064  33.106  1.00  0.00     0.036 A 
HETATM   12  C   UNL     1      58.540  79.878  32.264  1.00  0.00     0.029 A 
HETATM   13  C   UNL     1      58.699  81.263  32.305  1.00  0.00     0.004 A 
HETATM   14  C   UNL     1      59.617  81.833  33.188  1.00  0.00     0.029 A 
BRANCH  11  15
HETATM   15  N   UNL     1      59.138  77.678  33.064  1.00  0.00    -0.327 N 
HETATM   16  C   UNL     1      58.072  76.919  33.552  1.00  0.00     0.226 C 
HETATM   17  O   UNL     1      57.061  77.320  34.114  1.00  0.00    -0.273 OA
HETATM   18  H   UNL     1      59.902  77.166  32.627  1.00  0.00     0.169 HD
BRANCH  16  19
HETATM   19  C   UNL     1      58.229  75.446  33.337  1.00  0.00     0.078 A 
HETATM   20  C   UNL     1      59.477  74.793  33.813  1.00  0.00     0.015 A 
HETATM   21  C   UNL     1      59.237  74.982  32.345  1.00  0.00     0.015 A 
ENDBRANCH  16  19
ENDBRANCH  11  15
ENDBRANCH   7   9
ENDBRANCH   3   7
BRANCH   5  22
HETATM   22  N   UNL     1      59.961  85.960  36.343  1.00  0.00    -0.341 N 
HETATM   23  H   UNL     1      60.617  86.721  36.509  1.00  0.00     0.167 HD
BRANCH  22  24
HETATM   24  C   UNL     1      58.638  86.416  36.170  1.00  0.00     0.034 A 
HETATM   25  C   UNL     1      57.622  85.945  37.002  1.00  0.00     0.045 A 
HETATM   26  C   UNL     1      56.315  86.398  36.831  1.00  0.00     0.050 A 
HETATM   27  C   UNL     1      56.022  87.322  35.828  1.00  0.00     0.016 A 
HETATM   28  C   UNL     1      57.036  87.792  34.995  1.00  0.00     0.003 A 
HETATM   29  C   UNL     1      58.345  87.340  35.166  1.00  0.00     0.029 A 
BRANCH  26  30
HETATM   30  C   UNL     1      55.228  85.894  37.721  1.00  0.00     0.417 C 
HETATM   31  F   UNL     1      54.008  85.830  37.113  1.00  0.00    -0.166 F 
HETATM   32  F   UNL     1      55.454  84.636  38.201  1.00  0.00    -0.166 F 
HETATM   33  F   UNL     1      55.047  86.679  38.824  1.00  0.00    -0.166 F 
ENDBRANCH  26  30
ENDBRANCH  22  24
ENDBRANCH   5  22
TORSDOF 7
ENDMDL
MODEL 4
REMARK VINA RESULT:      -7.3      2.231      2.739
REMARK  7 active torsions:
REMARK  status: ('A' for Active; 'I' for Inactive)
REMARK       I    between atoms: N_5  and  C_13 
REMARK    1  A    between atoms: N_5  and  C_14 
REMARK    2  A    between atoms: N_6  and  C_17 
REMARK    3  A    between atoms: N_6  and  C_20 
REMARK    4  A    between atoms: N_7  and  C_21 
REMARK    5  A    between atoms: N_7  and  C_23 
REMARK    6  A    between atoms: C_10  and  C_13 
REMARK    7  A    between atoms: C_24  and  C_29 
ROOT
HETATM    1  N   UNL     1      59.352  86.831  33.787  1.00  0.00    -0.224 NA
HETATM    2  N   UNL     1      60.461  85.110  32.516  1.00  0.00    -0.224 NA
HETATM    3  C   UNL     1      59.276  85.968  34.821  1.00  0.00     0.133 A 
HETATM    4  C   UNL     1      59.763  84.677  34.779  1.00  0.00     0.100 A 
HETATM    5  C   UNL     1      60.353  84.291  33.589  1.00  0.00     0.133 A 
HETATM    6  C   UNL     1      59.947  86.344  32.682  1.00  0.00     0.237 A 
ENDROOT
BRANCH   3   7
HETATM    7  N   UNL     1      58.664  86.396  36.024  1.00  0.00    -0.341 N 
HETATM    8  H   UNL     1      59.292  86.910  36.637  1.00  0.00     0.167 HD
BRANCH   7   9
HETATM    9  C   UNL     1      57.361  86.252  36.528  1.00  0.00     0.035 A 
HETATM   10  C   UNL     1      57.158  85.921  37.871  1.00  0.00     0.059 A 
HETATM   11  C   UNL     1      55.864  85.780  38.370  1.00  0.00     0.036 A 
HETATM   12  C   UNL     1      54.766  85.970  37.530  1.00  0.00     0.029 A 
HETATM   13  C   UNL     1      54.964  86.301  36.190  1.00  0.00     0.004 A 
HETATM   14  C   UNL     1      56.259  86.441  35.690  1.00  0.00     0.029 A 
BRANCH  11  15
HETATM   15  N   UNL     1      55.665  85.450  39.712  1.00  0.00    -0.327 N 
HETATM   16  C   UNL     1      56.498  84.701  40.547  1.00  0.00     0.226 C 
HETATM   17  O   UNL     1      57.572  84.184  40.268  1.00  0.00    -0.273 OA
HETATM   18  H   UNL     1      54.801  85.798  40.121  1.00  0.00     0.169 HD
BRANCH  16  19
HETATM   19  C   UNL     1      55.972  84.541  41.939  1.00  0.00     0.078 A 
HETATM   20  C   UNL     1      55.080  85.599  42.483  1.00  0.00     0.015 A 
HETATM   21  C   UNL     1      56.483  85.458  42.995  1.00  0.00     0.015 A 
ENDBRANCH  16  19
ENDBRANCH  11  15
ENDBRANCH   7   9
ENDBRANCH   3   7
BRANCH   5  22
HETATM   22  N   UNL     1      60.864  82.982  33.505  1.00  0.00    -0.341 N 
HETATM   23  H   UNL     1      61.834  82.955  33.199  1.00  0.00     0.167 HD
BRANCH  22  24
HETATM   24  C   UNL     1      60.242  81.717  33.442  1.00  0.00     0.034 A 
HETATM   25  C   UNL     1      60.759  80.648  34.174  1.00  0.00     0.045 A 
HETATM   26  C   UNL     1      60.143  79.399  34.113  1.00  0.00     0.050 A 
HETATM   27  C   UNL     1      59.010  79.217  33.320  1.00  0.00     0.016 A 
HETATM   28  C   UNL     1      58.494  80.286  32.587  1.00  0.00     0.003 A 
HETATM   29  C   UNL     1      59.110  81.536  32.648  1.00  0.00     0.029 A 
BRANCH  26  30
HETATM   30  C   UNL     1      60.695  78.255  34.896  1.00  0.00     0.417 C 
HETATM   31  F   UNL     1      61.983  77.940  34.571  1.00  0.00    -0.166 F 
HETATM   32  F   UNL     1      60.711  78.473  36.244  1.00  0.00    -0.166 F 
HETATM   33  F   UNL     1      59.981  77.104  34.720  1.00  0.00    -0.166 F 
ENDBRANCH  26  30
ENDBRANCH  22  24
ENDBRANCH   5  22
TORSDOF 7
ENDMDL
MODEL 5
REMARK VINA RESULT:      -7.1      2.501      3.524
REMARK  7 active torsions:
REMARK  status: ('A' for Active; 'I' for Inactive)
REMARK       I    between atoms: N_5  and  C_13 
REMARK    1  A    between atoms: N_5  and  C_14 
REMARK    2  A    between atoms: N_6  and  C_17 
REMARK    3  A    between atoms: N_6  and  C_20 
REMARK    4  A    between atoms: N_7  and  C_21 
REMARK    5  A    between atoms: N_7  and  C_23 
REMARK    6  A    between atoms: C_10  and  C_13 
REMARK    7  A    between atoms: C_24  and  C_29 
ROOT
HETATM    1  N   UNL     1      59.469  84.367  33.548  1.00  0.00    -0.224 NA
HETATM    2  N   UNL     1      60.319  82.254  32.759  1.00  0.00    -0.224 NA
HETATM    3  C   UNL     1      59.931  84.052  34.776  1.00  0.00     0.133 A 
HETATM    4  C   UNL     1      60.588  82.874  35.069  1.00  0.00     0.100 A 
HETATM    5  C   UNL     1      60.758  81.997  34.013  1.00  0.00     0.133 A 
HETATM    6  C   UNL     1      59.693  83.436  32.601  1.00  0.00     0.237 A 
ENDROOT
BRANCH   3   7
HETATM    7  N   UNL     1      59.739  84.973  35.834  1.00  0.00    -0.341 N 
HETATM    8  H   UNL     1      60.597  85.215  36.321  1.00  0.00     0.167 HD
BRANCH   7   9
HETATM    9  C   UNL     1      58.595  85.617  36.334  1.00  0.00     0.035 A 
HETATM   10  C   UNL     1      58.013  85.192  37.531  1.00  0.00     0.059 A 
HETATM   11  C   UNL     1      56.879  85.833  38.027  1.00  0.00     0.036 A 
HETATM   12  C   UNL     1      56.320  86.903  37.327  1.00  0.00     0.029 A 
HETATM   13  C   UNL     1      56.897  87.332  36.132  1.00  0.00     0.004 A 
HETATM   14  C   UNL     1      58.032  86.689  35.636  1.00  0.00     0.029 A 
BRANCH  11  15
HETATM   15  N   UNL     1      56.302  85.406  39.224  1.00  0.00    -0.327 N 
HETATM   16  C   UNL     1      56.920  84.755  40.294  1.00  0.00     0.226 C 
HETATM   17  O   UNL     1      58.096  84.431  40.397  1.00  0.00    -0.273 OA
HETATM   18  H   UNL     1      55.305  85.590  39.315  1.00  0.00     0.169 HD
BRANCH  16  19
HETATM   19  C   UNL     1      55.994  84.440  41.428  1.00  0.00     0.078 A 
HETATM   20  C   UNL     1      55.220  85.555  42.036  1.00  0.00     0.015 A 
HETATM   21  C   UNL     1      56.356  84.926  42.788  1.00  0.00     0.015 A 
ENDBRANCH  16  19
ENDBRANCH  11  15
ENDBRANCH   7   9
ENDBRANCH   3   7
BRANCH   5  22
HETATM   22  N   UNL     1      61.424  80.783  34.270  1.00  0.00    -0.341 N 
HETATM   23  H   UNL     1      62.367  80.761  33.887  1.00  0.00     0.167 HD
BRANCH  22  24
HETATM   24  C   UNL     1      60.966  79.505  34.652  1.00  0.00     0.034 A 
HETATM   25  C   UNL     1      59.913  78.905  33.961  1.00  0.00     0.045 A 
HETATM   26  C   UNL     1      59.462  77.641  34.338  1.00  0.00     0.050 A 
HETATM   27  C   UNL     1      60.064  76.976  35.407  1.00  0.00     0.016 A 
HETATM   28  C   UNL     1      61.116  77.575  36.098  1.00  0.00     0.003 A 
HETATM   29  C   UNL     1      61.568  78.840  35.720  1.00  0.00     0.029 A 
BRANCH  26  30
HETATM   30  C   UNL     1      58.336  76.999  33.600  1.00  0.00     0.417 C 
HETATM   31  F   UNL     1      58.401  77.168  32.247  1.00  0.00    -0.166 F 
HETATM   32  F   UNL     1      58.260  75.649  33.787  1.00  0.00    -0.166 F 
HETATM   33  F   UNL     1      57.117  77.490  33.972  1.00  0.00    -0.166 F 
ENDBRANCH  26  30
ENDBRANCH  22  24
ENDBRANCH   5  22
TORSDOF 7
ENDMDL
MODEL 6
REMARK VINA RESULT:      -7.1      5.185      8.657
REMARK  7 active torsions:
REMARK  status: ('A' for Active; 'I' for Inactive)
REMARK       I    between atoms: N_5  and  C_13 
REMARK    1  A    between atoms: N_5  and  C_14 
REMARK    2  A    between atoms: N_6  and  C_17 
REMARK    3  A    between atoms: N_6  and  C_20 
REMARK    4  A    between atoms: N_7  and  C_21 
REMARK    5  A    between atoms: N_7  and  C_23 
REMARK    6  A    between atoms: C_10  and  C_13 
REMARK    7  A    between atoms: C_24  and  C_29 
ROOT
HETATM    1  N   UNL     1      55.844  85.348  43.793  1.00  0.00    -0.224 NA
HETATM    2  N   UNL     1      55.941  84.640  41.491  1.00  0.00    -0.224 NA
HETATM    3  C   UNL     1      57.191  85.425  43.787  1.00  0.00     0.133 A 
HETATM    4  C   UNL     1      57.971  85.131  42.688  1.00  0.00     0.100 A 
HETATM    5  C   UNL     1      57.290  84.738  41.550  1.00  0.00     0.133 A 
HETATM    6  C   UNL     1      55.293  84.953  42.629  1.00  0.00     0.237 A 
ENDROOT
BRANCH   3   7
HETATM    7  N   UNL     1      57.856  85.830  44.970  1.00  0.00    -0.341 N 
HETATM    8  H   UNL     1      58.708  85.309  45.155  1.00  0.00     0.167 HD
BRANCH   7   9
HETATM    9  C   UNL     1      57.568  86.815  45.930  1.00  0.00     0.035 A 
HETATM   10  C   UNL     1      57.606  88.169  45.583  1.00  0.00     0.059 A 
HETATM   11  C   UNL     1      57.319  89.145  46.536  1.00  0.00     0.036 A 
HETATM   12  C   UNL     1      56.991  88.773  47.840  1.00  0.00     0.029 A 
HETATM   13  C   UNL     1      56.951  87.424  48.191  1.00  0.00     0.004 A 
HETATM   14  C   UNL     1      57.240  86.447  47.238  1.00  0.00     0.029 A 
BRANCH  11  15
HETATM   15  N   UNL     1      57.358  90.496  46.185  1.00  0.00    -0.327 N 
HETATM   16  C   UNL     1      56.334  91.273  45.640  1.00  0.00     0.226 C 
HETATM   17  O   UNL     1      55.194  90.925  45.360  1.00  0.00    -0.273 OA
HETATM   18  H   UNL     1      58.249  90.960  46.346  1.00  0.00     0.169 HD
BRANCH  16  19
HETATM   19  C   UNL     1      56.724  92.696  45.385  1.00  0.00     0.078 A 
HETATM   20  C   UNL     1      55.900  93.496  44.440  1.00  0.00     0.015 A 
HETATM   21  C   UNL     1      57.277  93.047  44.048  1.00  0.00     0.015 A 
ENDBRANCH  16  19
ENDBRANCH  11  15
ENDBRANCH   7   9
ENDBRANCH   3   7
BRANCH   5  22
HETATM   22  N   UNL     1      58.050  84.429  40.406  1.00  0.00    -0.341 N 
HETATM   23  H   UNL     1      58.968  84.053  40.631  1.00  0.00     0.167 HD
BRANCH  22  24
HETATM   24  C   UNL     1      57.943  84.819  39.054  1.00  0.00     0.034 A 
HETATM   25  C   UNL     1      56.716  85.243  38.545  1.00  0.00     0.045 A 
HETATM   26  C   UNL     1      56.611  85.630  37.209  1.00  0.00     0.050 A 
HETATM   27  C   UNL     1      57.734  85.593  36.383  1.00  0.00     0.016 A 
HETATM   28  C   UNL     1      58.962  85.170  36.891  1.00  0.00     0.003 A 
HETATM   29  C   UNL     1      59.066  84.783  38.228  1.00  0.00     0.029 A 
BRANCH  26  30
HETATM   30  C   UNL     1      55.298  86.082  36.664  1.00  0.00     0.417 C 
HETATM   31  F   UNL     1      55.356  87.291  36.031  1.00  0.00    -0.166 F 
HETATM   32  F   UNL     1      54.763  85.224  35.746  1.00  0.00    -0.166 F 
HETATM   33  F   UNL     1      54.347  86.222  37.633  1.00  0.00    -0.166 F 
ENDBRANCH  26  30
ENDBRANCH  22  24
ENDBRANCH   5  22
TORSDOF 7
ENDMDL
MODEL 7
REMARK VINA RESULT:      -7.0      3.539      5.625
REMARK  7 active torsions:
REMARK  status: ('A' for Active; 'I' for Inactive)
REMARK       I    between atoms: N_5  and  C_13 
REMARK    1  A    between atoms: N_5  and  C_14 
REMARK    2  A    between atoms: N_6  and  C_17 
REMARK    3  A    between atoms: N_6  and  C_20 
REMARK    4  A    between atoms: N_7  and  C_21 
REMARK    5  A    between atoms: N_7  and  C_23 
REMARK    6  A    between atoms: C_10  and  C_13 
REMARK    7  A    between atoms: C_24  and  C_29 
ROOT
HETATM    1  N   UNL     1      58.699  82.694  31.346  1.00  0.00    -0.224 NA
HETATM    2  N   UNL     1      58.558  80.481  32.286  1.00  0.00    -0.224 NA
HETATM    3  C   UNL     1      59.716  82.950  32.196  1.00  0.00     0.133 A 
HETATM    4  C   UNL     1      60.203  82.035  33.106  1.00  0.00     0.100 A 
HETATM    5  C   UNL     1      59.582  80.799  33.113  1.00  0.00     0.133 A 
HETATM    6  C   UNL     1      58.174  81.458  31.444  1.00  0.00     0.237 A 
ENDROOT
BRANCH   3   7
HETATM    7  N   UNL     1      60.328  84.227  32.162  1.00  0.00    -0.341 N 
HETATM    8  H   UNL     1      61.166  84.260  31.588  1.00  0.00     0.167 HD
BRANCH   7   9
HETATM    9  C   UNL     1      59.997  85.453  32.763  1.00  0.00     0.035 A 
HETATM   10  C   UNL     1      59.311  85.478  33.980  1.00  0.00     0.059 A 
HETATM   11  C   UNL     1      58.984  86.696  34.576  1.00  0.00     0.036 A 
HETATM   12  C   UNL     1      59.342  87.894  33.957  1.00  0.00     0.029 A 
HETATM   13  C   UNL     1      60.026  87.874  32.742  1.00  0.00     0.004 A 
HETATM   14  C   UNL     1      60.352  86.656  32.146  1.00  0.00     0.029 A 
BRANCH  11  15
HETATM   15  N   UNL     1      58.300  86.717  35.793  1.00  0.00    -0.327 N 
HETATM   16  C   UNL     1      56.938  86.935  36.011  1.00  0.00     0.226 C 
HETATM   17  O   UNL     1      56.070  87.153  35.177  1.00  0.00    -0.273 OA
HETATM   18  H   UNL     1      58.876  86.557  36.617  1.00  0.00     0.169 HD
BRANCH  16  19
HETATM   19  C   UNL     1      56.541  86.888  37.454  1.00  0.00     0.078 A 
HETATM   20  C   UNL     1      56.700  85.603  38.187  1.00  0.00     0.015 A 
HETATM   21  C   UNL     1      55.333  86.103  37.826  1.00  0.00     0.015 A 
ENDBRANCH  16  19
ENDBRANCH  11  15
ENDBRANCH   7   9
ENDBRANCH   3   7
BRANCH   5  22
HETATM   22  N   UNL     1      60.049  79.836  34.027  1.00  0.00    -0.341 N 
HETATM   23  H   UNL     1      60.399  80.247  34.890  1.00  0.00     0.167 HD
BRANCH  22  24
HETATM   24  C   UNL     1      60.427  78.485  33.882  1.00  0.00     0.034 A 
HETATM   25  C   UNL     1      59.470  77.522  33.563  1.00  0.00     0.045 A 
HETATM   26  C   UNL     1      59.845  76.187  33.418  1.00  0.00     0.050 A 
HETATM   27  C   UNL     1      61.178  75.814  33.591  1.00  0.00     0.016 A 
HETATM   28  C   UNL     1      62.135  76.776  33.910  1.00  0.00     0.003 A 
HETATM   29  C   UNL     1      61.760  78.112  34.055  1.00  0.00     0.029 A 
BRANCH  26  30
HETATM   30  C   UNL     1      58.821  75.157  33.078  1.00  0.00     0.417 C 
HETATM   31  F   UNL     1      57.629  75.683  32.668  1.00  0.00    -0.166 F 
HETATM   32  F   UNL     1      59.204  74.318  32.071  1.00  0.00    -0.166 F 
HETATM   33  F   UNL     1      58.519  74.346  34.135  1.00  0.00    -0.166 F 
ENDBRANCH  26  30
ENDBRANCH  22  24
ENDBRANCH   5  22
TORSDOF 7
ENDMDL
MODEL 8
REMARK VINA RESULT:      -6.9      4.457      6.791
REMARK  7 active torsions:
REMARK  status: ('A' for Active; 'I' for Inactive)
REMARK       I    between atoms: N_5  and  C_13 
REMARK    1  A    between atoms: N_5  and  C_14 
REMARK    2  A    between atoms: N_6  and  C_17 
REMARK    3  A    between atoms: N_6  and  C_20 
REMARK    4  A    between atoms: N_7  and  C_21 
REMARK    5  A    between atoms: N_7  and  C_23 
REMARK    6  A    between atoms: C_10  and  C_13 
REMARK    7  A    between atoms: C_24  and  C_29 
ROOT
HETATM    1  N   UNL     1      60.794  83.017  41.242  1.00  0.00    -0.224 NA
HETATM    2  N   UNL     1      61.060  82.643  38.876  1.00  0.00    -0.224 NA
HETATM    3  C   UNL     1      60.087  84.129  40.949  1.00  0.00     0.133 A 
HETATM    4  C   UNL     1      59.828  84.555  39.662  1.00  0.00     0.100 A 
HETATM    5  C   UNL     1      60.344  83.768  38.648  1.00  0.00     0.133 A 
HETATM    6  C   UNL     1      61.245  82.333  40.173  1.00  0.00     0.237 A 
ENDROOT
BRANCH   3   7
HETATM    7  N   UNL     1      59.574  84.912  42.012  1.00  0.00    -0.341 N 
HETATM    8  H   UNL     1      60.243  85.582  42.380  1.00  0.00     0.167 HD
BRANCH   7   9
HETATM    9  C   UNL     1      58.322  84.944  42.647  1.00  0.00     0.035 A 
HETATM   10  C   UNL     1      58.240  85.077  44.036  1.00  0.00     0.059 A 
HETATM   11  C   UNL     1      56.996  85.110  44.665  1.00  0.00     0.036 A 
HETATM   12  C   UNL     1      55.828  85.011  43.909  1.00  0.00     0.029 A 
HETATM   13  C   UNL     1      55.905  84.878  42.523  1.00  0.00     0.004 A 
HETATM   14  C   UNL     1      57.149  84.844  41.893  1.00  0.00     0.029 A 
BRANCH  11  15
HETATM   15  N   UNL     1      56.919  85.244  46.052  1.00  0.00    -0.327 N 
HETATM   16  C   UNL     1      56.983  86.416  46.809  1.00  0.00     0.226 C 
HETATM   17  O   UNL     1      57.119  87.564  46.406  1.00  0.00    -0.273 OA
HETATM   18  H   UNL     1      56.809  84.373  46.567  1.00  0.00     0.169 HD
BRANCH  16  19
HETATM   19  C   UNL     1      56.865  86.191  48.285  1.00  0.00     0.078 A 
HETATM   20  C   UNL     1      56.747  87.379  49.172  1.00  0.00     0.015 A 
HETATM   21  C   UNL     1      58.014  86.576  49.150  1.00  0.00     0.015 A 
ENDBRANCH  16  19
ENDBRANCH  11  15
ENDBRANCH   7   9
ENDBRANCH   3   7
BRANCH   5  22
HETATM   22  N   UNL     1      60.102  84.169  37.320  1.00  0.00    -0.341 N 
HETATM   23  H   UNL     1      60.666  83.659  36.644  1.00  0.00     0.167 HD
BRANCH  22  24
HETATM   24  C   UNL     1      59.500  85.317  36.764  1.00  0.00     0.034 A 
HETATM   25  C   UNL     1      58.112  85.450  36.768  1.00  0.00     0.045 A 
HETATM   26  C   UNL     1      57.518  86.586  36.220  1.00  0.00     0.050 A 
HETATM   27  C   UNL     1      58.313  87.590  35.666  1.00  0.00     0.016 A 
HETATM   28  C   UNL     1      59.701  87.458  35.661  1.00  0.00     0.003 A 
HETATM   29  C   UNL     1      60.295  86.321  36.210  1.00  0.00     0.029 A 
BRANCH  26  30
HETATM   30  C   UNL     1      56.033  86.729  36.224  1.00  0.00     0.417 C 
HETATM   31  F   UNL     1      55.380  85.672  35.657  1.00  0.00    -0.166 F 
HETATM   32  F   UNL     1      55.499  86.847  37.475  1.00  0.00    -0.166 F 
HETATM   33  F   UNL     1      55.609  87.831  35.539  1.00  0.00    -0.166 F 
ENDBRANCH  26  30
ENDBRANCH  22  24
ENDBRANCH   5  22
TORSDOF 7
ENDMDL
MODEL 9
REMARK VINA RESULT:      -6.6      4.917      8.595
REMARK  7 active torsions:
REMARK  status: ('A' for Active; 'I' for Inactive)
REMARK       I    between atoms: N_5  and  C_13 
REMARK    1  A    between atoms: N_5  and  C_14 
REMARK    2  A    between atoms: N_6  and  C_17 
REMARK    3  A    between atoms: N_6  and  C_20 
REMARK    4  A    between atoms: N_7  and  C_21 
REMARK    5  A    between atoms: N_7  and  C_23 
REMARK    6  A    between atoms: C_10  and  C_13 
REMARK    7  A    between atoms: C_24  and  C_29 
ROOT
HETATM    1  N   UNL     1      56.051  85.102  44.015  1.00  0.00    -0.224 NA
HETATM    2  N   UNL     1      55.800  84.453  41.708  1.00  0.00    -0.224 NA
HETATM    3  C   UNL     1      57.339  85.406  43.750  1.00  0.00     0.133 A 
HETATM    4  C   UNL     1      57.920  85.264  42.506  1.00  0.00     0.100 A 
HETATM    5  C   UNL     1      57.098  84.777  41.506  1.00  0.00     0.133 A 
HETATM    6  C   UNL     1      55.350  84.636  42.964  1.00  0.00     0.237 A 
ENDROOT
BRANCH   3   7
HETATM    7  N   UNL     1      58.152  85.902  44.798  1.00  0.00    -0.341 N 
HETATM    8  H   UNL     1      59.065  85.459  44.846  1.00  0.00     0.167 HD
BRANCH   7   9
HETATM    9  C   UNL     1      57.943  86.889  45.775  1.00  0.00     0.035 A 
HETATM   10  C   UNL     1      57.195  88.031  45.473  1.00  0.00     0.059 A 
HETATM   11  C   UNL     1      56.986  89.010  46.444  1.00  0.00     0.036 A 
HETATM   12  C   UNL     1      57.524  88.852  47.722  1.00  0.00     0.029 A 
HETATM   13  C   UNL     1      58.271  87.714  48.028  1.00  0.00     0.004 A 
HETATM   14  C   UNL     1      58.480  86.735  47.056  1.00  0.00     0.029 A 
BRANCH  11  15
HETATM   15  N   UNL     1      56.239  90.148  46.138  1.00  0.00    -0.327 N 
HETATM   16  C   UNL     1      56.631  91.262  45.394  1.00  0.00     0.226 C 
HETATM   17  O   UNL     1      57.713  91.463  44.858  1.00  0.00    -0.273 OA
HETATM   18  H   UNL     1      55.293  90.159  46.515  1.00  0.00     0.169 HD
BRANCH  16  19
HETATM   19  C   UNL     1      55.568  92.308  45.262  1.00  0.00     0.078 A 
HETATM   20  C   UNL     1      55.875  93.531  44.472  1.00  0.00     0.015 A 
HETATM   21  C   UNL     1      55.763  93.604  45.967  1.00  0.00     0.015 A 
ENDBRANCH  16  19
ENDBRANCH  11  15
ENDBRANCH   7   9
ENDBRANCH   3   7
BRANCH   5  22
HETATM   22  N   UNL     1      57.653  84.617  40.222  1.00  0.00    -0.341 N 
HETATM   23  H   UNL     1      58.645  84.391  40.246  1.00  0.00     0.167 HD
BRANCH  22  24
HETATM   24  C   UNL     1      57.219  85.009  38.939  1.00  0.00     0.034 A 
HETATM   25  C   UNL     1      58.151  85.248  37.929  1.00  0.00     0.045 A 
HETATM   26  C   UNL     1      57.721  85.634  36.660  1.00  0.00     0.050 A 
HETATM   27  C   UNL     1      56.359  85.782  36.400  1.00  0.00     0.016 A 
HETATM   28  C   UNL     1      55.426  85.544  37.410  1.00  0.00     0.003 A 
HETATM   29  C   UNL     1      55.857  85.157  38.679  1.00  0.00     0.029 A 
BRANCH  26  30
HETATM   30  C   UNL     1      58.718  85.890  35.580  1.00  0.00     0.417 C 
HETATM   31  F   UNL     1      59.812  86.590  35.999  1.00  0.00    -0.166 F 
HETATM   32  F   UNL     1      59.218  84.750  35.018  1.00  0.00    -0.166 F 
HETATM   33  F   UNL     1      58.196  86.611  34.544  1.00  0.00    -0.166 F 
ENDBRANCH  26  30
ENDBRANCH  22  24
ENDBRANCH   5  22
TORSDOF 7
ENDMDL
