MODEL 1
REMARK VINA RESULT:      -7.4      0.000      0.000
REMARK  7 active torsions:
REMARK  status: ('A' for Active; 'I' for Inactive)
REMARK       I    between atoms: N_5  and  C_13 
REMARK    1  A    between atoms: N_5  and  C_14 
REMARK    2  A    between atoms: N_6  and  C_17 
REMARK    3  A    between atoms: N_6  and  C_20 
REMARK    4  A    between atoms: N_7  and  C_21 
REMARK    5  A    between atoms: N_7  and  C_23 
REMARK    6  A    between atoms: C_10  and  C_13 
REMARK    7  A    between atoms: C_24  and  C_29 
ROOT
HETATM    1  N   UNL     1      60.794  82.483  32.395  1.00  0.00    -0.224 NA
HETATM    2  N   UNL     1      59.686  84.539  32.989  1.00  0.00    -0.224 NA
HETATM    3  C   UNL     1      61.081  82.304  33.702  1.00  0.00     0.133 A 
HETATM    4  C   UNL     1      60.709  83.186  34.696  1.00  0.00     0.100 A 
HETATM    5  C   UNL     1      60.005  84.302  34.283  1.00  0.00     0.133 A 
HETATM    6  C   UNL     1      60.106  83.606  32.114  1.00  0.00     0.237 A 
ENDROOT
BRANCH   3   7
HETATM    7  N   UNL     1      61.804  81.150  34.089  1.00  0.00    -0.341 N 
HETATM    8  H   UNL     1      62.802  81.218  33.909  1.00  0.00     0.167 HD
BRANCH   7   9
HETATM    9  C   UNL     1      61.409  79.937  34.679  1.00  0.00     0.035 A 
HETATM   10  C   UNL     1      60.749  78.967  33.920  1.00  0.00     0.059 A 
HETATM   11  C   UNL     1      60.359  77.764  34.505  1.00  0.00     0.036 A 
HETATM   12  C   UNL     1      60.627  77.524  35.854  1.00  0.00     0.029 A 
HETATM   13  C   UNL     1      61.286  78.489  36.615  1.00  0.00     0.004 A 
HETATM   14  C   UNL     1      61.675  79.694  36.029  1.00  0.00     0.029 A 
BRANCH  11  15
HETATM   15  N   UNL     1      59.701  76.797  33.743  1.00  0.00    -0.327 N 
HETATM   16  C   UNL     1      58.325  76.617  33.583  1.00  0.00     0.226 C 
HETATM   17  O   UNL     1      57.419  77.273  34.080  1.00  0.00    -0.273 OA
HETATM   18  H   UNL     1      60.308  76.145  33.252  1.00  0.00     0.169 HD
BRANCH  16  19
HETATM   19  C   UNL     1      57.965  75.473  32.687  1.00  0.00     0.078 A 
HETATM   20  C   UNL     1      59.060  74.772  31.963  1.00  0.00     0.015 A 
HETATM   21  C   UNL     1      58.107  75.659  31.217  1.00  0.00     0.015 A 
ENDBRANCH  16  19
ENDBRANCH  11  15
ENDBRANCH   7   9
ENDBRANCH   3   7
BRANCH   5  22
HETATM   22  N   UNL     1      59.606  85.227  35.267  1.00  0.00    -0.341 N 
HETATM   23  H   UNL     1      60.172  85.173  36.111  1.00  0.00     0.167 HD
BRANCH  22  24
HETATM   24  C   UNL     1      58.421  85.967  35.457  1.00  0.00     0.034 A 
HETATM   25  C   UNL     1      57.469  85.537  36.382  1.00  0.00     0.045 A 
HETATM   26  C   UNL     1      56.299  86.271  36.571  1.00  0.00     0.050 A 
HETATM   27  C   UNL     1      56.079  87.435  35.834  1.00  0.00     0.016 A 
HETATM   28  C   UNL     1      57.030  87.866  34.910  1.00  0.00     0.003 A 
HETATM   29  C   UNL     1      58.201  87.132  34.721  1.00  0.00     0.029 A 
BRANCH  26  30
HETATM   30  C   UNL     1      55.280  85.811  37.559  1.00  0.00     0.417 C 
HETATM   31  F   UNL     1      55.115  86.664  38.612  1.00  0.00    -0.166 F 
HETATM   32  F   UNL     1      54.032  85.657  37.026  1.00  0.00    -0.166 F 
HETATM   33  F   UNL     1      55.594  84.603  38.113  1.00  0.00    -0.166 F 
ENDBRANCH  26  30
ENDBRANCH  22  24
ENDBRANCH   5  22
TORSDOF 7
ENDMDL
MODEL 2
REMARK VINA RESULT:      -7.4      1.590      2.631
REMARK  7 active torsions:
REMARK  status: ('A' for Active; 'I' for Inactive)
REMARK       I    between atoms: N_5  and  C_13 
REMARK    1  A    between atoms: N_5  and  C_14 
REMARK    2  A    between atoms: N_6  and  C_17 
REMARK    3  A    between atoms: N_6  and  C_20 
REMARK    4  A    between atoms: N_7  and  C_21 
REMARK    5  A    between atoms: N_7  and  C_23 
REMARK    6  A    between atoms: C_10  and  C_13 
REMARK    7  A    between atoms: C_24  and  C_29 
ROOT
HETATM    1  N   UNL     1      61.565  82.286  36.910  1.00  0.00    -0.224 NA
HETATM    2  N   UNL     1      60.875  84.400  37.839  1.00  0.00    -0.224 NA
HETATM    3  C   UNL     1      61.139  82.719  35.705  1.00  0.00     0.133 A 
HETATM    4  C   UNL     1      60.579  83.962  35.491  1.00  0.00     0.100 A 
HETATM    5  C   UNL     1      60.467  84.775  36.604  1.00  0.00     0.133 A 
HETATM    6  C   UNL     1      61.404  83.165  37.918  1.00  0.00     0.237 A 
ENDROOT
BRANCH   3   7
HETATM    7  N   UNL     1      61.268  81.859  34.587  1.00  0.00    -0.341 N 
HETATM    8  H   UNL     1      62.232  81.705  34.304  1.00  0.00     0.167 HD
BRANCH   7   9
HETATM    9  C   UNL     1      60.324  81.177  33.802  1.00  0.00     0.035 A 
HETATM   10  C   UNL     1      60.227  79.784  33.868  1.00  0.00     0.059 A 
HETATM   11  C   UNL     1      59.289  79.108  33.089  1.00  0.00     0.036 A 
HETATM   12  C   UNL     1      58.442  79.821  32.241  1.00  0.00     0.029 A 
HETATM   13  C   UNL     1      58.534  81.211  32.172  1.00  0.00     0.004 A 
HETATM   14  C   UNL     1      59.474  81.887  32.950  1.00  0.00     0.029 A 
BRANCH  11  15
HETATM   15  N   UNL     1      59.196  77.717  33.159  1.00  0.00    -0.327 N 
HETATM   16  C   UNL     1      58.114  76.947  33.593  1.00  0.00     0.226 C 
HETATM   17  O   UNL     1      57.028  77.340  33.998  1.00  0.00    -0.273 OA
HETATM   18  H   UNL     1      60.027  77.211  32.860  1.00  0.00     0.169 HD
BRANCH  16  19
HETATM   19  C   UNL     1      58.359  75.471  33.534  1.00  0.00     0.078 A 
HETATM   20  C   UNL     1      59.726  74.971  33.841  1.00  0.00     0.015 A 
HETATM   21  C   UNL     1      59.209  74.942  32.433  1.00  0.00     0.015 A 
ENDBRANCH  16  19
ENDBRANCH  11  15
ENDBRANCH   7   9
ENDBRANCH   3   7
BRANCH   5  22
HETATM   22  N   UNL     1      59.900  86.052  36.428  1.00  0.00    -0.341 N 
HETATM   23  H   UNL     1      60.510  86.802  36.747  1.00  0.00     0.167 HD
BRANCH  22  24
HETATM   24  C   UNL     1      58.577  86.488  36.209  1.00  0.00     0.034 A 
HETATM   25  C   UNL     1      57.543  86.014  37.017  1.00  0.00     0.045 A 
HETATM   26  C   UNL     1      56.235  86.446  36.802  1.00  0.00     0.050 A 
HETATM   27  C   UNL     1      55.960  87.353  35.778  1.00  0.00     0.016 A 
HETATM   28  C   UNL     1      56.993  87.827  34.970  1.00  0.00     0.003 A 
HETATM   29  C   UNL     1      58.302  87.395  35.186  1.00  0.00     0.029 A 
BRANCH  26  30
HETATM   30  C   UNL     1      55.129  85.939  37.665  1.00  0.00     0.417 C 
HETATM   31  F   UNL     1      53.914  85.918  37.043  1.00  0.00    -0.166 F 
HETATM   32  F   UNL     1      55.325  84.663  38.109  1.00  0.00    -0.166 F 
HETATM   33  F   UNL     1      54.952  86.695  38.789  1.00  0.00    -0.166 F 
ENDBRANCH  26  30
ENDBRANCH  22  24
ENDBRANCH   5  22
TORSDOF 7
ENDMDL
MODEL 3
REMARK VINA RESULT:      -7.4      4.285      6.644
REMARK  7 active torsions:
REMARK  status: ('A' for Active; 'I' for Inactive)
REMARK       I    between atoms: N_5  and  C_13 
REMARK    1  A    between atoms: N_5  and  C_14 
REMARK    2  A    between atoms: N_6  and  C_17 
REMARK    3  A    between atoms: N_6  and  C_20 
REMARK    4  A    between atoms: N_7  and  C_21 
REMARK    5  A    between atoms: N_7  and  C_23 
REMARK    6  A    between atoms: C_10  and  C_13 
REMARK    7  A    between atoms: C_24  and  C_29 
ROOT
HETATM    1  N   UNL     1      56.839  86.586  36.531  1.00  0.00    -0.224 NA
HETATM    2  N   UNL     1      55.526  85.945  38.447  1.00  0.00    -0.224 NA
HETATM    3  C   UNL     1      57.838  85.812  37.003  1.00  0.00     0.133 A 
HETATM    4  C   UNL     1      57.757  85.084  38.173  1.00  0.00     0.100 A 
HETATM    5  C   UNL     1      56.565  85.186  38.867  1.00  0.00     0.133 A 
HETATM    6  C   UNL     1      55.728  86.607  37.292  1.00  0.00     0.237 A 
ENDROOT
BRANCH   3   7
HETATM    7  N   UNL     1      59.046  85.732  36.267  1.00  0.00    -0.341 N 
HETATM    8  H   UNL     1      59.851  86.094  36.769  1.00  0.00     0.167 HD
BRANCH   7   9
HETATM    9  C   UNL     1      59.343  85.244  34.984  1.00  0.00     0.035 A 
HETATM   10  C   UNL     1      59.356  83.868  34.740  1.00  0.00     0.059 A 
HETATM   11  C   UNL     1      59.650  83.384  33.465  1.00  0.00     0.036 A 
HETATM   12  C   UNL     1      59.931  84.274  32.428  1.00  0.00     0.029 A 
HETATM   13  C   UNL     1      59.919  85.648  32.667  1.00  0.00     0.004 A 
HETATM   14  C   UNL     1      59.626  86.132  33.942  1.00  0.00     0.029 A 
BRANCH  11  15
HETATM   15  N   UNL     1      59.662  82.009  33.226  1.00  0.00    -0.327 N 
HETATM   16  C   UNL     1      58.912  81.291  32.292  1.00  0.00     0.226 C 
HETATM   17  O   UNL     1      58.094  81.726  31.493  1.00  0.00    -0.273 OA
HETATM   18  H   UNL     1      60.295  81.472  33.815  1.00  0.00     0.169 HD
BRANCH  16  19
HETATM   19  C   UNL     1      59.178  79.818  32.306  1.00  0.00     0.078 A 
HETATM   20  C   UNL     1      58.344  78.959  33.189  1.00  0.00     0.015 A 
HETATM   21  C   UNL     1      59.782  79.222  33.529  1.00  0.00     0.015 A 
ENDBRANCH  16  19
ENDBRANCH  11  15
ENDBRANCH   7   9
ENDBRANCH   3   7
BRANCH   5  22
HETATM   22  N   UNL     1      56.441  84.458  40.066  1.00  0.00    -0.341 N 
HETATM   23  H   UNL     1      56.006  83.548  39.932  1.00  0.00     0.167 HD
BRANCH  22  24
HETATM   24  C   UNL     1      56.493  84.837  41.423  1.00  0.00     0.034 A 
HETATM   25  C   UNL     1      57.722  84.945  42.072  1.00  0.00     0.045 A 
HETATM   26  C   UNL     1      57.772  85.322  43.414  1.00  0.00     0.050 A 
HETATM   27  C   UNL     1      56.592  85.592  44.107  1.00  0.00     0.016 A 
HETATM   28  C   UNL     1      55.362  85.484  43.459  1.00  0.00     0.003 A 
HETATM   29  C   UNL     1      55.312  85.107  42.116  1.00  0.00     0.029 A 
BRANCH  26  30
HETATM   30  C   UNL     1      59.088  85.437  44.109  1.00  0.00     0.417 C 
HETATM   31  F   UNL     1      59.594  84.239  44.524  1.00  0.00    -0.166 F 
HETATM   32  F   UNL     1      60.067  85.990  43.335  1.00  0.00    -0.166 F 
HETATM   33  F   UNL     1      59.023  86.215  45.229  1.00  0.00    -0.166 F 
ENDBRANCH  26  30
ENDBRANCH  22  24
ENDBRANCH   5  22
TORSDOF 7
ENDMDL
MODEL 4
REMARK VINA RESULT:      -7.3      7.946     12.678
REMARK  7 active torsions:
REMARK  status: ('A' for Active; 'I' for Inactive)
REMARK       I    between atoms: N_5  and  C_13 
REMARK    1  A    between atoms: N_5  and  C_14 
REMARK    2  A    between atoms: N_6  and  C_17 
REMARK    3  A    between atoms: N_6  and  C_20 
REMARK    4  A    between atoms: N_7  and  C_21 
REMARK    5  A    between atoms: N_7  and  C_23 
REMARK    6  A    between atoms: C_10  and  C_13 
REMARK    7  A    between atoms: C_24  and  C_29 
ROOT
HETATM    1  N   UNL     1      55.578  85.559  43.774  1.00  0.00    -0.224 NA
HETATM    2  N   UNL     1      55.706  84.927  41.452  1.00  0.00    -0.224 NA
HETATM    3  C   UNL     1      56.922  85.451  43.839  1.00  0.00     0.133 A 
HETATM    4  C   UNL     1      57.715  85.091  42.768  1.00  0.00     0.100 A 
HETATM    5  C   UNL     1      57.050  84.836  41.582  1.00  0.00     0.133 A 
HETATM    6  C   UNL     1      55.044  85.286  42.568  1.00  0.00     0.237 A 
ENDROOT
BRANCH   3   7
HETATM    7  N   UNL     1      57.569  85.719  45.070  1.00  0.00    -0.341 N 
HETATM    8  H   UNL     1      58.308  85.057  45.291  1.00  0.00     0.167 HD
BRANCH   7   9
HETATM    9  C   UNL     1      57.391  86.724  46.035  1.00  0.00     0.035 A 
HETATM   10  C   UNL     1      57.452  88.071  45.669  1.00  0.00     0.059 A 
HETATM   11  C   UNL     1      57.274  89.068  46.628  1.00  0.00     0.036 A 
HETATM   12  C   UNL     1      57.034  88.722  47.958  1.00  0.00     0.029 A 
HETATM   13  C   UNL     1      56.972  87.379  48.328  1.00  0.00     0.004 A 
HETATM   14  C   UNL     1      57.151  86.382  47.369  1.00  0.00     0.029 A 
BRANCH  11  15
HETATM   15  N   UNL     1      57.335  90.412  46.257  1.00  0.00    -0.327 N 
HETATM   16  C   UNL     1      56.338  91.187  45.661  1.00  0.00     0.226 C 
HETATM   17  O   UNL     1      55.208  90.841  45.344  1.00  0.00    -0.273 OA
HETATM   18  H   UNL     1      58.223  90.874  46.444  1.00  0.00     0.169 HD
BRANCH  16  19
HETATM   19  C   UNL     1      56.747  92.603  45.399  1.00  0.00     0.078 A 
HETATM   20  C   UNL     1      55.875  93.441  44.532  1.00  0.00     0.015 A 
HETATM   21  C   UNL     1      57.205  92.962  44.029  1.00  0.00     0.015 A 
ENDBRANCH  16  19
ENDBRANCH  11  15
ENDBRANCH   7   9
ENDBRANCH   3   7
BRANCH   5  22
HETATM   22  N   UNL     1      57.824  84.466  40.465  1.00  0.00    -0.341 N 
HETATM   23  H   UNL     1      58.718  84.055  40.722  1.00  0.00     0.167 HD
BRANCH  22  24
HETATM   24  C   UNL     1      57.768  84.828  39.103  1.00  0.00     0.034 A 
HETATM   25  C   UNL     1      56.571  85.281  38.549  1.00  0.00     0.045 A 
HETATM   26  C   UNL     1      56.517  85.641  37.203  1.00  0.00     0.050 A 
HETATM   27  C   UNL     1      57.661  85.547  36.410  1.00  0.00     0.016 A 
HETATM   28  C   UNL     1      58.858  85.094  36.963  1.00  0.00     0.003 A 
HETATM   29  C   UNL     1      58.912  84.734  38.310  1.00  0.00     0.029 A 
BRANCH  26  30
HETATM   30  C   UNL     1      55.237  86.126  36.610  1.00  0.00     0.417 C 
HETATM   31  F   UNL     1      54.783  85.352  35.580  1.00  0.00    -0.166 F 
HETATM   32  F   UNL     1      54.205  86.172  37.503  1.00  0.00    -0.166 F 
HETATM   33  F   UNL     1      55.339  87.389  36.101  1.00  0.00    -0.166 F 
ENDBRANCH  26  30
ENDBRANCH  22  24
ENDBRANCH   5  22
TORSDOF 7
ENDMDL
MODEL 5
REMARK VINA RESULT:      -7.2      1.766      2.413
REMARK  7 active torsions:
REMARK  status: ('A' for Active; 'I' for Inactive)
REMARK       I    between atoms: N_5  and  C_13 
REMARK    1  A    between atoms: N_5  and  C_14 
REMARK    2  A    between atoms: N_6  and  C_17 
REMARK    3  A    between atoms: N_6  and  C_20 
REMARK    4  A    between atoms: N_7  and  C_21 
REMARK    5  A    between atoms: N_7  and  C_23 
REMARK    6  A    between atoms: C_10  and  C_13 
REMARK    7  A    between atoms: C_24  and  C_29 
ROOT
HETATM    1  N   UNL     1      61.950  83.985  32.870  1.00  0.00    -0.224 NA
HETATM    2  N   UNL     1      61.160  86.091  33.735  1.00  0.00    -0.224 NA
HETATM    3  C   UNL     1      61.313  83.370  33.888  1.00  0.00     0.133 A 
HETATM    4  C   UNL     1      60.589  84.038  34.855  1.00  0.00     0.100 A 
HETATM    5  C   UNL     1      60.543  85.415  34.732  1.00  0.00     0.133 A 
HETATM    6  C   UNL     1      61.834  85.327  32.855  1.00  0.00     0.237 A 
ENDROOT
BRANCH   3   7
HETATM    7  N   UNL     1      61.382  81.959  33.983  1.00  0.00    -0.341 N 
HETATM    8  H   UNL     1      62.254  81.622  34.381  1.00  0.00     0.167 HD
BRANCH   7   9
HETATM    9  C   UNL     1      60.477  80.940  33.641  1.00  0.00     0.035 A 
HETATM   10  C   UNL     1      60.844  79.598  33.773  1.00  0.00     0.059 A 
HETATM   11  C   UNL     1      59.944  78.588  33.434  1.00  0.00     0.036 A 
HETATM   12  C   UNL     1      58.673  78.916  32.962  1.00  0.00     0.029 A 
HETATM   13  C   UNL     1      58.302  80.253  32.828  1.00  0.00     0.004 A 
HETATM   14  C   UNL     1      59.203  81.264  33.166  1.00  0.00     0.029 A 
BRANCH  11  15
HETATM   15  N   UNL     1      60.315  77.250  33.569  1.00  0.00    -0.327 N 
HETATM   16  C   UNL     1      60.556  76.537  34.746  1.00  0.00     0.226 C 
HETATM   17  O   UNL     1      60.489  76.945  35.898  1.00  0.00    -0.273 OA
HETATM   18  H   UNL     1      60.426  76.740  32.695  1.00  0.00     0.169 HD
BRANCH  16  19
HETATM   19  C   UNL     1      60.937  75.107  34.520  1.00  0.00     0.078 A 
HETATM   20  C   UNL     1      62.160  74.588  35.189  1.00  0.00     0.015 A 
HETATM   21  C   UNL     1      62.150  74.820  33.707  1.00  0.00     0.015 A 
ENDBRANCH  16  19
ENDBRANCH  11  15
ENDBRANCH   7   9
ENDBRANCH   3   7
BRANCH   5  22
HETATM   22  N   UNL     1      59.815  86.135  35.699  1.00  0.00    -0.341 N 
HETATM   23  H   UNL     1      60.258  86.126  36.615  1.00  0.00     0.167 HD
BRANCH  22  24
HETATM   24  C   UNL     1      58.477  86.580  35.750  1.00  0.00     0.034 A 
HETATM   25  C   UNL     1      57.587  86.015  36.663  1.00  0.00     0.045 A 
HETATM   26  C   UNL     1      56.266  86.457  36.714  1.00  0.00     0.050 A 
HETATM   27  C   UNL     1      55.834  87.465  35.852  1.00  0.00     0.016 A 
HETATM   28  C   UNL     1      56.723  88.030  34.939  1.00  0.00     0.003 A 
HETATM   29  C   UNL     1      58.045  87.588  34.888  1.00  0.00     0.029 A 
BRANCH  26  30
HETATM   30  C   UNL     1      55.314  85.852  37.691  1.00  0.00     0.417 C 
HETATM   31  F   UNL     1      54.069  85.629  37.175  1.00  0.00    -0.166 F 
HETATM   32  F   UNL     1      55.722  84.642  38.173  1.00  0.00    -0.166 F 
HETATM   33  F   UNL     1      55.119  86.638  38.790  1.00  0.00    -0.166 F 
ENDBRANCH  26  30
ENDBRANCH  22  24
ENDBRANCH   5  22
TORSDOF 7
ENDMDL
MODEL 6
REMARK VINA RESULT:      -7.1      5.144      8.077
REMARK  7 active torsions:
REMARK  status: ('A' for Active; 'I' for Inactive)
REMARK       I    between atoms: N_5  and  C_13 
REMARK    1  A    between atoms: N_5  and  C_14 
REMARK    2  A    between atoms: N_6  and  C_17 
REMARK    3  A    between atoms: N_6  and  C_20 
REMARK    4  A    between atoms: N_7  and  C_21 
REMARK    5  A    between atoms: N_7  and  C_23 
REMARK    6  A    between atoms: C_10  and  C_13 
REMARK    7  A    between atoms: C_24  and  C_29 
ROOT
HETATM    1  N   UNL     1      61.964  81.747  40.102  1.00  0.00    -0.224 NA
HETATM    2  N   UNL     1      61.277  82.569  42.261  1.00  0.00    -0.224 NA
HETATM    3  C   UNL     1      61.731  82.978  39.601  1.00  0.00     0.133 A 
HETATM    4  C   UNL     1      61.278  84.041  40.356  1.00  0.00     0.100 A 
HETATM    5  C   UNL     1      61.063  83.781  41.698  1.00  0.00     0.133 A 
HETATM    6  C   UNL     1      61.719  81.615  41.419  1.00  0.00     0.237 A 
ENDROOT
BRANCH   3   7
HETATM    7  N   UNL     1      61.961  83.209  38.222  1.00  0.00    -0.341 N 
HETATM    8  H   UNL     1      62.945  83.203  37.969  1.00  0.00     0.167 HD
BRANCH   7   9
HETATM    9  C   UNL     1      61.093  83.435  37.141  1.00  0.00     0.035 A 
HETATM   10  C   UNL     1      60.039  84.345  37.263  1.00  0.00     0.059 A 
HETATM   11  C   UNL     1      59.179  84.570  36.189  1.00  0.00     0.036 A 
HETATM   12  C   UNL     1      59.368  83.886  34.988  1.00  0.00     0.029 A 
HETATM   13  C   UNL     1      60.419  82.978  34.861  1.00  0.00     0.004 A 
HETATM   14  C   UNL     1      61.279  82.752  35.936  1.00  0.00     0.029 A 
BRANCH  11  15
HETATM   15  N   UNL     1      58.128  85.480  36.315  1.00  0.00    -0.327 N 
HETATM   16  C   UNL     1      58.192  86.875  36.310  1.00  0.00     0.226 C 
HETATM   17  O   UNL     1      59.185  87.580  36.192  1.00  0.00    -0.273 OA
HETATM   18  H   UNL     1      57.206  85.064  36.431  1.00  0.00     0.169 HD
BRANCH  16  19
HETATM   19  C   UNL     1      56.861  87.542  36.468  1.00  0.00     0.078 A 
HETATM   20  C   UNL     1      55.716  87.032  35.666  1.00  0.00     0.015 A 
HETATM   21  C   UNL     1      56.341  88.355  35.334  1.00  0.00     0.015 A 
ENDBRANCH  16  19
ENDBRANCH  11  15
ENDBRANCH   7   9
ENDBRANCH   3   7
BRANCH   5  22
HETATM   22  N   UNL     1      60.601  84.839  42.504  1.00  0.00    -0.341 N 
HETATM   23  H   UNL     1      61.357  85.381  42.916  1.00  0.00     0.167 HD
BRANCH  22  24
HETATM   24  C   UNL     1      59.354  85.105  43.108  1.00  0.00     0.034 A 
HETATM   25  C   UNL     1      58.179  84.991  42.365  1.00  0.00     0.045 A 
HETATM   26  C   UNL     1      56.948  85.252  42.963  1.00  0.00     0.050 A 
HETATM   27  C   UNL     1      56.890  85.629  44.305  1.00  0.00     0.016 A 
HETATM   28  C   UNL     1      58.064  85.744  45.048  1.00  0.00     0.003 A 
HETATM   29  C   UNL     1      59.297  85.482  44.450  1.00  0.00     0.029 A 
BRANCH  26  30
HETATM   30  C   UNL     1      55.691  85.130  42.169  1.00  0.00     0.417 C 
HETATM   31  F   UNL     1      54.843  86.190  42.319  1.00  0.00    -0.166 F 
HETATM   32  F   UNL     1      55.903  85.032  40.823  1.00  0.00    -0.166 F 
HETATM   33  F   UNL     1      54.961  84.026  42.506  1.00  0.00    -0.166 F 
ENDBRANCH  26  30
ENDBRANCH  22  24
ENDBRANCH   5  22
TORSDOF 7
ENDMDL
MODEL 7
REMARK VINA RESULT:      -7.0      6.860     10.098
REMARK  7 active torsions:
REMARK  status: ('A' for Active; 'I' for Inactive)
REMARK       I    between atoms: N_5  and  C_13 
REMARK    1  A    between atoms: N_5  and  C_14 
REMARK    2  A    between atoms: N_6  and  C_17 
REMARK    3  A    between atoms: N_6  and  C_20 
REMARK    4  A    between atoms: N_7  and  C_21 
REMARK    5  A    between atoms: N_7  and  C_23 
REMARK    6  A    between atoms: C_10  and  C_13 
REMARK    7  A    between atoms: C_24  and  C_29 
ROOT
HETATM    1  N   UNL     1      55.817  84.394  41.468  1.00  0.00    -0.224 NA
HETATM    2  N   UNL     1      55.877  84.907  43.822  1.00  0.00    -0.224 NA
HETATM    3  C   UNL     1      57.099  84.807  41.383  1.00  0.00     0.133 A 
HETATM    4  C   UNL     1      57.826  85.277  42.458  1.00  0.00     0.100 A 
HETATM    5  C   UNL     1      57.161  85.308  43.671  1.00  0.00     0.133 A 
HETATM    6  C   UNL     1      55.276  84.471  42.699  1.00  0.00     0.237 A 
ENDROOT
BRANCH   3   7
HETATM    7  N   UNL     1      57.748  84.763  40.125  1.00  0.00    -0.341 N 
HETATM    8  H   UNL     1      58.702  84.417  40.174  1.00  0.00     0.167 HD
BRANCH   7   9
HETATM    9  C   UNL     1      57.326  85.097  38.828  1.00  0.00     0.035 A 
HETATM   10  C   UNL     1      58.246  85.142  37.777  1.00  0.00     0.059 A 
HETATM   11  C   UNL     1      57.826  85.473  36.490  1.00  0.00     0.036 A 
HETATM   12  C   UNL     1      56.482  85.761  36.247  1.00  0.00     0.029 A 
HETATM   13  C   UNL     1      55.560  85.718  37.292  1.00  0.00     0.004 A 
HETATM   14  C   UNL     1      55.981  85.387  38.580  1.00  0.00     0.029 A 
BRANCH  11  15
HETATM   15  N   UNL     1      58.748  85.515  35.443  1.00  0.00    -0.327 N 
HETATM   16  C   UNL     1      59.246  86.638  34.779  1.00  0.00     0.226 C 
HETATM   17  O   UNL     1      58.972  87.813  34.983  1.00  0.00    -0.273 OA
HETATM   18  H   UNL     1      59.090  84.609  35.129  1.00  0.00     0.169 HD
BRANCH  16  19
HETATM   19  C   UNL     1      60.229  86.315  33.697  1.00  0.00     0.078 A 
HETATM   20  C   UNL     1      60.040  86.942  32.361  1.00  0.00     0.015 A 
HETATM   21  C   UNL     1      59.770  85.479  32.555  1.00  0.00     0.015 A 
ENDBRANCH  16  19
ENDBRANCH  11  15
ENDBRANCH   7   9
ENDBRANCH   3   7
BRANCH   5  22
HETATM   22  N   UNL     1      57.868  85.780  44.793  1.00  0.00    -0.341 N 
HETATM   23  H   UNL     1      58.623  85.158  45.075  1.00  0.00     0.167 HD
BRANCH  22  24
HETATM   24  C   UNL     1      57.561  86.739  45.781  1.00  0.00     0.034 A 
HETATM   25  C   UNL     1      57.358  88.071  45.422  1.00  0.00     0.045 A 
HETATM   26  C   UNL     1      57.053  89.018  46.399  1.00  0.00     0.050 A 
HETATM   27  C   UNL     1      56.951  88.633  47.736  1.00  0.00     0.016 A 
HETATM   28  C   UNL     1      57.154  87.301  48.096  1.00  0.00     0.003 A 
HETATM   29  C   UNL     1      57.459  86.354  47.118  1.00  0.00     0.029 A 
BRANCH  26  30
HETATM   30  C   UNL     1      56.836  90.444  46.016  1.00  0.00     0.417 C 
HETATM   31  F   UNL     1      55.580  90.699  45.545  1.00  0.00    -0.166 F 
HETATM   32  F   UNL     1      57.015  91.320  47.048  1.00  0.00    -0.166 F 
HETATM   33  F   UNL     1      57.687  90.858  45.032  1.00  0.00    -0.166 F 
ENDBRANCH  26  30
ENDBRANCH  22  24
ENDBRANCH   5  22
TORSDOF 7
ENDMDL
MODEL 8
REMARK VINA RESULT:      -7.0      6.395     10.118
REMARK  7 active torsions:
REMARK  status: ('A' for Active; 'I' for Inactive)
REMARK       I    between atoms: N_5  and  C_13 
REMARK    1  A    between atoms: N_5  and  C_14 
REMARK    2  A    between atoms: N_6  and  C_17 
REMARK    3  A    between atoms: N_6  and  C_20 
REMARK    4  A    between atoms: N_7  and  C_21 
REMARK    5  A    between atoms: N_7  and  C_23 
REMARK    6  A    between atoms: C_10  and  C_13 
REMARK    7  A    between atoms: C_24  and  C_29 
ROOT
HETATM    1  N   UNL     1      60.754  82.927  41.138  1.00  0.00    -0.224 NA
HETATM    2  N   UNL     1      61.065  82.548  38.778  1.00  0.00    -0.224 NA
HETATM    3  C   UNL     1      60.048  84.035  40.829  1.00  0.00     0.133 A 
HETATM    4  C   UNL     1      59.812  84.458  39.537  1.00  0.00     0.100 A 
HETATM    5  C   UNL     1      60.349  83.670  38.534  1.00  0.00     0.133 A 
HETATM    6  C   UNL     1      61.227  82.241  40.079  1.00  0.00     0.237 A 
ENDROOT
BRANCH   3   7
HETATM    7  N   UNL     1      59.514  84.818  41.881  1.00  0.00    -0.341 N 
HETATM    8  H   UNL     1      60.204  85.406  42.339  1.00  0.00     0.167 HD
BRANCH   7   9
HETATM    9  C   UNL     1      58.216  84.943  42.405  1.00  0.00     0.035 A 
HETATM   10  C   UNL     1      58.029  85.274  43.749  1.00  0.00     0.059 A 
HETATM   11  C   UNL     1      56.741  85.399  44.268  1.00  0.00     0.036 A 
HETATM   12  C   UNL     1      55.633  85.193  43.445  1.00  0.00     0.029 A 
HETATM   13  C   UNL     1      55.815  84.862  42.102  1.00  0.00     0.004 A 
HETATM   14  C   UNL     1      57.104  84.736  41.583  1.00  0.00     0.029 A 
BRANCH  11  15
HETATM   15  N   UNL     1      56.558  85.731  45.612  1.00  0.00    -0.327 N 
HETATM   16  C   UNL     1      57.084  86.822  46.308  1.00  0.00     0.226 C 
HETATM   17  O   UNL     1      57.810  87.707  45.878  1.00  0.00    -0.273 OA
HETATM   18  H   UNL     1      55.973  85.089  46.141  1.00  0.00     0.169 HD
BRANCH  16  19
HETATM   19  C   UNL     1      56.680  86.871  47.749  1.00  0.00     0.078 A 
HETATM   20  C   UNL     1      57.726  86.647  48.783  1.00  0.00     0.015 A 
HETATM   21  C   UNL     1      56.682  85.601  48.525  1.00  0.00     0.015 A 
ENDBRANCH  16  19
ENDBRANCH  11  15
ENDBRANCH   7   9
ENDBRANCH   3   7
BRANCH   5  22
HETATM   22  N   UNL     1      60.130  84.067  37.201  1.00  0.00    -0.341 N 
HETATM   23  H   UNL     1      60.797  83.657  36.552  1.00  0.00     0.167 HD
BRANCH  22  24
HETATM   24  C   UNL     1      59.407  85.135  36.630  1.00  0.00     0.034 A 
HETATM   25  C   UNL     1      58.020  85.192  36.764  1.00  0.00     0.045 A 
HETATM   26  C   UNL     1      57.307  86.249  36.200  1.00  0.00     0.050 A 
HETATM   27  C   UNL     1      57.981  87.250  35.501  1.00  0.00     0.016 A 
HETATM   28  C   UNL     1      59.368  87.194  35.365  1.00  0.00     0.003 A 
HETATM   29  C   UNL     1      60.081  86.136  35.930  1.00  0.00     0.029 A 
BRANCH  26  30
HETATM   30  C   UNL     1      55.823  86.310  36.344  1.00  0.00     0.417 C 
HETATM   31  F   UNL     1      55.183  85.194  35.888  1.00  0.00    -0.166 F 
HETATM   32  F   UNL     1      55.406  86.457  37.636  1.00  0.00    -0.166 F 
HETATM   33  F   UNL     1      55.272  87.354  35.660  1.00  0.00    -0.166 F 
ENDBRANCH  26  30
ENDBRANCH  22  24
ENDBRANCH   5  22
TORSDOF 7
ENDMDL
MODEL 9
REMARK VINA RESULT:      -6.9      7.214     10.411
REMARK  7 active torsions:
REMARK  status: ('A' for Active; 'I' for Inactive)
REMARK       I    between atoms: N_5  and  C_13 
REMARK    1  A    between atoms: N_5  and  C_14 
REMARK    2  A    between atoms: N_6  and  C_17 
REMARK    3  A    between atoms: N_6  and  C_20 
REMARK    4  A    between atoms: N_7  and  C_21 
REMARK    5  A    between atoms: N_7  and  C_23 
REMARK    6  A    between atoms: C_10  and  C_13 
REMARK    7  A    between atoms: C_24  and  C_29 
ROOT
HETATM    1  N   UNL     1      55.143  85.597  40.948  1.00  0.00    -0.224 NA
HETATM    2  N   UNL     1      55.602  85.627  43.313  1.00  0.00    -0.224 NA
HETATM    3  C   UNL     1      56.388  85.118  40.749  1.00  0.00     0.133 A 
HETATM    4  C   UNL     1      57.286  84.870  41.768  1.00  0.00     0.100 A 
HETATM    5  C   UNL     1      56.839  85.145  43.048  1.00  0.00     0.133 A 
HETATM    6  C   UNL     1      54.821  85.827  42.235  1.00  0.00     0.237 A 
ENDROOT
BRANCH   3   7
HETATM    7  N   UNL     1      56.813  84.848  39.425  1.00  0.00    -0.341 N 
HETATM    8  H   UNL     1      57.459  84.067  39.359  1.00  0.00     0.167 HD
BRANCH   7   9
HETATM    9  C   UNL     1      56.508  85.447  38.192  1.00  0.00     0.035 A 
HETATM   10  C   UNL     1      57.530  85.943  37.378  1.00  0.00     0.059 A 
HETATM   11  C   UNL     1      57.227  86.536  36.153  1.00  0.00     0.036 A 
HETATM   12  C   UNL     1      55.899  86.635  35.736  1.00  0.00     0.029 A 
HETATM   13  C   UNL     1      54.875  86.141  36.544  1.00  0.00     0.004 A 
HETATM   14  C   UNL     1      55.179  85.549  37.770  1.00  0.00     0.029 A 
BRANCH  11  15
HETATM   15  N   UNL     1      58.251  87.029  35.343  1.00  0.00    -0.327 N 
HETATM   16  C   UNL     1      59.201  86.305  34.620  1.00  0.00     0.226 C 
HETATM   17  O   UNL     1      59.325  85.089  34.551  1.00  0.00    -0.273 OA
HETATM   18  H   UNL     1      58.306  88.043  35.284  1.00  0.00     0.169 HD
BRANCH  16  19
HETATM   19  C   UNL     1      60.159  87.162  33.852  1.00  0.00     0.078 A 
HETATM   20  C   UNL     1      59.814  88.594  33.645  1.00  0.00     0.015 A 
HETATM   21  C   UNL     1      59.757  87.629  32.497  1.00  0.00     0.015 A 
ENDBRANCH  16  19
ENDBRANCH  11  15
ENDBRANCH   7   9
ENDBRANCH   3   7
BRANCH   5  22
HETATM   22  N   UNL     1      57.725  84.906  44.116  1.00  0.00    -0.341 N 
HETATM   23  H   UNL     1      57.877  83.914  44.289  1.00  0.00     0.167 HD
BRANCH  22  24
HETATM   24  C   UNL     1      58.182  85.715  45.178  1.00  0.00     0.034 A 
HETATM   25  C   UNL     1      57.419  85.839  46.339  1.00  0.00     0.045 A 
HETATM   26  C   UNL     1      57.873  86.638  47.388  1.00  0.00     0.050 A 
HETATM   27  C   UNL     1      59.088  87.313  47.277  1.00  0.00     0.016 A 
HETATM   28  C   UNL     1      59.851  87.189  46.115  1.00  0.00     0.003 A 
HETATM   29  C   UNL     1      59.397  86.390  45.066  1.00  0.00     0.029 A 
BRANCH  26  30
HETATM   30  C   UNL     1      57.058  86.771  48.631  1.00  0.00     0.417 C 
HETATM   31  F   UNL     1      56.166  85.753  48.813  1.00  0.00    -0.166 F 
HETATM   32  F   UNL     1      57.805  86.800  49.774  1.00  0.00    -0.166 F 
HETATM   33  F   UNL     1      56.314  87.917  48.651  1.00  0.00    -0.166 F 
ENDBRANCH  26  30
ENDBRANCH  22  24
ENDBRANCH   5  22
TORSDOF 7
ENDMDL
