MODEL 1
REMARK VINA RESULT:      -7.5      0.000      0.000
REMARK  7 active torsions:
REMARK  status: ('A' for Active; 'I' for Inactive)
REMARK       I    between atoms: N_5  and  C_13 
REMARK    1  A    between atoms: N_5  and  C_14 
REMARK    2  A    between atoms: N_6  and  C_17 
REMARK    3  A    between atoms: N_6  and  C_20 
REMARK    4  A    between atoms: N_7  and  C_21 
REMARK    5  A    between atoms: N_7  and  C_23 
REMARK    6  A    between atoms: C_10  and  C_13 
REMARK    7  A    between atoms: C_24  and  C_29 
ROOT
HETATM    1  N   UNL     1      60.723  82.450  32.403  1.00  0.00    -0.224 NA
HETATM    2  N   UNL     1      59.632  84.513  33.005  1.00  0.00    -0.224 NA
HETATM    3  C   UNL     1      61.027  82.275  33.706  1.00  0.00     0.133 A 
HETATM    4  C   UNL     1      60.673  83.161  34.702  1.00  0.00     0.100 A 
HETATM    5  C   UNL     1      59.968  84.280  34.295  1.00  0.00     0.133 A 
HETATM    6  C   UNL     1      60.035  83.574  32.127  1.00  0.00     0.237 A 
ENDROOT
BRANCH   3   7
HETATM    7  N   UNL     1      61.751  81.119  34.088  1.00  0.00    -0.341 N 
HETATM    8  H   UNL     1      62.746  81.182  33.895  1.00  0.00     0.167 HD
BRANCH   7   9
HETATM    9  C   UNL     1      61.359  79.910  34.687  1.00  0.00     0.035 A 
HETATM   10  C   UNL     1      60.699  78.933  33.936  1.00  0.00     0.059 A 
HETATM   11  C   UNL     1      60.312  77.733  34.530  1.00  0.00     0.036 A 
HETATM   12  C   UNL     1      60.583  77.503  35.880  1.00  0.00     0.029 A 
HETATM   13  C   UNL     1      61.242  78.474  36.633  1.00  0.00     0.004 A 
HETATM   14  C   UNL     1      61.628  79.676  36.038  1.00  0.00     0.029 A 
BRANCH  11  15
HETATM   15  N   UNL     1      59.654  76.761  33.776  1.00  0.00    -0.327 N 
HETATM   16  C   UNL     1      58.279  76.605  33.583  1.00  0.00     0.226 C 
HETATM   17  O   UNL     1      57.375  77.293  34.037  1.00  0.00    -0.273 OA
HETATM   18  H   UNL     1      60.260  76.083  33.319  1.00  0.00     0.169 HD
BRANCH  16  19
HETATM   19  C   UNL     1      57.919  75.445  32.707  1.00  0.00     0.078 A 
HETATM   20  C   UNL     1      59.016  74.712  32.021  1.00  0.00     0.015 A 
HETATM   21  C   UNL     1      58.090  75.594  31.236  1.00  0.00     0.015 A 
ENDBRANCH  16  19
ENDBRANCH  11  15
ENDBRANCH   7   9
ENDBRANCH   3   7
BRANCH   5  22
HETATM   22  N   UNL     1      59.587  85.209  35.281  1.00  0.00    -0.341 N 
HETATM   23  H   UNL     1      60.166  85.158  36.116  1.00  0.00     0.167 HD
BRANCH  22  24
HETATM   24  C   UNL     1      58.407  85.954  35.487  1.00  0.00     0.034 A 
HETATM   25  C   UNL     1      57.457  85.517  36.410  1.00  0.00     0.045 A 
HETATM   26  C   UNL     1      56.292  86.255  36.614  1.00  0.00     0.050 A 
HETATM   27  C   UNL     1      56.075  87.430  35.894  1.00  0.00     0.016 A 
HETATM   28  C   UNL     1      57.024  87.867  34.970  1.00  0.00     0.003 A 
HETATM   29  C   UNL     1      58.190  87.129  34.767  1.00  0.00     0.029 A 
BRANCH  26  30
HETATM   30  C   UNL     1      55.276  85.788  37.601  1.00  0.00     0.417 C 
HETATM   31  F   UNL     1      55.081  86.654  38.638  1.00  0.00    -0.166 F 
HETATM   32  F   UNL     1      54.037  85.595  37.060  1.00  0.00    -0.166 F 
HETATM   33  F   UNL     1      55.613  84.596  38.178  1.00  0.00    -0.166 F 
ENDBRANCH  26  30
ENDBRANCH  22  24
ENDBRANCH   5  22
TORSDOF 7
ENDMDL
MODEL 2
REMARK VINA RESULT:      -7.3      4.223      6.528
REMARK  7 active torsions:
REMARK  status: ('A' for Active; 'I' for Inactive)
REMARK       I    between atoms: N_5  and  C_13 
REMARK    1  A    between atoms: N_5  and  C_14 
REMARK    2  A    between atoms: N_6  and  C_17 
REMARK    3  A    between atoms: N_6  and  C_20 
REMARK    4  A    between atoms: N_7  and  C_21 
REMARK    5  A    between atoms: N_7  and  C_23 
REMARK    6  A    between atoms: C_10  and  C_13 
REMARK    7  A    between atoms: C_24  and  C_29 
ROOT
HETATM    1  N   UNL     1      56.642  86.656  36.521  1.00  0.00    -0.224 NA
HETATM    2  N   UNL     1      55.415  85.912  38.457  1.00  0.00    -0.224 NA
HETATM    3  C   UNL     1      57.695  85.934  36.958  1.00  0.00     0.133 A 
HETATM    4  C   UNL     1      57.684  85.186  38.118  1.00  0.00     0.100 A 
HETATM    5  C   UNL     1      56.506  85.209  38.841  1.00  0.00     0.133 A 
HETATM    6  C   UNL     1      55.551  86.601  37.309  1.00  0.00     0.237 A 
ENDROOT
BRANCH   3   7
HETATM    7  N   UNL     1      58.887  85.934  36.192  1.00  0.00    -0.341 N 
HETATM    8  H   UNL     1      59.618  86.523  36.582  1.00  0.00     0.167 HD
BRANCH   7   9
HETATM    9  C   UNL     1      59.252  85.274  35.007  1.00  0.00     0.035 A 
HETATM   10  C   UNL     1      59.354  83.881  34.980  1.00  0.00     0.059 A 
HETATM   11  C   UNL     1      59.715  83.227  33.803  1.00  0.00     0.036 A 
HETATM   12  C   UNL     1      59.977  83.963  32.647  1.00  0.00     0.029 A 
HETATM   13  C   UNL     1      59.877  85.354  32.669  1.00  0.00     0.004 A 
HETATM   14  C   UNL     1      59.516  86.008  33.848  1.00  0.00     0.029 A 
BRANCH  11  15
HETATM   15  N   UNL     1      59.815  81.835  33.780  1.00  0.00    -0.327 N 
HETATM   16  C   UNL     1      59.102  80.933  32.987  1.00  0.00     0.226 C 
HETATM   17  O   UNL     1      58.245  81.186  32.149  1.00  0.00    -0.273 OA
HETATM   18  H   UNL     1      60.489  81.437  34.430  1.00  0.00     0.169 HD
BRANCH  16  19
HETATM   19  C   UNL     1      59.464  79.500  33.223  1.00  0.00     0.078 A 
HETATM   20  C   UNL     1      59.358  78.549  32.084  1.00  0.00     0.015 A 
HETATM   21  C   UNL     1      58.374  78.487  33.214  1.00  0.00     0.015 A 
ENDBRANCH  16  19
ENDBRANCH  11  15
ENDBRANCH   7   9
ENDBRANCH   3   7
BRANCH   5  22
HETATM   22  N   UNL     1      56.453  84.458  40.031  1.00  0.00    -0.341 N 
HETATM   23  H   UNL     1      56.067  83.527  39.894  1.00  0.00     0.167 HD
BRANCH  22  24
HETATM   24  C   UNL     1      56.517  84.821  41.393  1.00  0.00     0.034 A 
HETATM   25  C   UNL     1      57.754  84.944  42.026  1.00  0.00     0.045 A 
HETATM   26  C   UNL     1      57.816  85.304  43.371  1.00  0.00     0.050 A 
HETATM   27  C   UNL     1      56.641  85.541  44.085  1.00  0.00     0.016 A 
HETATM   28  C   UNL     1      55.404  85.418  43.453  1.00  0.00     0.003 A 
HETATM   29  C   UNL     1      55.342  85.058  42.106  1.00  0.00     0.029 A 
BRANCH  26  30
HETATM   30  C   UNL     1      59.138  85.435  44.049  1.00  0.00     0.417 C 
HETATM   31  F   UNL     1      60.117  85.945  43.245  1.00  0.00    -0.166 F 
HETATM   32  F   UNL     1      59.113  86.254  45.142  1.00  0.00    -0.166 F 
HETATM   33  F   UNL     1      59.620  84.239  44.498  1.00  0.00    -0.166 F 
ENDBRANCH  26  30
ENDBRANCH  22  24
ENDBRANCH   5  22
TORSDOF 7
ENDMDL
MODEL 3
REMARK VINA RESULT:      -7.3      7.970     12.727
REMARK  7 active torsions:
REMARK  status: ('A' for Active; 'I' for Inactive)
REMARK       I    between atoms: N_5  and  C_13 
REMARK    1  A    between atoms: N_5  and  C_14 
REMARK    2  A    between atoms: N_6  and  C_17 
REMARK    3  A    between atoms: N_6  and  C_20 
REMARK    4  A    between atoms: N_7  and  C_21 
REMARK    5  A    between atoms: N_7  and  C_23 
REMARK    6  A    between atoms: C_10  and  C_13 
REMARK    7  A    between atoms: C_24  and  C_29 
ROOT
HETATM    1  N   UNL     1      55.530  85.731  43.818  1.00  0.00    -0.224 NA
HETATM    2  N   UNL     1      55.609  85.032  41.514  1.00  0.00    -0.224 NA
HETATM    3  C   UNL     1      56.867  85.562  43.877  1.00  0.00     0.133 A 
HETATM    4  C   UNL     1      57.634  85.138  42.810  1.00  0.00     0.100 A 
HETATM    5  C   UNL     1      56.948  84.882  41.636  1.00  0.00     0.133 A 
HETATM    6  C   UNL     1      54.973  85.451  42.624  1.00  0.00     0.237 A 
ENDROOT
BRANCH   3   7
HETATM    7  N   UNL     1      57.537  85.832  45.095  1.00  0.00    -0.341 N 
HETATM    8  H   UNL     1      58.273  85.166  45.309  1.00  0.00     0.167 HD
BRANCH   7   9
HETATM    9  C   UNL     1      57.384  86.845  46.057  1.00  0.00     0.035 A 
HETATM   10  C   UNL     1      57.441  88.189  45.679  1.00  0.00     0.059 A 
HETATM   11  C   UNL     1      57.287  89.194  46.634  1.00  0.00     0.036 A 
HETATM   12  C   UNL     1      57.075  88.858  47.971  1.00  0.00     0.029 A 
HETATM   13  C   UNL     1      57.017  87.518  48.353  1.00  0.00     0.004 A 
HETATM   14  C   UNL     1      57.171  86.514  47.398  1.00  0.00     0.029 A 
BRANCH  11  15
HETATM   15  N   UNL     1      57.345  90.535  46.252  1.00  0.00    -0.327 N 
HETATM   16  C   UNL     1      56.342  91.305  45.659  1.00  0.00     0.226 C 
HETATM   17  O   UNL     1      55.208  90.957  45.357  1.00  0.00    -0.273 OA
HETATM   18  H   UNL     1      58.234  90.998  46.426  1.00  0.00     0.169 HD
BRANCH  16  19
HETATM   19  C   UNL     1      56.748  92.719  45.382  1.00  0.00     0.078 A 
HETATM   20  C   UNL     1      55.933  93.513  44.424  1.00  0.00     0.015 A 
HETATM   21  C   UNL     1      57.305  93.042  44.040  1.00  0.00     0.015 A 
ENDBRANCH  16  19
ENDBRANCH  11  15
ENDBRANCH   7   9
ENDBRANCH   3   7
BRANCH   5  22
HETATM   22  N   UNL     1      57.694  84.447  40.524  1.00  0.00    -0.341 N 
HETATM   23  H   UNL     1      58.542  83.950  40.787  1.00  0.00     0.167 HD
BRANCH  22  24
HETATM   24  C   UNL     1      57.687  84.821  39.164  1.00  0.00     0.034 A 
HETATM   25  C   UNL     1      56.504  85.254  38.565  1.00  0.00     0.045 A 
HETATM   26  C   UNL     1      56.499  85.625  37.221  1.00  0.00     0.050 A 
HETATM   27  C   UNL     1      57.677  85.565  36.476  1.00  0.00     0.016 A 
HETATM   28  C   UNL     1      58.860  85.132  37.074  1.00  0.00     0.003 A 
HETATM   29  C   UNL     1      58.865  84.761  38.419  1.00  0.00     0.029 A 
BRANCH  26  30
HETATM   30  C   UNL     1      55.234  86.088  36.579  1.00  0.00     0.417 C 
HETATM   31  F   UNL     1      55.346  87.298  35.956  1.00  0.00    -0.166 F 
HETATM   32  F   UNL     1      54.765  85.236  35.620  1.00  0.00    -0.166 F 
HETATM   33  F   UNL     1      54.213  86.230  37.474  1.00  0.00    -0.166 F 
ENDBRANCH  26  30
ENDBRANCH  22  24
ENDBRANCH   5  22
TORSDOF 7
ENDMDL
MODEL 4
REMARK VINA RESULT:      -7.2      1.641      2.733
REMARK  7 active torsions:
REMARK  status: ('A' for Active; 'I' for Inactive)
REMARK       I    between atoms: N_5  and  C_13 
REMARK    1  A    between atoms: N_5  and  C_14 
REMARK    2  A    between atoms: N_6  and  C_17 
REMARK    3  A    between atoms: N_6  and  C_20 
REMARK    4  A    between atoms: N_7  and  C_21 
REMARK    5  A    between atoms: N_7  and  C_23 
REMARK    6  A    between atoms: C_10  and  C_13 
REMARK    7  A    between atoms: C_24  and  C_29 
ROOT
HETATM    1  N   UNL     1      61.534  82.226  36.965  1.00  0.00    -0.224 NA
HETATM    2  N   UNL     1      60.851  84.355  37.865  1.00  0.00    -0.224 NA
HETATM    3  C   UNL     1      61.121  82.649  35.752  1.00  0.00     0.133 A 
HETATM    4  C   UNL     1      60.572  83.893  35.520  1.00  0.00     0.100 A 
HETATM    5  C   UNL     1      60.456  84.719  36.623  1.00  0.00     0.133 A 
HETATM    6  C   UNL     1      61.371  83.116  37.963  1.00  0.00     0.237 A 
ENDROOT
BRANCH   3   7
HETATM    7  N   UNL     1      61.253  81.776  34.644  1.00  0.00    -0.341 N 
HETATM    8  H   UNL     1      62.204  81.447  34.499  1.00  0.00     0.167 HD
BRANCH   7   9
HETATM    9  C   UNL     1      60.325  81.275  33.717  1.00  0.00     0.035 A 
HETATM   10  C   UNL     1      60.157  79.896  33.563  1.00  0.00     0.059 A 
HETATM   11  C   UNL     1      59.234  79.400  32.643  1.00  0.00     0.036 A 
HETATM   12  C   UNL     1      58.475  80.280  31.871  1.00  0.00     0.029 A 
HETATM   13  C   UNL     1      58.639  81.657  32.021  1.00  0.00     0.004 A 
HETATM   14  C   UNL     1      59.563  82.153  32.941  1.00  0.00     0.029 A 
BRANCH  11  15
HETATM   15  N   UNL     1      59.069  78.022  32.494  1.00  0.00    -0.327 N 
HETATM   16  C   UNL     1      58.142  77.192  33.128  1.00  0.00     0.226 C 
HETATM   17  O   UNL     1      57.286  77.509  33.944  1.00  0.00    -0.273 OA
HETATM   18  H   UNL     1      59.713  77.576  31.844  1.00  0.00     0.169 HD
BRANCH  16  19
HETATM   19  C   UNL     1      58.245  75.753  32.730  1.00  0.00     0.078 A 
HETATM   20  C   UNL     1      58.940  74.814  33.652  1.00  0.00     0.015 A 
HETATM   21  C   UNL     1      59.584  75.219  32.360  1.00  0.00     0.015 A 
ENDBRANCH  16  19
ENDBRANCH  11  15
ENDBRANCH   7   9
ENDBRANCH   3   7
BRANCH   5  22
HETATM   22  N   UNL     1      59.901  85.998  36.428  1.00  0.00    -0.341 N 
HETATM   23  H   UNL     1      60.526  86.748  36.714  1.00  0.00     0.167 HD
BRANCH  22  24
HETATM   24  C   UNL     1      58.578  86.445  36.231  1.00  0.00     0.034 A 
HETATM   25  C   UNL     1      57.558  86.004  37.075  1.00  0.00     0.045 A 
HETATM   26  C   UNL     1      56.251  86.447  36.880  1.00  0.00     0.050 A 
HETATM   27  C   UNL     1      55.962  87.331  35.841  1.00  0.00     0.016 A 
HETATM   28  C   UNL     1      56.980  87.772  34.996  1.00  0.00     0.003 A 
HETATM   29  C   UNL     1      58.289  87.329  35.192  1.00  0.00     0.029 A 
BRANCH  26  30
HETATM   30  C   UNL     1      55.160  85.976  37.783  1.00  0.00     0.417 C 
HETATM   31  F   UNL     1      55.363  84.719  38.276  1.00  0.00    -0.166 F 
HETATM   32  F   UNL     1      54.982  86.766  38.882  1.00  0.00    -0.166 F 
HETATM   33  F   UNL     1      53.945  85.933  37.161  1.00  0.00    -0.166 F 
ENDBRANCH  26  30
ENDBRANCH  22  24
ENDBRANCH   5  22
TORSDOF 7
ENDMDL
MODEL 5
REMARK VINA RESULT:      -7.1      2.688      3.776
REMARK  7 active torsions:
REMARK  status: ('A' for Active; 'I' for Inactive)
REMARK       I    between atoms: N_5  and  C_13 
REMARK    1  A    between atoms: N_5  and  C_14 
REMARK    2  A    between atoms: N_6  and  C_17 
REMARK    3  A    between atoms: N_6  and  C_20 
REMARK    4  A    between atoms: N_7  and  C_21 
REMARK    5  A    between atoms: N_7  and  C_23 
REMARK    6  A    between atoms: C_10  and  C_13 
REMARK    7  A    between atoms: C_24  and  C_29 
ROOT
HETATM    1  N   UNL     1      61.850  82.654  37.093  1.00  0.00    -0.224 NA
HETATM    2  N   UNL     1      60.595  84.054  38.601  1.00  0.00    -0.224 NA
HETATM    3  C   UNL     1      61.026  83.048  36.100  1.00  0.00     0.133 A 
HETATM    4  C   UNL     1      59.979  83.931  36.277  1.00  0.00     0.100 A 
HETATM    5  C   UNL     1      59.803  84.411  37.563  1.00  0.00     0.133 A 
HETATM    6  C   UNL     1      61.580  83.187  38.301  1.00  0.00     0.237 A 
ENDROOT
BRANCH   3   7
HETATM    7  N   UNL     1      61.235  82.536  34.797  1.00  0.00    -0.341 N 
HETATM    8  H   UNL     1      62.193  82.634  34.472  1.00  0.00     0.167 HD
BRANCH   7   9
HETATM    9  C   UNL     1      60.377  81.917  33.873  1.00  0.00     0.035 A 
HETATM   10  C   UNL     1      60.119  80.546  33.961  1.00  0.00     0.059 A 
HETATM   11  C   UNL     1      59.266  79.932  33.044  1.00  0.00     0.036 A 
HETATM   12  C   UNL     1      58.666  80.686  32.036  1.00  0.00     0.029 A 
HETATM   13  C   UNL     1      58.920  82.055  31.944  1.00  0.00     0.004 A 
HETATM   14  C   UNL     1      59.774  82.668  32.860  1.00  0.00     0.029 A 
BRANCH  11  15
HETATM   15  N   UNL     1      59.011  78.563  33.136  1.00  0.00    -0.327 N 
HETATM   16  C   UNL     1      57.792  77.929  33.386  1.00  0.00     0.226 C 
HETATM   17  O   UNL     1      56.700  78.449  33.573  1.00  0.00    -0.273 OA
HETATM   18  H   UNL     1      59.823  77.961  33.011  1.00  0.00     0.169 HD
BRANCH  16  19
HETATM   19  C   UNL     1      57.882  76.435  33.417  1.00  0.00     0.078 A 
HETATM   20  C   UNL     1      59.219  75.805  33.243  1.00  0.00     0.015 A 
HETATM   21  C   UNL     1      58.196  75.722  32.148  1.00  0.00     0.015 A 
ENDBRANCH  16  19
ENDBRANCH  11  15
ENDBRANCH   7   9
ENDBRANCH   3   7
BRANCH   5  22
HETATM   22  N   UNL     1      58.747  85.314  37.785  1.00  0.00    -0.341 N 
HETATM   23  H   UNL     1      58.424  85.314  38.750  1.00  0.00     0.167 HD
BRANCH  22  24
HETATM   24  C   UNL     1      57.847  85.965  36.915  1.00  0.00     0.034 A 
HETATM   25  C   UNL     1      58.332  86.728  35.853  1.00  0.00     0.045 A 
HETATM   26  C   UNL     1      57.442  87.370  34.992  1.00  0.00     0.050 A 
HETATM   27  C   UNL     1      56.067  87.249  35.194  1.00  0.00     0.016 A 
HETATM   28  C   UNL     1      55.582  86.487  36.256  1.00  0.00     0.003 A 
HETATM   29  C   UNL     1      56.472  85.844  37.117  1.00  0.00     0.029 A 
BRANCH  26  30
HETATM   30  C   UNL     1      57.960  88.186  33.856  1.00  0.00     0.417 C 
HETATM   31  F   UNL     1      59.267  88.556  33.998  1.00  0.00    -0.166 F 
HETATM   32  F   UNL     1      57.900  87.545  32.651  1.00  0.00    -0.166 F 
HETATM   33  F   UNL     1      57.267  89.350  33.686  1.00  0.00    -0.166 F 
ENDBRANCH  26  30
ENDBRANCH  22  24
ENDBRANCH   5  22
TORSDOF 7
ENDMDL
MODEL 6
REMARK VINA RESULT:      -7.0      6.555     10.221
REMARK  7 active torsions:
REMARK  status: ('A' for Active; 'I' for Inactive)
REMARK       I    between atoms: N_5  and  C_13 
REMARK    1  A    between atoms: N_5  and  C_14 
REMARK    2  A    between atoms: N_6  and  C_17 
REMARK    3  A    between atoms: N_6  and  C_20 
REMARK    4  A    between atoms: N_7  and  C_21 
REMARK    5  A    between atoms: N_7  and  C_23 
REMARK    6  A    between atoms: C_10  and  C_13 
REMARK    7  A    between atoms: C_24  and  C_29 
ROOT
HETATM    1  N   UNL     1      60.796  82.892  41.154  1.00  0.00    -0.224 NA
HETATM    2  N   UNL     1      61.110  82.508  38.796  1.00  0.00    -0.224 NA
HETATM    3  C   UNL     1      60.149  84.035  40.844  1.00  0.00     0.133 A 
HETATM    4  C   UNL     1      59.945  84.474  39.552  1.00  0.00     0.100 A 
HETATM    5  C   UNL     1      60.452  83.665  38.551  1.00  0.00     0.133 A 
HETATM    6  C   UNL     1      61.245  82.189  40.097  1.00  0.00     0.237 A 
ENDROOT
BRANCH   3   7
HETATM    7  N   UNL     1      59.644  84.840  41.895  1.00  0.00    -0.341 N 
HETATM    8  H   UNL     1      60.324  85.501  42.260  1.00  0.00     0.167 HD
BRANCH   7   9
HETATM    9  C   UNL     1      58.388  84.904  42.520  1.00  0.00     0.035 A 
HETATM   10  C   UNL     1      58.298  85.029  43.909  1.00  0.00     0.059 A 
HETATM   11  C   UNL     1      57.051  85.094  44.529  1.00  0.00     0.036 A 
HETATM   12  C   UNL     1      55.887  85.033  43.762  1.00  0.00     0.029 A 
HETATM   13  C   UNL     1      55.971  84.908  42.376  1.00  0.00     0.004 A 
HETATM   14  C   UNL     1      57.219  84.842  41.756  1.00  0.00     0.029 A 
BRANCH  11  15
HETATM   15  N   UNL     1      56.966  85.221  45.916  1.00  0.00    -0.327 N 
HETATM   16  C   UNL     1      57.062  86.384  46.682  1.00  0.00     0.226 C 
HETATM   17  O   UNL     1      57.239  87.530  46.288  1.00  0.00    -0.273 OA
HETATM   18  H   UNL     1      56.823  84.350  46.423  1.00  0.00     0.169 HD
BRANCH  16  19
HETATM   19  C   UNL     1      56.924  86.153  48.155  1.00  0.00     0.078 A 
HETATM   20  C   UNL     1      56.694  87.330  49.035  1.00  0.00     0.015 A 
HETATM   21  C   UNL     1      58.018  86.624  49.047  1.00  0.00     0.015 A 
ENDBRANCH  16  19
ENDBRANCH  11  15
ENDBRANCH   7   9
ENDBRANCH   3   7
BRANCH   5  22
HETATM   22  N   UNL     1      60.265  84.078  37.218  1.00  0.00    -0.341 N 
HETATM   23  H   UNL     1      60.983  83.724  36.590  1.00  0.00     0.167 HD
BRANCH  22  24
HETATM   24  C   UNL     1      59.502  85.112  36.636  1.00  0.00     0.034 A 
HETATM   25  C   UNL     1      58.109  85.071  36.694  1.00  0.00     0.045 A 
HETATM   26  C   UNL     1      57.356  86.094  36.121  1.00  0.00     0.050 A 
HETATM   27  C   UNL     1      57.996  87.161  35.489  1.00  0.00     0.016 A 
HETATM   28  C   UNL     1      59.389  87.203  35.430  1.00  0.00     0.003 A 
HETATM   29  C   UNL     1      60.142  86.179  36.004  1.00  0.00     0.029 A 
BRANCH  26  30
HETATM   30  C   UNL     1      55.866  86.050  36.183  1.00  0.00     0.417 C 
HETATM   31  F   UNL     1      55.256  86.618  35.101  1.00  0.00    -0.166 F 
HETATM   32  F   UNL     1      55.360  84.784  36.254  1.00  0.00    -0.166 F 
HETATM   33  F   UNL     1      55.366  86.706  37.271  1.00  0.00    -0.166 F 
ENDBRANCH  26  30
ENDBRANCH  22  24
ENDBRANCH   5  22
TORSDOF 7
ENDMDL
MODEL 7
REMARK VINA RESULT:      -6.9      5.933      9.771
REMARK  7 active torsions:
REMARK  status: ('A' for Active; 'I' for Inactive)
REMARK       I    between atoms: N_5  and  C_13 
REMARK    1  A    between atoms: N_5  and  C_14 
REMARK    2  A    between atoms: N_6  and  C_17 
REMARK    3  A    between atoms: N_6  and  C_20 
REMARK    4  A    between atoms: N_7  and  C_21 
REMARK    5  A    between atoms: N_7  and  C_23 
REMARK    6  A    between atoms: C_10  and  C_13 
REMARK    7  A    between atoms: C_24  and  C_29 
ROOT
HETATM    1  N   UNL     1      55.351  85.922  38.427  1.00  0.00    -0.224 NA
HETATM    2  N   UNL     1      56.687  86.601  36.540  1.00  0.00    -0.224 NA
HETATM    3  C   UNL     1      56.399  85.190  38.859  1.00  0.00     0.133 A 
HETATM    4  C   UNL     1      57.607  85.115  38.195  1.00  0.00     0.100 A 
HETATM    5  C   UNL     1      57.701  85.848  37.025  1.00  0.00     0.133 A 
HETATM    6  C   UNL     1      55.560  86.591  37.278  1.00  0.00     0.237 A 
ENDROOT
BRANCH   3   7
HETATM    7  N   UNL     1      56.268  84.451  40.060  1.00  0.00    -0.341 N 
HETATM    8  H   UNL     1      55.981  83.487  39.913  1.00  0.00     0.167 HD
BRANCH   7   9
HETATM    9  C   UNL     1      56.464  84.792  41.408  1.00  0.00     0.035 A 
HETATM   10  C   UNL     1      57.757  84.875  41.933  1.00  0.00     0.059 A 
HETATM   11  C   UNL     1      57.951  85.214  43.271  1.00  0.00     0.036 A 
HETATM   12  C   UNL     1      56.853  85.473  44.092  1.00  0.00     0.029 A 
HETATM   13  C   UNL     1      55.560  85.391  43.573  1.00  0.00     0.004 A 
HETATM   14  C   UNL     1      55.367  85.050  42.234  1.00  0.00     0.029 A 
BRANCH  11  15
HETATM   15  N   UNL     1      59.244  85.297  43.790  1.00  0.00    -0.327 N 
HETATM   16  C   UNL     1      60.075  86.418  43.857  1.00  0.00     0.226 C 
HETATM   17  O   UNL     1      59.834  87.555  43.472  1.00  0.00    -0.273 OA
HETATM   18  H   UNL     1      59.620  84.426  44.158  1.00  0.00     0.169 HD
BRANCH  16  19
HETATM   19  C   UNL     1      61.408  86.147  44.482  1.00  0.00     0.078 A 
HETATM   20  C   UNL     1      61.675  84.781  45.008  1.00  0.00     0.015 A 
HETATM   21  C   UNL     1      61.465  85.928  45.953  1.00  0.00     0.015 A 
ENDBRANCH  16  19
ENDBRANCH  11  15
ENDBRANCH   7   9
ENDBRANCH   3   7
BRANCH   5  22
HETATM   22  N   UNL     1      58.917  85.799  36.317  1.00  0.00    -0.341 N 
HETATM   23  H   UNL     1      59.591  86.490  36.641  1.00  0.00     0.167 HD
BRANCH  22  24
HETATM   24  C   UNL     1      59.278  85.232  35.077  1.00  0.00     0.034 A 
HETATM   25  C   UNL     1      59.375  83.847  34.944  1.00  0.00     0.045 A 
HETATM   26  C   UNL     1      59.731  83.288  33.717  1.00  0.00     0.050 A 
HETATM   27  C   UNL     1      59.990  84.113  32.623  1.00  0.00     0.016 A 
HETATM   28  C   UNL     1      59.893  85.498  32.756  1.00  0.00     0.003 A 
HETATM   29  C   UNL     1      59.537  86.058  33.983  1.00  0.00     0.029 A 
BRANCH  26  30
HETATM   30  C   UNL     1      59.835  81.806  33.574  1.00  0.00     0.417 C 
HETATM   31  F   UNL     1      60.450  81.409  32.422  1.00  0.00    -0.166 F 
HETATM   32  F   UNL     1      60.540  81.209  34.579  1.00  0.00    -0.166 F 
HETATM   33  F   UNL     1      58.615  81.192  33.568  1.00  0.00    -0.166 F 
ENDBRANCH  26  30
ENDBRANCH  22  24
ENDBRANCH   5  22
TORSDOF 7
ENDMDL
MODEL 8
REMARK VINA RESULT:      -6.8      7.947     10.802
REMARK  7 active torsions:
REMARK  status: ('A' for Active; 'I' for Inactive)
REMARK       I    between atoms: N_5  and  C_13 
REMARK    1  A    between atoms: N_5  and  C_14 
REMARK    2  A    between atoms: N_6  and  C_17 
REMARK    3  A    between atoms: N_6  and  C_20 
REMARK    4  A    between atoms: N_7  and  C_21 
REMARK    5  A    between atoms: N_7  and  C_23 
REMARK    6  A    between atoms: C_10  and  C_13 
REMARK    7  A    between atoms: C_24  and  C_29 
ROOT
HETATM    1  N   UNL     1      60.633  85.802  45.505  1.00  0.00    -0.224 NA
HETATM    2  N   UNL     1      61.347  88.094  45.710  1.00  0.00    -0.224 NA
HETATM    3  C   UNL     1      59.964  86.150  44.386  1.00  0.00     0.133 A 
HETATM    4  C   UNL     1      59.940  87.431  43.874  1.00  0.00     0.100 A 
HETATM    5  C   UNL     1      60.656  88.379  44.582  1.00  0.00     0.133 A 
HETATM    6  C   UNL     1      61.293  86.809  46.108  1.00  0.00     0.237 A 
ENDROOT
BRANCH   3   7
HETATM    7  N   UNL     1      59.240  85.154  43.686  1.00  0.00    -0.341 N 
HETATM    8  H   UNL     1      59.747  84.279  43.588  1.00  0.00     0.167 HD
BRANCH   7   9
HETATM    9  C   UNL     1      57.959  85.141  43.111  1.00  0.00     0.035 A 
HETATM   10  C   UNL     1      57.801  84.868  41.749  1.00  0.00     0.059 A 
HETATM   11  C   UNL     1      56.529  84.855  41.179  1.00  0.00     0.036 A 
HETATM   12  C   UNL     1      55.407  85.114  41.968  1.00  0.00     0.029 A 
HETATM   13  C   UNL     1      55.559  85.387  43.327  1.00  0.00     0.004 A 
HETATM   14  C   UNL     1      56.833  85.401  43.897  1.00  0.00     0.029 A 
BRANCH  11  15
HETATM   15  N   UNL     1      56.376  84.581  39.819  1.00  0.00    -0.327 N 
HETATM   16  C   UNL     1      55.841  85.408  38.829  1.00  0.00     0.226 C 
HETATM   17  O   UNL     1      55.400  86.542  38.956  1.00  0.00    -0.273 OA
HETATM   18  H   UNL     1      56.691  83.659  39.524  1.00  0.00     0.169 HD
BRANCH  16  19
HETATM   19  C   UNL     1      55.830  84.790  37.465  1.00  0.00     0.078 A 
HETATM   20  C   UNL     1      56.854  85.234  36.481  1.00  0.00     0.015 A 
HETATM   21  C   UNL     1      55.418  85.636  36.312  1.00  0.00     0.015 A 
ENDBRANCH  16  19
ENDBRANCH  11  15
ENDBRANCH   7   9
ENDBRANCH   3   7
BRANCH   5  22
HETATM   22  N   UNL     1      60.657  89.699  44.092  1.00  0.00    -0.341 N 
HETATM   23  H   UNL     1      61.593  90.095  44.026  1.00  0.00     0.167 HD
BRANCH  22  24
HETATM   24  C   UNL     1      59.648  90.678  43.983  1.00  0.00     0.034 A 
HETATM   25  C   UNL     1      58.528  90.622  44.812  1.00  0.00     0.045 A 
HETATM   26  C   UNL     1      57.531  91.592  44.704  1.00  0.00     0.050 A 
HETATM   27  C   UNL     1      57.654  92.617  43.766  1.00  0.00     0.016 A 
HETATM   28  C   UNL     1      58.774  92.674  42.937  1.00  0.00     0.003 A 
HETATM   29  C   UNL     1      59.771  91.704  43.045  1.00  0.00     0.029 A 
BRANCH  26  30
HETATM   30  C   UNL     1      56.332  91.532  45.590  1.00  0.00     0.417 C 
HETATM   31  F   UNL     1      56.539  92.071  46.827  1.00  0.00    -0.166 F 
HETATM   32  F   UNL     1      55.249  92.195  45.089  1.00  0.00    -0.166 F 
HETATM   33  F   UNL     1      55.908  90.253  45.814  1.00  0.00    -0.166 F 
ENDBRANCH  26  30
ENDBRANCH  22  24
ENDBRANCH   5  22
TORSDOF 7
ENDMDL
MODEL 9
REMARK VINA RESULT:      -6.8      2.079      2.933
REMARK  7 active torsions:
REMARK  status: ('A' for Active; 'I' for Inactive)
REMARK       I    between atoms: N_5  and  C_13 
REMARK    1  A    between atoms: N_5  and  C_14 
REMARK    2  A    between atoms: N_6  and  C_17 
REMARK    3  A    between atoms: N_6  and  C_20 
REMARK    4  A    between atoms: N_7  and  C_21 
REMARK    5  A    between atoms: N_7  and  C_23 
REMARK    6  A    between atoms: C_10  and  C_13 
REMARK    7  A    between atoms: C_24  and  C_29 
ROOT
HETATM    1  N   UNL     1      60.444  84.362  32.640  1.00  0.00    -0.224 NA
HETATM    2  N   UNL     1      59.449  86.373  33.520  1.00  0.00    -0.224 NA
HETATM    3  C   UNL     1      60.217  83.773  33.832  1.00  0.00     0.133 A 
HETATM    4  C   UNL     1      59.618  84.409  34.901  1.00  0.00     0.100 A 
HETATM    5  C   UNL     1      59.249  85.725  34.692  1.00  0.00     0.133 A 
HETATM    6  C   UNL     1      60.042  85.645  32.555  1.00  0.00     0.237 A 
ENDROOT
BRANCH   3   7
HETATM    7  N   UNL     1      60.609  82.424  34.012  1.00  0.00    -0.341 N 
HETATM    8  H   UNL     1      61.519  82.322  34.452  1.00  0.00     0.167 HD
BRANCH   7   9
HETATM    9  C   UNL     1      59.981  81.205  33.706  1.00  0.00     0.035 A 
HETATM   10  C   UNL     1      60.591  79.994  34.044  1.00  0.00     0.059 A 
HETATM   11  C   UNL     1      59.965  78.785  33.742  1.00  0.00     0.036 A 
HETATM   12  C   UNL     1      58.726  78.781  33.100  1.00  0.00     0.029 A 
HETATM   13  C   UNL     1      58.114  79.987  32.761  1.00  0.00     0.004 A 
HETATM   14  C   UNL     1      58.740  81.197  33.063  1.00  0.00     0.029 A 
BRANCH  11  15
HETATM   15  N   UNL     1      60.578  77.578  34.082  1.00  0.00    -0.327 N 
HETATM   16  C   UNL     1      61.109  77.200  35.317  1.00  0.00     0.226 C 
HETATM   17  O   UNL     1      61.143  77.854  36.351  1.00  0.00    -0.273 OA
HETATM   18  H   UNL     1      60.645  76.898  33.327  1.00  0.00     0.169 HD
BRANCH  16  19
HETATM   19  C   UNL     1      61.694  75.822  35.328  1.00  0.00     0.078 A 
HETATM   20  C   UNL     1      62.306  75.305  34.074  1.00  0.00     0.015 A 
HETATM   21  C   UNL     1      60.997  74.755  34.559  1.00  0.00     0.015 A 
ENDBRANCH  16  19
ENDBRANCH  11  15
ENDBRANCH   7   9
ENDBRANCH   3   7
BRANCH   5  22
HETATM   22  N   UNL     1      58.635  86.410  35.757  1.00  0.00    -0.341 N 
HETATM   23  H   UNL     1      59.263  87.061  36.223  1.00  0.00     0.167 HD
BRANCH  22  24
HETATM   24  C   UNL     1      57.465  86.161  36.504  1.00  0.00     0.034 A 
HETATM   25  C   UNL     1      57.558  85.655  37.801  1.00  0.00     0.045 A 
HETATM   26  C   UNL     1      56.401  85.411  38.539  1.00  0.00     0.050 A 
HETATM   27  C   UNL     1      55.149  85.673  37.981  1.00  0.00     0.016 A 
HETATM   28  C   UNL     1      55.055  86.179  36.685  1.00  0.00     0.003 A 
HETATM   29  C   UNL     1      56.213  86.424  35.947  1.00  0.00     0.029 A 
BRANCH  26  30
HETATM   30  C   UNL     1      56.500  84.869  39.926  1.00  0.00     0.417 C 
HETATM   31  F   UNL     1      57.775  84.845  40.414  1.00  0.00    -0.166 F 
HETATM   32  F   UNL     1      55.780  85.579  40.843  1.00  0.00    -0.166 F 
HETATM   33  F   UNL     1      56.048  83.584  40.021  1.00  0.00    -0.166 F 
ENDBRANCH  26  30
ENDBRANCH  22  24
ENDBRANCH   5  22
TORSDOF 7
ENDMDL
