MODEL 1
REMARK VINA RESULT:      -7.5      0.000      0.000
REMARK  7 active torsions:
REMARK  status: ('A' for Active; 'I' for Inactive)
REMARK       I    between atoms: N_5  and  C_13 
REMARK    1  A    between atoms: N_5  and  C_14 
REMARK    2  A    between atoms: N_6  and  C_17 
REMARK    3  A    between atoms: N_6  and  C_20 
REMARK    4  A    between atoms: N_7  and  C_21 
REMARK    5  A    between atoms: N_7  and  C_23 
REMARK    6  A    between atoms: C_10  and  C_13 
REMARK    7  A    between atoms: C_24  and  C_29 
ROOT
HETATM    1  N   UNL     1      60.760  82.465  32.371  1.00  0.00    -0.224 NA
HETATM    2  N   UNL     1      59.673  84.528  32.978  1.00  0.00    -0.224 NA
HETATM    3  C   UNL     1      61.038  82.271  33.677  1.00  0.00     0.133 A 
HETATM    4  C   UNL     1      60.671  83.148  34.678  1.00  0.00     0.100 A 
HETATM    5  C   UNL     1      59.982  84.276  34.271  1.00  0.00     0.133 A 
HETATM    6  C   UNL     1      60.086  83.598  32.096  1.00  0.00     0.237 A 
ENDROOT
BRANCH   3   7
HETATM    7  N   UNL     1      61.746  81.105  34.058  1.00  0.00    -0.341 N 
HETATM    8  H   UNL     1      62.738  81.146  33.845  1.00  0.00     0.167 HD
BRANCH   7   9
HETATM    9  C   UNL     1      61.342  79.911  34.679  1.00  0.00     0.035 A 
HETATM   10  C   UNL     1      60.697  78.916  33.939  1.00  0.00     0.059 A 
HETATM   11  C   UNL     1      60.298  77.731  34.555  1.00  0.00     0.036 A 
HETATM   12  C   UNL     1      60.542  77.534  35.915  1.00  0.00     0.029 A 
HETATM   13  C   UNL     1      61.186  78.524  36.657  1.00  0.00     0.004 A 
HETATM   14  C   UNL     1      61.584  79.710  36.040  1.00  0.00     0.029 A 
BRANCH  11  15
HETATM   15  N   UNL     1      59.654  76.740  33.812  1.00  0.00    -0.327 N 
HETATM   16  C   UNL     1      58.284  76.582  33.591  1.00  0.00     0.226 C 
HETATM   17  O   UNL     1      57.372  77.285  34.005  1.00  0.00    -0.273 OA
HETATM   18  H   UNL     1      60.269  76.048  33.388  1.00  0.00     0.169 HD
BRANCH  16  19
HETATM   19  C   UNL     1      57.941  75.400  32.739  1.00  0.00     0.078 A 
HETATM   20  C   UNL     1      59.037  74.728  31.990  1.00  0.00     0.015 A 
HETATM   21  C   UNL     1      58.018  75.552  31.260  1.00  0.00     0.015 A 
ENDBRANCH  16  19
ENDBRANCH  11  15
ENDBRANCH   7   9
ENDBRANCH   3   7
BRANCH   5  22
HETATM   22  N   UNL     1      59.589  85.196  35.262  1.00  0.00    -0.341 N 
HETATM   23  H   UNL     1      60.157  85.136  36.104  1.00  0.00     0.167 HD
BRANCH  22  24
HETATM   24  C   UNL     1      58.408  85.941  35.459  1.00  0.00     0.034 A 
HETATM   25  C   UNL     1      57.445  85.496  36.365  1.00  0.00     0.045 A 
HETATM   26  C   UNL     1      56.278  86.233  36.560  1.00  0.00     0.050 A 
HETATM   27  C   UNL     1      56.073  87.416  35.850  1.00  0.00     0.016 A 
HETATM   28  C   UNL     1      57.035  87.862  34.944  1.00  0.00     0.003 A 
HETATM   29  C   UNL     1      58.203  87.124  34.749  1.00  0.00     0.029 A 
BRANCH  26  30
HETATM   30  C   UNL     1      55.247  85.758  37.528  1.00  0.00     0.417 C 
HETATM   31  F   UNL     1      55.087  86.581  38.606  1.00  0.00    -0.166 F 
HETATM   32  F   UNL     1      54.001  85.637  36.984  1.00  0.00    -0.166 F 
HETATM   33  F   UNL     1      55.541  84.529  38.046  1.00  0.00    -0.166 F 
ENDBRANCH  26  30
ENDBRANCH  22  24
ENDBRANCH   5  22
TORSDOF 7
ENDMDL
MODEL 2
REMARK VINA RESULT:      -7.4      1.607      2.548
REMARK  7 active torsions:
REMARK  status: ('A' for Active; 'I' for Inactive)
REMARK       I    between atoms: N_5  and  C_13 
REMARK    1  A    between atoms: N_5  and  C_14 
REMARK    2  A    between atoms: N_6  and  C_17 
REMARK    3  A    between atoms: N_6  and  C_20 
REMARK    4  A    between atoms: N_7  and  C_21 
REMARK    5  A    between atoms: N_7  and  C_23 
REMARK    6  A    between atoms: C_10  and  C_13 
REMARK    7  A    between atoms: C_24  and  C_29 
ROOT
HETATM    1  N   UNL     1      61.552  82.266  37.212  1.00  0.00    -0.224 NA
HETATM    2  N   UNL     1      60.838  84.439  37.970  1.00  0.00    -0.224 NA
HETATM    3  C   UNL     1      61.178  82.619  35.965  1.00  0.00     0.133 A 
HETATM    4  C   UNL     1      60.635  83.847  35.646  1.00  0.00     0.100 A 
HETATM    5  C   UNL     1      60.483  84.733  36.697  1.00  0.00     0.133 A 
HETATM    6  C   UNL     1      61.356  83.209  38.153  1.00  0.00     0.237 A 
ENDROOT
BRANCH   3   7
HETATM    7  N   UNL     1      61.347  81.687  34.912  1.00  0.00    -0.341 N 
HETATM    8  H   UNL     1      62.314  81.410  34.767  1.00  0.00     0.167 HD
BRANCH   7   9
HETATM    9  C   UNL     1      60.437  81.068  34.038  1.00  0.00     0.035 A 
HETATM   10  C   UNL     1      60.275  79.680  34.057  1.00  0.00     0.059 A 
HETATM   11  C   UNL     1      59.371  79.068  33.190  1.00  0.00     0.036 A 
HETATM   12  C   UNL     1      58.624  79.841  32.300  1.00  0.00     0.029 A 
HETATM   13  C   UNL     1      58.782  81.226  32.278  1.00  0.00     0.004 A 
HETATM   14  C   UNL     1      59.687  81.839  33.145  1.00  0.00     0.029 A 
BRANCH  11  15
HETATM   15  N   UNL     1      59.212  77.682  33.212  1.00  0.00    -0.327 N 
HETATM   16  C   UNL     1      58.084  76.950  33.592  1.00  0.00     0.226 C 
HETATM   17  O   UNL     1      57.007  77.381  33.981  1.00  0.00    -0.273 OA
HETATM   18  H   UNL     1      60.027  77.147  32.919  1.00  0.00     0.169 HD
BRANCH  16  19
HETATM   19  C   UNL     1      58.263  75.467  33.493  1.00  0.00     0.078 A 
HETATM   20  C   UNL     1      59.613  74.900  33.757  1.00  0.00     0.015 A 
HETATM   21  C   UNL     1      59.065  74.929  32.360  1.00  0.00     0.015 A 
ENDBRANCH  16  19
ENDBRANCH  11  15
ENDBRANCH   7   9
ENDBRANCH   3   7
BRANCH   5  22
HETATM   22  N   UNL     1      59.933  85.998  36.414  1.00  0.00    -0.341 N 
HETATM   23  H   UNL     1      60.571  86.762  36.624  1.00  0.00     0.167 HD
BRANCH  22  24
HETATM   24  C   UNL     1      58.609  86.439  36.212  1.00  0.00     0.034 A 
HETATM   25  C   UNL     1      57.585  85.980  37.040  1.00  0.00     0.045 A 
HETATM   26  C   UNL     1      56.277  86.419  36.841  1.00  0.00     0.050 A 
HETATM   27  C   UNL     1      55.991  87.317  35.813  1.00  0.00     0.016 A 
HETATM   28  C   UNL     1      57.014  87.777  34.984  1.00  0.00     0.003 A 
HETATM   29  C   UNL     1      58.324  87.338  35.184  1.00  0.00     0.029 A 
BRANCH  26  30
HETATM   30  C   UNL     1      55.182  85.927  37.727  1.00  0.00     0.417 C 
HETATM   31  F   UNL     1      55.001  86.686  38.847  1.00  0.00    -0.166 F 
HETATM   32  F   UNL     1      53.960  85.894  37.118  1.00  0.00    -0.166 F 
HETATM   33  F   UNL     1      55.401  84.657  38.178  1.00  0.00    -0.166 F 
ENDBRANCH  26  30
ENDBRANCH  22  24
ENDBRANCH   5  22
TORSDOF 7
ENDMDL
MODEL 3
REMARK VINA RESULT:      -7.3      4.265      6.587
REMARK  7 active torsions:
REMARK  status: ('A' for Active; 'I' for Inactive)
REMARK       I    between atoms: N_5  and  C_13 
REMARK    1  A    between atoms: N_5  and  C_14 
REMARK    2  A    between atoms: N_6  and  C_17 
REMARK    3  A    between atoms: N_6  and  C_20 
REMARK    4  A    between atoms: N_7  and  C_21 
REMARK    5  A    between atoms: N_7  and  C_23 
REMARK    6  A    between atoms: C_10  and  C_13 
REMARK    7  A    between atoms: C_24  and  C_29 
ROOT
HETATM    1  N   UNL     1      56.799  86.619  36.528  1.00  0.00    -0.224 NA
HETATM    2  N   UNL     1      55.595  85.924  38.497  1.00  0.00    -0.224 NA
HETATM    3  C   UNL     1      57.842  85.874  36.948  1.00  0.00     0.133 A 
HETATM    4  C   UNL     1      57.837  85.135  38.115  1.00  0.00     0.100 A 
HETATM    5  C   UNL     1      56.675  85.195  38.863  1.00  0.00     0.133 A 
HETATM    6  C   UNL     1      55.724  86.600  37.339  1.00  0.00     0.237 A 
ENDROOT
BRANCH   3   7
HETATM    7  N   UNL     1      59.017  85.836  36.158  1.00  0.00    -0.341 N 
HETATM    8  H   UNL     1      59.784  86.376  36.547  1.00  0.00     0.167 HD
BRANCH   7   9
HETATM    9  C   UNL     1      59.324  85.192  34.947  1.00  0.00     0.035 A 
HETATM   10  C   UNL     1      59.320  83.797  34.871  1.00  0.00     0.059 A 
HETATM   11  C   UNL     1      59.624  83.159  33.669  1.00  0.00     0.036 A 
HETATM   12  C   UNL     1      59.934  83.914  32.537  1.00  0.00     0.029 A 
HETATM   13  C   UNL     1      59.939  85.307  32.608  1.00  0.00     0.004 A 
HETATM   14  C   UNL     1      59.636  85.945  33.811  1.00  0.00     0.029 A 
BRANCH  11  15
HETATM   15  N   UNL     1      59.618  81.765  33.597  1.00  0.00    -0.327 N 
HETATM   16  C   UNL     1      58.871  80.950  32.743  1.00  0.00     0.226 C 
HETATM   17  O   UNL     1      58.071  81.298  31.884  1.00  0.00    -0.273 OA
HETATM   18  H   UNL     1      60.233  81.294  34.257  1.00  0.00     0.169 HD
BRANCH  16  19
HETATM   19  C   UNL     1      59.113  79.486  32.939  1.00  0.00     0.078 A 
HETATM   20  C   UNL     1      60.125  79.067  33.945  1.00  0.00     0.015 A 
HETATM   21  C   UNL     1      60.411  78.919  32.480  1.00  0.00     0.015 A 
ENDBRANCH  16  19
ENDBRANCH  11  15
ENDBRANCH   7   9
ENDBRANCH   3   7
BRANCH   5  22
HETATM   22  N   UNL     1      56.629  84.456  40.060  1.00  0.00    -0.341 N 
HETATM   23  H   UNL     1      56.350  83.488  39.916  1.00  0.00     0.167 HD
BRANCH  22  24
HETATM   24  C   UNL     1      56.572  84.838  41.417  1.00  0.00     0.034 A 
HETATM   25  C   UNL     1      57.747  84.963  42.157  1.00  0.00     0.045 A 
HETATM   26  C   UNL     1      57.690  85.342  43.498  1.00  0.00     0.050 A 
HETATM   27  C   UNL     1      56.457  85.596  44.099  1.00  0.00     0.016 A 
HETATM   28  C   UNL     1      55.281  85.471  43.359  1.00  0.00     0.003 A 
HETATM   29  C   UNL     1      55.339  85.092  42.018  1.00  0.00     0.029 A 
BRANCH  26  30
HETATM   30  C   UNL     1      58.947  85.476  44.290  1.00  0.00     0.417 C 
HETATM   31  F   UNL     1      59.662  84.316  44.384  1.00  0.00    -0.166 F 
HETATM   32  F   UNL     1      59.821  86.392  43.778  1.00  0.00    -0.166 F 
HETATM   33  F   UNL     1      58.717  85.869  45.578  1.00  0.00    -0.166 F 
ENDBRANCH  26  30
ENDBRANCH  22  24
ENDBRANCH   5  22
TORSDOF 7
ENDMDL
MODEL 4
REMARK VINA RESULT:      -7.2      8.015     12.729
REMARK  7 active torsions:
REMARK  status: ('A' for Active; 'I' for Inactive)
REMARK       I    between atoms: N_5  and  C_13 
REMARK    1  A    between atoms: N_5  and  C_14 
REMARK    2  A    between atoms: N_6  and  C_17 
REMARK    3  A    between atoms: N_6  and  C_20 
REMARK    4  A    between atoms: N_7  and  C_21 
REMARK    5  A    between atoms: N_7  and  C_23 
REMARK    6  A    between atoms: C_10  and  C_13 
REMARK    7  A    between atoms: C_24  and  C_29 
ROOT
HETATM    1  N   UNL     1      55.723  85.565  43.842  1.00  0.00    -0.224 NA
HETATM    2  N   UNL     1      55.793  84.809  41.555  1.00  0.00    -0.224 NA
HETATM    3  C   UNL     1      57.072  85.551  43.849  1.00  0.00     0.133 A 
HETATM    4  C   UNL     1      57.841  85.183  42.763  1.00  0.00     0.100 A 
HETATM    5  C   UNL     1      57.144  84.815  41.626  1.00  0.00     0.133 A 
HETATM    6  C   UNL     1      55.157  85.187  42.680  1.00  0.00     0.237 A 
ENDROOT
BRANCH   3   7
HETATM    7  N   UNL     1      57.752  85.933  45.031  1.00  0.00    -0.341 N 
HETATM    8  H   UNL     1      58.593  85.391  45.207  1.00  0.00     0.167 HD
BRANCH   7   9
HETATM    9  C   UNL     1      57.492  86.918  45.998  1.00  0.00     0.035 A 
HETATM   10  C   UNL     1      57.519  88.271  45.650  1.00  0.00     0.059 A 
HETATM   11  C   UNL     1      57.260  89.248  46.610  1.00  0.00     0.036 A 
HETATM   12  C   UNL     1      56.972  88.876  47.924  1.00  0.00     0.029 A 
HETATM   13  C   UNL     1      56.943  87.527  48.276  1.00  0.00     0.004 A 
HETATM   14  C   UNL     1      57.204  86.550  47.315  1.00  0.00     0.029 A 
BRANCH  11  15
HETATM   15  N   UNL     1      57.287  90.598  46.258  1.00  0.00    -0.327 N 
HETATM   16  C   UNL     1      56.272  91.356  45.669  1.00  0.00     0.226 C 
HETATM   17  O   UNL     1      55.152  90.985  45.344  1.00  0.00    -0.273 OA
HETATM   18  H   UNL     1      58.162  91.080  46.453  1.00  0.00     0.169 HD
BRANCH  16  19
HETATM   19  C   UNL     1      56.645  92.785  45.427  1.00  0.00     0.078 A 
HETATM   20  C   UNL     1      55.851  93.564  44.440  1.00  0.00     0.015 A 
HETATM   21  C   UNL     1      57.253  93.142  44.116  1.00  0.00     0.015 A 
ENDBRANCH  16  19
ENDBRANCH  11  15
ENDBRANCH   7   9
ENDBRANCH   3   7
BRANCH   5  22
HETATM   22  N   UNL     1      57.892  84.434  40.495  1.00  0.00    -0.341 N 
HETATM   23  H   UNL     1      58.780  83.999  40.737  1.00  0.00     0.167 HD
BRANCH  22  24
HETATM   24  C   UNL     1      57.825  84.805  39.136  1.00  0.00     0.034 A 
HETATM   25  C   UNL     1      56.620  85.250  38.592  1.00  0.00     0.045 A 
HETATM   26  C   UNL     1      56.556  85.619  37.249  1.00  0.00     0.050 A 
HETATM   27  C   UNL     1      57.696  85.543  36.449  1.00  0.00     0.016 A 
HETATM   28  C   UNL     1      58.901  85.098  36.992  1.00  0.00     0.003 A 
HETATM   29  C   UNL     1      58.966  84.729  38.337  1.00  0.00     0.029 A 
BRANCH  26  30
HETATM   30  C   UNL     1      55.267  86.094  36.666  1.00  0.00     0.417 C 
HETATM   31  F   UNL     1      55.356  87.317  36.066  1.00  0.00    -0.166 F 
HETATM   32  F   UNL     1      54.761  85.262  35.708  1.00  0.00    -0.166 F 
HETATM   33  F   UNL     1      54.281  86.216  37.603  1.00  0.00    -0.166 F 
ENDBRANCH  26  30
ENDBRANCH  22  24
ENDBRANCH   5  22
TORSDOF 7
ENDMDL
MODEL 5
REMARK VINA RESULT:      -7.2      4.893      7.830
REMARK  7 active torsions:
REMARK  status: ('A' for Active; 'I' for Inactive)
REMARK       I    between atoms: N_5  and  C_13 
REMARK    1  A    between atoms: N_5  and  C_14 
REMARK    2  A    between atoms: N_6  and  C_17 
REMARK    3  A    between atoms: N_6  and  C_20 
REMARK    4  A    between atoms: N_7  and  C_21 
REMARK    5  A    between atoms: N_7  and  C_23 
REMARK    6  A    between atoms: C_10  and  C_13 
REMARK    7  A    between atoms: C_24  and  C_29 
ROOT
HETATM    1  N   UNL     1      61.942  81.746  39.962  1.00  0.00    -0.224 NA
HETATM    2  N   UNL     1      61.257  82.576  42.118  1.00  0.00    -0.224 NA
HETATM    3  C   UNL     1      61.731  82.981  39.461  1.00  0.00     0.133 A 
HETATM    4  C   UNL     1      61.291  84.050  40.216  1.00  0.00     0.100 A 
HETATM    5  C   UNL     1      61.065  83.792  41.556  1.00  0.00     0.133 A 
HETATM    6  C   UNL     1      61.687  81.616  41.278  1.00  0.00     0.237 A 
ENDROOT
BRANCH   3   7
HETATM    7  N   UNL     1      61.971  83.210  38.084  1.00  0.00    -0.341 N 
HETATM    8  H   UNL     1      62.958  83.230  37.843  1.00  0.00     0.167 HD
BRANCH   7   9
HETATM    9  C   UNL     1      61.111  83.406  36.991  1.00  0.00     0.035 A 
HETATM   10  C   UNL     1      60.123  84.393  37.042  1.00  0.00     0.059 A 
HETATM   11  C   UNL     1      59.270  84.588  35.956  1.00  0.00     0.036 A 
HETATM   12  C   UNL     1      59.402  83.797  34.814  1.00  0.00     0.029 A 
HETATM   13  C   UNL     1      60.386  82.811  34.759  1.00  0.00     0.004 A 
HETATM   14  C   UNL     1      61.239  82.616  35.846  1.00  0.00     0.029 A 
BRANCH  11  15
HETATM   15  N   UNL     1      58.285  85.576  36.010  1.00  0.00    -0.327 N 
HETATM   16  C   UNL     1      56.947  85.437  36.384  1.00  0.00     0.226 C 
HETATM   17  O   UNL     1      56.369  84.419  36.741  1.00  0.00    -0.273 OA
HETATM   18  H   UNL     1      58.590  86.507  35.736  1.00  0.00     0.169 HD
BRANCH  16  19
HETATM   19  C   UNL     1      56.167  86.714  36.327  1.00  0.00     0.078 A 
HETATM   20  C   UNL     1      56.414  87.641  35.190  1.00  0.00     0.015 A 
HETATM   21  C   UNL     1      56.890  87.992  36.569  1.00  0.00     0.015 A 
ENDBRANCH  16  19
ENDBRANCH  11  15
ENDBRANCH   7   9
ENDBRANCH   3   7
BRANCH   5  22
HETATM   22  N   UNL     1      60.615  84.856  42.361  1.00  0.00    -0.341 N 
HETATM   23  H   UNL     1      61.377  85.395  42.765  1.00  0.00     0.167 HD
BRANCH  22  24
HETATM   24  C   UNL     1      59.375  85.132  42.972  1.00  0.00     0.034 A 
HETATM   25  C   UNL     1      58.189  84.959  42.258  1.00  0.00     0.045 A 
HETATM   26  C   UNL     1      56.963  85.231  42.864  1.00  0.00     0.050 A 
HETATM   27  C   UNL     1      56.922  85.676  44.186  1.00  0.00     0.016 A 
HETATM   28  C   UNL     1      58.107  85.850  44.900  1.00  0.00     0.003 A 
HETATM   29  C   UNL     1      59.334  85.578  44.294  1.00  0.00     0.029 A 
BRANCH  26  30
HETATM   30  C   UNL     1      55.695  85.045  42.101  1.00  0.00     0.417 C 
HETATM   31  F   UNL     1      54.900  86.155  42.082  1.00  0.00    -0.166 F 
HETATM   32  F   UNL     1      55.891  84.725  40.788  1.00  0.00    -0.166 F 
HETATM   33  F   UNL     1      54.917  84.045  42.609  1.00  0.00    -0.166 F 
ENDBRANCH  26  30
ENDBRANCH  22  24
ENDBRANCH   5  22
TORSDOF 7
ENDMDL
MODEL 6
REMARK VINA RESULT:      -7.0      6.923     10.134
REMARK  7 active torsions:
REMARK  status: ('A' for Active; 'I' for Inactive)
REMARK       I    between atoms: N_5  and  C_13 
REMARK    1  A    between atoms: N_5  and  C_14 
REMARK    2  A    between atoms: N_6  and  C_17 
REMARK    3  A    between atoms: N_6  and  C_20 
REMARK    4  A    between atoms: N_7  and  C_21 
REMARK    5  A    between atoms: N_7  and  C_23 
REMARK    6  A    between atoms: C_10  and  C_13 
REMARK    7  A    between atoms: C_24  and  C_29 
ROOT
HETATM    1  N   UNL     1      55.786  84.316  41.579  1.00  0.00    -0.224 NA
HETATM    2  N   UNL     1      55.877  84.848  43.927  1.00  0.00    -0.224 NA
HETATM    3  C   UNL     1      57.050  84.773  41.464  1.00  0.00     0.133 A 
HETATM    4  C   UNL     1      57.783  85.275  42.521  1.00  0.00     0.100 A 
HETATM    5  C   UNL     1      57.143  85.291  43.747  1.00  0.00     0.133 A 
HETATM    6  C   UNL     1      55.268  84.383  42.820  1.00  0.00     0.237 A 
ENDROOT
BRANCH   3   7
HETATM    7  N   UNL     1      57.674  84.742  40.193  1.00  0.00    -0.341 N 
HETATM    8  H   UNL     1      58.628  84.393  40.219  1.00  0.00     0.167 HD
BRANCH   7   9
HETATM    9  C   UNL     1      57.227  85.094  38.909  1.00  0.00     0.035 A 
HETATM   10  C   UNL     1      58.129  85.163  37.844  1.00  0.00     0.059 A 
HETATM   11  C   UNL     1      57.684  85.510  36.569  1.00  0.00     0.036 A 
HETATM   12  C   UNL     1      56.335  85.791  36.353  1.00  0.00     0.029 A 
HETATM   13  C   UNL     1      55.431  85.723  37.412  1.00  0.00     0.004 A 
HETATM   14  C   UNL     1      55.876  85.376  38.688  1.00  0.00     0.029 A 
BRANCH  11  15
HETATM   15  N   UNL     1      58.589  85.577  35.508  1.00  0.00    -0.327 N 
HETATM   16  C   UNL     1      59.452  86.624  35.177  1.00  0.00     0.226 C 
HETATM   17  O   UNL     1      59.589  87.695  35.754  1.00  0.00    -0.273 OA
HETATM   18  H   UNL     1      58.609  84.759  34.903  1.00  0.00     0.169 HD
BRANCH  16  19
HETATM   19  C   UNL     1      60.291  86.357  33.965  1.00  0.00     0.078 A 
HETATM   20  C   UNL     1      59.605  86.196  32.655  1.00  0.00     0.015 A 
HETATM   21  C   UNL     1      60.215  85.008  33.340  1.00  0.00     0.015 A 
ENDBRANCH  16  19
ENDBRANCH  11  15
ENDBRANCH   7   9
ENDBRANCH   3   7
BRANCH   5  22
HETATM   22  N   UNL     1      57.856  85.795  44.851  1.00  0.00    -0.341 N 
HETATM   23  H   UNL     1      58.639  85.203  45.120  1.00  0.00     0.167 HD
BRANCH  22  24
HETATM   24  C   UNL     1      57.536  86.748  45.841  1.00  0.00     0.034 A 
HETATM   25  C   UNL     1      57.308  88.077  45.484  1.00  0.00     0.045 A 
HETATM   26  C   UNL     1      56.989  89.017  46.463  1.00  0.00     0.050 A 
HETATM   27  C   UNL     1      56.900  88.629  47.799  1.00  0.00     0.016 A 
HETATM   28  C   UNL     1      57.128  87.301  48.158  1.00  0.00     0.003 A 
HETATM   29  C   UNL     1      57.446  86.360  47.178  1.00  0.00     0.029 A 
BRANCH  26  30
HETATM   30  C   UNL     1      56.745  90.439  46.081  1.00  0.00     0.417 C 
HETATM   31  F   UNL     1      56.816  91.308  47.131  1.00  0.00    -0.166 F 
HETATM   32  F   UNL     1      57.634  90.918  45.161  1.00  0.00    -0.166 F 
HETATM   33  F   UNL     1      55.510  90.630  45.531  1.00  0.00    -0.166 F 
ENDBRANCH  26  30
ENDBRANCH  22  24
ENDBRANCH   5  22
TORSDOF 7
ENDMDL
MODEL 7
REMARK VINA RESULT:      -7.0      4.376      7.262
REMARK  7 active torsions:
REMARK  status: ('A' for Active; 'I' for Inactive)
REMARK       I    between atoms: N_5  and  C_13 
REMARK    1  A    between atoms: N_5  and  C_14 
REMARK    2  A    between atoms: N_6  and  C_17 
REMARK    3  A    between atoms: N_6  and  C_20 
REMARK    4  A    between atoms: N_7  and  C_21 
REMARK    5  A    between atoms: N_7  and  C_23 
REMARK    6  A    between atoms: C_10  and  C_13 
REMARK    7  A    between atoms: C_24  and  C_29 
ROOT
HETATM    1  N   UNL     1      55.860  86.812  36.135  1.00  0.00    -0.224 NA
HETATM    2  N   UNL     1      54.858  85.339  37.758  1.00  0.00    -0.224 NA
HETATM    3  C   UNL     1      57.014  86.734  36.832  1.00  0.00     0.133 A 
HETATM    4  C   UNL     1      57.165  85.989  37.984  1.00  0.00     0.100 A 
HETATM    5  C   UNL     1      56.043  85.302  38.411  1.00  0.00     0.133 A 
HETATM    6  C   UNL     1      54.838  86.101  36.648  1.00  0.00     0.237 A 
ENDROOT
BRANCH   3   7
HETATM    7  N   UNL     1      58.142  87.452  36.366  1.00  0.00    -0.341 N 
HETATM    8  H   UNL     1      58.146  88.428  36.648  1.00  0.00     0.167 HD
BRANCH   7   9
HETATM    9  C   UNL     1      59.256  87.073  35.598  1.00  0.00     0.035 A 
HETATM   10  C   UNL     1      59.149  86.037  34.666  1.00  0.00     0.059 A 
HETATM   11  C   UNL     1      60.255  85.663  33.903  1.00  0.00     0.036 A 
HETATM   12  C   UNL     1      61.473  86.323  34.069  1.00  0.00     0.029 A 
HETATM   13  C   UNL     1      61.584  87.358  34.997  1.00  0.00     0.004 A 
HETATM   14  C   UNL     1      60.478  87.731  35.761  1.00  0.00     0.029 A 
BRANCH  11  15
HETATM   15  N   UNL     1      60.143  84.628  32.973  1.00  0.00    -0.327 N 
HETATM   16  C   UNL     1      59.777  83.300  33.202  1.00  0.00     0.226 C 
HETATM   17  O   UNL     1      59.478  82.777  34.267  1.00  0.00    -0.273 OA
HETATM   18  H   UNL     1      60.364  84.883  32.013  1.00  0.00     0.169 HD
BRANCH  16  19
HETATM   19  C   UNL     1      59.760  82.455  31.966  1.00  0.00     0.078 A 
HETATM   20  C   UNL     1      58.481  82.326  31.217  1.00  0.00     0.015 A 
HETATM   21  C   UNL     1      59.017  81.167  32.004  1.00  0.00     0.015 A 
ENDBRANCH  16  19
ENDBRANCH  11  15
ENDBRANCH   7   9
ENDBRANCH   3   7
BRANCH   5  22
HETATM   22  N   UNL     1      56.155  84.529  39.583  1.00  0.00    -0.341 N 
HETATM   23  H   UNL     1      55.827  83.574  39.459  1.00  0.00     0.167 HD
BRANCH  22  24
HETATM   24  C   UNL     1      56.318  84.873  40.941  1.00  0.00     0.034 A 
HETATM   25  C   UNL     1      57.582  84.819  41.529  1.00  0.00     0.045 A 
HETATM   26  C   UNL     1      57.742  85.160  42.871  1.00  0.00     0.050 A 
HETATM   27  C   UNL     1      56.638  85.556  43.627  1.00  0.00     0.016 A 
HETATM   28  C   UNL     1      55.374  85.610  43.040  1.00  0.00     0.003 A 
HETATM   29  C   UNL     1      55.214  85.268  41.697  1.00  0.00     0.029 A 
BRANCH  26  30
HETATM   30  C   UNL     1      59.094  85.102  43.500  1.00  0.00     0.417 C 
HETATM   31  F   UNL     1      59.633  86.331  43.754  1.00  0.00    -0.166 F 
HETATM   32  F   UNL     1      59.110  84.451  44.701  1.00  0.00    -0.166 F 
HETATM   33  F   UNL     1      60.009  84.455  42.720  1.00  0.00    -0.166 F 
ENDBRANCH  26  30
ENDBRANCH  22  24
ENDBRANCH   5  22
TORSDOF 7
ENDMDL
MODEL 8
REMARK VINA RESULT:      -6.8      5.910      9.668
REMARK  7 active torsions:
REMARK  status: ('A' for Active; 'I' for Inactive)
REMARK       I    between atoms: N_5  and  C_13 
REMARK    1  A    between atoms: N_5  and  C_14 
REMARK    2  A    between atoms: N_6  and  C_17 
REMARK    3  A    between atoms: N_6  and  C_20 
REMARK    4  A    between atoms: N_7  and  C_21 
REMARK    5  A    between atoms: N_7  and  C_23 
REMARK    6  A    between atoms: C_10  and  C_13 
REMARK    7  A    between atoms: C_24  and  C_29 
ROOT
HETATM    1  N   UNL     1      55.266  85.953  38.317  1.00  0.00    -0.224 NA
HETATM    2  N   UNL     1      56.655  86.635  36.469  1.00  0.00    -0.224 NA
HETATM    3  C   UNL     1      56.306  85.230  38.783  1.00  0.00     0.133 A 
HETATM    4  C   UNL     1      57.534  85.162  38.157  1.00  0.00     0.100 A 
HETATM    5  C   UNL     1      57.659  85.891  36.988  1.00  0.00     0.133 A 
HETATM    6  C   UNL     1      55.506  86.620  37.172  1.00  0.00     0.237 A 
ENDROOT
BRANCH   3   7
HETATM    7  N   UNL     1      56.142  84.495  39.982  1.00  0.00    -0.341 N 
HETATM    8  H   UNL     1      55.782  83.556  39.835  1.00  0.00     0.167 HD
BRANCH   7   9
HETATM    9  C   UNL     1      56.389  84.810  41.329  1.00  0.00     0.035 A 
HETATM   10  C   UNL     1      57.700  84.878  41.807  1.00  0.00     0.059 A 
HETATM   11  C   UNL     1      57.943  85.192  43.144  1.00  0.00     0.036 A 
HETATM   12  C   UNL     1      56.877  85.441  44.008  1.00  0.00     0.029 A 
HETATM   13  C   UNL     1      55.566  85.376  43.535  1.00  0.00     0.004 A 
HETATM   14  C   UNL     1      55.323  85.060  42.198  1.00  0.00     0.029 A 
BRANCH  11  15
HETATM   15  N   UNL     1      59.255  85.259  43.618  1.00  0.00    -0.327 N 
HETATM   16  C   UNL     1      60.016  86.399  43.887  1.00  0.00     0.226 C 
HETATM   17  O   UNL     1      59.684  87.570  43.762  1.00  0.00    -0.273 OA
HETATM   18  H   UNL     1      59.704  84.360  43.778  1.00  0.00     0.169 HD
BRANCH  16  19
HETATM   19  C   UNL     1      61.395  86.101  44.388  1.00  0.00     0.078 A 
HETATM   20  C   UNL     1      61.851  84.685  44.398  1.00  0.00     0.015 A 
HETATM   21  C   UNL     1      61.534  85.386  45.686  1.00  0.00     0.015 A 
ENDBRANCH  16  19
ENDBRANCH  11  15
ENDBRANCH   7   9
ENDBRANCH   3   7
BRANCH   5  22
HETATM   22  N   UNL     1      58.897  85.848  36.319  1.00  0.00    -0.341 N 
HETATM   23  H   UNL     1      59.584  86.484  36.717  1.00  0.00     0.167 HD
BRANCH  22  24
HETATM   24  C   UNL     1      59.280  85.366  35.050  1.00  0.00     0.034 A 
HETATM   25  C   UNL     1      59.326  83.993  34.809  1.00  0.00     0.045 A 
HETATM   26  C   UNL     1      59.703  83.517  33.553  1.00  0.00     0.050 A 
HETATM   27  C   UNL     1      60.035  84.415  32.538  1.00  0.00     0.016 A 
HETATM   28  C   UNL     1      59.990  85.788  32.779  1.00  0.00     0.003 A 
HETATM   29  C   UNL     1      59.612  86.264  34.035  1.00  0.00     0.029 A 
BRANCH  26  30
HETATM   30  C   UNL     1      59.752  82.049  33.295  1.00  0.00     0.417 C 
HETATM   31  F   UNL     1      60.114  81.313  34.387  1.00  0.00    -0.166 F 
HETATM   32  F   UNL     1      58.558  81.525  32.892  1.00  0.00    -0.166 F 
HETATM   33  F   UNL     1      60.646  81.717  32.317  1.00  0.00    -0.166 F 
ENDBRANCH  26  30
ENDBRANCH  22  24
ENDBRANCH   5  22
TORSDOF 7
ENDMDL
MODEL 9
REMARK VINA RESULT:      -6.8      8.633     11.635
REMARK  7 active torsions:
REMARK  status: ('A' for Active; 'I' for Inactive)
REMARK       I    between atoms: N_5  and  C_13 
REMARK    1  A    between atoms: N_5  and  C_14 
REMARK    2  A    between atoms: N_6  and  C_17 
REMARK    3  A    between atoms: N_6  and  C_20 
REMARK    4  A    between atoms: N_7  and  C_21 
REMARK    5  A    between atoms: N_7  and  C_23 
REMARK    6  A    between atoms: C_10  and  C_13 
REMARK    7  A    between atoms: C_24  and  C_29 
ROOT
HETATM    1  N   UNL     1      57.098  85.991  46.939  1.00  0.00    -0.224 NA
HETATM    2  N   UNL     1      57.261  88.204  47.880  1.00  0.00    -0.224 NA
HETATM    3  C   UNL     1      57.773  86.440  45.861  1.00  0.00     0.133 A 
HETATM    4  C   UNL     1      58.219  87.739  45.721  1.00  0.00     0.100 A 
HETATM    5  C   UNL     1      57.933  88.592  46.771  1.00  0.00     0.133 A 
HETATM    6  C   UNL     1      56.879  86.913  47.896  1.00  0.00     0.237 A 
ENDROOT
BRANCH   3   7
HETATM    7  N   UNL     1      58.047  85.538  44.803  1.00  0.00    -0.341 N 
HETATM    8  H   UNL     1      58.929  85.045  44.911  1.00  0.00     0.167 HD
BRANCH   7   9
HETATM    9  C   UNL     1      57.334  85.192  43.644  1.00  0.00     0.035 A 
HETATM   10  C   UNL     1      57.981  85.150  42.406  1.00  0.00     0.059 A 
HETATM   11  C   UNL     1      57.272  84.805  41.255  1.00  0.00     0.036 A 
HETATM   12  C   UNL     1      55.913  84.500  41.338  1.00  0.00     0.029 A 
HETATM   13  C   UNL     1      55.263  84.541  42.571  1.00  0.00     0.004 A 
HETATM   14  C   UNL     1      55.972  84.887  43.722  1.00  0.00     0.029 A 
BRANCH  11  15
HETATM   15  N   UNL     1      57.922  84.763  40.021  1.00  0.00    -0.327 N 
HETATM   16  C   UNL     1      57.436  85.171  38.777  1.00  0.00     0.226 C 
HETATM   17  O   UNL     1      56.339  85.649  38.521  1.00  0.00    -0.273 OA
HETATM   18  H   UNL     1      58.865  84.380  40.040  1.00  0.00     0.169 HD
BRANCH  16  19
HETATM   19  C   UNL     1      58.409  84.982  37.655  1.00  0.00     0.078 A 
HETATM   20  C   UNL     1      58.558  86.078  36.659  1.00  0.00     0.015 A 
HETATM   21  C   UNL     1      57.871  84.799  36.279  1.00  0.00     0.015 A 
ENDBRANCH  16  19
ENDBRANCH  11  15
ENDBRANCH   7   9
ENDBRANCH   3   7
BRANCH   5  22
HETATM   22  N   UNL     1      58.372  89.927  46.668  1.00  0.00    -0.341 N 
HETATM   23  H   UNL     1      58.716  90.298  47.551  1.00  0.00     0.167 HD
BRANCH  22  24
HETATM   24  C   UNL     1      58.142  90.936  45.710  1.00  0.00     0.034 A 
HETATM   25  C   UNL     1      57.000  91.732  45.795  1.00  0.00     0.045 A 
HETATM   26  C   UNL     1      56.775  92.731  44.848  1.00  0.00     0.050 A 
HETATM   27  C   UNL     1      57.691  92.933  43.816  1.00  0.00     0.016 A 
HETATM   28  C   UNL     1      58.833  92.137  43.730  1.00  0.00     0.003 A 
HETATM   29  C   UNL     1      59.058  91.138  44.678  1.00  0.00     0.029 A 
BRANCH  26  30
HETATM   30  C   UNL     1      55.554  93.583  44.938  1.00  0.00     0.417 C 
HETATM   31  F   UNL     1      55.538  94.405  46.028  1.00  0.00    -0.166 F 
HETATM   32  F   UNL     1      55.385  94.411  43.865  1.00  0.00    -0.166 F 
HETATM   33  F   UNL     1      54.405  92.849  45.017  1.00  0.00    -0.166 F 
ENDBRANCH  26  30
ENDBRANCH  22  24
ENDBRANCH   5  22
TORSDOF 7
ENDMDL
