MODEL 1
REMARK VINA RESULT:      -7.5      0.000      0.000
REMARK  7 active torsions:
REMARK  status: ('A' for Active; 'I' for Inactive)
REMARK       I    between atoms: N_5  and  C_13 
REMARK    1  A    between atoms: N_5  and  C_14 
REMARK    2  A    between atoms: N_6  and  C_17 
REMARK    3  A    between atoms: N_6  and  C_20 
REMARK    4  A    between atoms: N_7  and  C_21 
REMARK    5  A    between atoms: N_7  and  C_23 
REMARK    6  A    between atoms: C_10  and  C_13 
REMARK    7  A    between atoms: C_24  and  C_29 
ROOT
HETATM    1  N   UNL     1      60.798  82.558  32.356  1.00  0.00    -0.224 NA
HETATM    2  N   UNL     1      59.679  84.592  33.001  1.00  0.00    -0.224 NA
HETATM    3  C   UNL     1      61.065  82.335  33.659  1.00  0.00     0.133 A 
HETATM    4  C   UNL     1      60.676  83.182  34.677  1.00  0.00     0.100 A 
HETATM    5  C   UNL     1      59.977  84.312  34.291  1.00  0.00     0.133 A 
HETATM    6  C   UNL     1      60.113  83.689  32.101  1.00  0.00     0.237 A 
ENDROOT
BRANCH   3   7
HETATM    7  N   UNL     1      61.783  81.169  34.019  1.00  0.00    -0.341 N 
HETATM    8  H   UNL     1      62.773  81.218  33.795  1.00  0.00     0.167 HD
BRANCH   7   9
HETATM    9  C   UNL     1      61.393  79.966  34.631  1.00  0.00     0.035 A 
HETATM   10  C   UNL     1      60.731  78.982  33.891  1.00  0.00     0.059 A 
HETATM   11  C   UNL     1      60.346  77.788  34.499  1.00  0.00     0.036 A 
HETATM   12  C   UNL     1      60.621  77.572  35.850  1.00  0.00     0.029 A 
HETATM   13  C   UNL     1      61.281  78.550  36.592  1.00  0.00     0.004 A 
HETATM   14  C   UNL     1      61.666  79.745  35.984  1.00  0.00     0.029 A 
BRANCH  11  15
HETATM   15  N   UNL     1      59.686  76.808  33.756  1.00  0.00    -0.327 N 
HETATM   16  C   UNL     1      58.310  76.629  33.596  1.00  0.00     0.226 C 
HETATM   17  O   UNL     1      57.405  77.300  34.076  1.00  0.00    -0.273 OA
HETATM   18  H   UNL     1      60.292  76.142  33.281  1.00  0.00     0.169 HD
BRANCH  16  19
HETATM   19  C   UNL     1      57.947  75.468  32.724  1.00  0.00     0.078 A 
HETATM   20  C   UNL     1      59.034  74.786  31.971  1.00  0.00     0.015 A 
HETATM   21  C   UNL     1      58.035  75.641  31.248  1.00  0.00     0.015 A 
ENDBRANCH  16  19
ENDBRANCH  11  15
ENDBRANCH   7   9
ENDBRANCH   3   7
BRANCH   5  22
HETATM   22  N   UNL     1      59.562  85.202  35.300  1.00  0.00    -0.341 N 
HETATM   23  H   UNL     1      60.103  85.108  36.156  1.00  0.00     0.167 HD
BRANCH  22  24
HETATM   24  C   UNL     1      58.381  85.950  35.486  1.00  0.00     0.034 A 
HETATM   25  C   UNL     1      57.420  85.521  36.402  1.00  0.00     0.045 A 
HETATM   26  C   UNL     1      56.253  86.262  36.587  1.00  0.00     0.050 A 
HETATM   27  C   UNL     1      56.047  87.432  35.856  1.00  0.00     0.016 A 
HETATM   28  C   UNL     1      57.007  87.861  34.940  1.00  0.00     0.003 A 
HETATM   29  C   UNL     1      58.174  87.120  34.755  1.00  0.00     0.029 A 
BRANCH  26  30
HETATM   30  C   UNL     1      55.225  85.804  37.566  1.00  0.00     0.417 C 
HETATM   31  F   UNL     1      55.077  86.639  38.636  1.00  0.00    -0.166 F 
HETATM   32  F   UNL     1      53.975  85.686  37.030  1.00  0.00    -0.166 F 
HETATM   33  F   UNL     1      55.514  84.578  38.096  1.00  0.00    -0.166 F 
ENDBRANCH  26  30
ENDBRANCH  22  24
ENDBRANCH   5  22
TORSDOF 7
ENDMDL
MODEL 2
REMARK VINA RESULT:      -7.4      4.261      6.611
REMARK  7 active torsions:
REMARK  status: ('A' for Active; 'I' for Inactive)
REMARK       I    between atoms: N_5  and  C_13 
REMARK    1  A    between atoms: N_5  and  C_14 
REMARK    2  A    between atoms: N_6  and  C_17 
REMARK    3  A    between atoms: N_6  and  C_20 
REMARK    4  A    between atoms: N_7  and  C_21 
REMARK    5  A    between atoms: N_7  and  C_23 
REMARK    6  A    between atoms: C_10  and  C_13 
REMARK    7  A    between atoms: C_24  and  C_29 
ROOT
HETATM    1  N   UNL     1      56.731  86.523  36.493  1.00  0.00    -0.224 NA
HETATM    2  N   UNL     1      55.378  85.881  38.381  1.00  0.00    -0.224 NA
HETATM    3  C   UNL     1      57.733  85.780  37.005  1.00  0.00     0.133 A 
HETATM    4  C   UNL     1      57.635  85.068  38.184  1.00  0.00     0.100 A 
HETATM    5  C   UNL     1      56.422  85.153  38.842  1.00  0.00     0.133 A 
HETATM    6  C   UNL     1      55.598  86.530  37.222  1.00  0.00     0.237 A 
ENDROOT
BRANCH   3   7
HETATM    7  N   UNL     1      58.962  85.716  36.304  1.00  0.00    -0.341 N 
HETATM    8  H   UNL     1      59.748  86.088  36.831  1.00  0.00     0.167 HD
BRANCH   7   9
HETATM    9  C   UNL     1      59.303  85.233  35.030  1.00  0.00     0.035 A 
HETATM   10  C   UNL     1      59.324  83.858  34.781  1.00  0.00     0.059 A 
HETATM   11  C   UNL     1      59.661  83.379  33.515  1.00  0.00     0.036 A 
HETATM   12  C   UNL     1      59.979  84.274  32.493  1.00  0.00     0.029 A 
HETATM   13  C   UNL     1      59.960  85.647  32.737  1.00  0.00     0.004 A 
HETATM   14  C   UNL     1      59.623  86.125  34.003  1.00  0.00     0.029 A 
BRANCH  11  15
HETATM   15  N   UNL     1      59.679  82.005  33.271  1.00  0.00    -0.327 N 
HETATM   16  C   UNL     1      58.942  81.289  32.325  1.00  0.00     0.226 C 
HETATM   17  O   UNL     1      58.131  81.725  31.518  1.00  0.00    -0.273 OA
HETATM   18  H   UNL     1      60.307  81.467  33.865  1.00  0.00     0.169 HD
BRANCH  16  19
HETATM   19  C   UNL     1      59.212  79.817  32.336  1.00  0.00     0.078 A 
HETATM   20  C   UNL     1      58.327  78.943  33.152  1.00  0.00     0.015 A 
HETATM   21  C   UNL     1      59.739  79.206  33.587  1.00  0.00     0.015 A 
ENDBRANCH  16  19
ENDBRANCH  11  15
ENDBRANCH   7   9
ENDBRANCH   3   7
BRANCH   5  22
HETATM   22  N   UNL     1      56.281  84.441  40.049  1.00  0.00    -0.341 N 
HETATM   23  H   UNL     1      55.751  83.579  39.939  1.00  0.00     0.167 HD
BRANCH  22  24
HETATM   24  C   UNL     1      56.431  84.814  41.401  1.00  0.00     0.034 A 
HETATM   25  C   UNL     1      57.705  84.928  41.957  1.00  0.00     0.045 A 
HETATM   26  C   UNL     1      57.852  85.299  43.293  1.00  0.00     0.050 A 
HETATM   27  C   UNL     1      56.726  85.554  44.074  1.00  0.00     0.016 A 
HETATM   28  C   UNL     1      55.451  85.439  43.519  1.00  0.00     0.003 A 
HETATM   29  C   UNL     1      55.304  85.069  42.182  1.00  0.00     0.029 A 
BRANCH  26  30
HETATM   30  C   UNL     1      59.215  85.421  43.887  1.00  0.00     0.417 C 
HETATM   31  F   UNL     1      59.646  84.285  44.510  1.00  0.00    -0.166 F 
HETATM   32  F   UNL     1      60.186  85.716  42.973  1.00  0.00    -0.166 F 
HETATM   33  F   UNL     1      59.290  86.406  44.831  1.00  0.00    -0.166 F 
ENDBRANCH  26  30
ENDBRANCH  22  24
ENDBRANCH   5  22
TORSDOF 7
ENDMDL
MODEL 3
REMARK VINA RESULT:      -7.3      7.949     12.662
REMARK  7 active torsions:
REMARK  status: ('A' for Active; 'I' for Inactive)
REMARK       I    between atoms: N_5  and  C_13 
REMARK    1  A    between atoms: N_5  and  C_14 
REMARK    2  A    between atoms: N_6  and  C_17 
REMARK    3  A    between atoms: N_6  and  C_20 
REMARK    4  A    between atoms: N_7  and  C_21 
REMARK    5  A    between atoms: N_7  and  C_23 
REMARK    6  A    between atoms: C_10  and  C_13 
REMARK    7  A    between atoms: C_24  and  C_29 
ROOT
HETATM    1  N   UNL     1      55.475  85.652  43.769  1.00  0.00    -0.224 NA
HETATM    2  N   UNL     1      55.656  85.066  41.439  1.00  0.00    -0.224 NA
HETATM    3  C   UNL     1      56.807  85.472  43.880  1.00  0.00     0.133 A 
HETATM    4  C   UNL     1      57.620  85.096  42.829  1.00  0.00     0.100 A 
HETATM    5  C   UNL     1      56.987  84.902  41.614  1.00  0.00     0.133 A 
HETATM    6  C   UNL     1      54.972  85.434  42.539  1.00  0.00     0.237 A 
ENDROOT
BRANCH   3   7
HETATM    7  N   UNL     1      57.422  85.679  45.139  1.00  0.00    -0.341 N 
HETATM    8  H   UNL     1      58.060  84.934  45.405  1.00  0.00     0.167 HD
BRANCH   7   9
HETATM    9  C   UNL     1      57.324  86.715  46.083  1.00  0.00     0.035 A 
HETATM   10  C   UNL     1      57.435  88.048  45.679  1.00  0.00     0.059 A 
HETATM   11  C   UNL     1      57.336  89.075  46.617  1.00  0.00     0.036 A 
HETATM   12  C   UNL     1      57.127  88.774  47.963  1.00  0.00     0.029 A 
HETATM   13  C   UNL     1      57.016  87.445  48.371  1.00  0.00     0.004 A 
HETATM   14  C   UNL     1      57.115  86.417  47.432  1.00  0.00     0.029 A 
BRANCH  11  15
HETATM   15  N   UNL     1      57.446  90.406  46.209  1.00  0.00    -0.327 N 
HETATM   16  C   UNL     1      56.463  91.215  45.636  1.00  0.00     0.226 C 
HETATM   17  O   UNL     1      55.304  90.917  45.376  1.00  0.00    -0.273 OA
HETATM   18  H   UNL     1      58.363  90.827  46.346  1.00  0.00     0.169 HD
BRANCH  16  19
HETATM   19  C   UNL     1      56.928  92.602  45.320  1.00  0.00     0.078 A 
HETATM   20  C   UNL     1      56.152  93.399  44.332  1.00  0.00     0.015 A 
HETATM   21  C   UNL     1      57.505  92.862  43.973  1.00  0.00     0.015 A 
ENDBRANCH  16  19
ENDBRANCH  11  15
ENDBRANCH   7   9
ENDBRANCH   3   7
BRANCH   5  22
HETATM   22  N   UNL     1      57.781  84.517  40.517  1.00  0.00    -0.341 N 
HETATM   23  H   UNL     1      58.679  84.127  40.796  1.00  0.00     0.167 HD
BRANCH  22  24
HETATM   24  C   UNL     1      57.737  84.844  39.146  1.00  0.00     0.034 A 
HETATM   25  C   UNL     1      56.544  85.276  38.568  1.00  0.00     0.045 A 
HETATM   26  C   UNL     1      56.502  85.601  37.213  1.00  0.00     0.050 A 
HETATM   27  C   UNL     1      57.654  85.493  36.434  1.00  0.00     0.016 A 
HETATM   28  C   UNL     1      58.848  85.060  37.011  1.00  0.00     0.003 A 
HETATM   29  C   UNL     1      58.890  84.736  38.367  1.00  0.00     0.029 A 
BRANCH  26  30
HETATM   30  C   UNL     1      55.225  86.063  36.595  1.00  0.00     0.417 C 
HETATM   31  F   UNL     1      54.202  86.201  37.489  1.00  0.00    -0.166 F 
HETATM   32  F   UNL     1      55.325  87.277  35.978  1.00  0.00    -0.166 F 
HETATM   33  F   UNL     1      54.763  85.203  35.640  1.00  0.00    -0.166 F 
ENDBRANCH  26  30
ENDBRANCH  22  24
ENDBRANCH   5  22
TORSDOF 7
ENDMDL
MODEL 4
REMARK VINA RESULT:      -7.2      3.939      8.806
REMARK  7 active torsions:
REMARK  status: ('A' for Active; 'I' for Inactive)
REMARK       I    between atoms: N_5  and  C_13 
REMARK    1  A    between atoms: N_5  and  C_14 
REMARK    2  A    between atoms: N_6  and  C_17 
REMARK    3  A    between atoms: N_6  and  C_20 
REMARK    4  A    between atoms: N_7  and  C_21 
REMARK    5  A    between atoms: N_7  and  C_23 
REMARK    6  A    between atoms: C_10  and  C_13 
REMARK    7  A    between atoms: C_24  and  C_29 
ROOT
HETATM    1  N   UNL     1      59.330  84.042  32.480  1.00  0.00    -0.224 NA
HETATM    2  N   UNL     1      59.929  81.736  32.122  1.00  0.00    -0.224 NA
HETATM    3  C   UNL     1      60.028  84.006  33.634  1.00  0.00     0.133 A 
HETATM    4  C   UNL     1      60.694  82.887  34.092  1.00  0.00     0.100 A 
HETATM    5  C   UNL     1      60.613  81.763  33.290  1.00  0.00     0.133 A 
HETATM    6  C   UNL     1      59.321  82.889  31.785  1.00  0.00     0.237 A 
ENDROOT
BRANCH   3   7
HETATM    7  N   UNL     1      60.090  85.174  34.431  1.00  0.00    -0.341 N 
HETATM    8  H   UNL     1      60.975  85.668  34.358  1.00  0.00     0.167 HD
BRANCH   7   9
HETATM    9  C   UNL     1      59.164  85.783  35.295  1.00  0.00     0.035 A 
HETATM   10  C   UNL     1      58.830  85.177  36.509  1.00  0.00     0.059 A 
HETATM   11  C   UNL     1      57.912  85.783  37.366  1.00  0.00     0.036 A 
HETATM   12  C   UNL     1      57.323  86.998  37.013  1.00  0.00     0.029 A 
HETATM   13  C   UNL     1      57.653  87.606  35.802  1.00  0.00     0.004 A 
HETATM   14  C   UNL     1      58.571  86.999  34.944  1.00  0.00     0.029 A 
BRANCH  11  15
HETATM   15  N   UNL     1      57.582  85.175  38.579  1.00  0.00    -0.327 N 
HETATM   16  C   UNL     1      56.345  85.162  39.227  1.00  0.00     0.226 C 
HETATM   17  O   UNL     1      55.300  85.682  38.860  1.00  0.00    -0.273 OA
HETATM   18  H   UNL     1      58.347  84.689  39.042  1.00  0.00     0.169 HD
BRANCH  16  19
HETATM   19  C   UNL     1      56.348  84.409  40.521  1.00  0.00     0.078 A 
HETATM   20  C   UNL     1      55.693  85.033  41.702  1.00  0.00     0.015 A 
HETATM   21  C   UNL     1      57.188  84.926  41.636  1.00  0.00     0.015 A 
ENDBRANCH  16  19
ENDBRANCH  11  15
ENDBRANCH   7   9
ENDBRANCH   3   7
BRANCH   5  22
HETATM   22  N   UNL     1      61.279  80.601  33.721  1.00  0.00    -0.341 N 
HETATM   23  H   UNL     1      62.223  80.525  33.348  1.00  0.00     0.167 HD
BRANCH  22  24
HETATM   24  C   UNL     1      60.822  79.390  34.283  1.00  0.00     0.034 A 
HETATM   25  C   UNL     1      59.745  78.717  33.708  1.00  0.00     0.045 A 
HETATM   26  C   UNL     1      59.294  77.519  34.262  1.00  0.00     0.050 A 
HETATM   27  C   UNL     1      59.921  76.995  35.393  1.00  0.00     0.016 A 
HETATM   28  C   UNL     1      60.998  77.669  35.969  1.00  0.00     0.003 A 
HETATM   29  C   UNL     1      61.449  78.866  35.414  1.00  0.00     0.029 A 
BRANCH  26  30
HETATM   30  C   UNL     1      58.142  76.798  33.648  1.00  0.00     0.417 C 
HETATM   31  F   UNL     1      58.175  75.447  33.840  1.00  0.00    -0.166 F 
HETATM   32  F   UNL     1      56.928  77.197  34.130  1.00  0.00    -0.166 F 
HETATM   33  F   UNL     1      58.074  76.974  32.295  1.00  0.00    -0.166 F 
ENDBRANCH  26  30
ENDBRANCH  22  24
ENDBRANCH   5  22
TORSDOF 7
ENDMDL
MODEL 5
REMARK VINA RESULT:      -7.2      4.095      6.907
REMARK  7 active torsions:
REMARK  status: ('A' for Active; 'I' for Inactive)
REMARK       I    between atoms: N_5  and  C_13 
REMARK    1  A    between atoms: N_5  and  C_14 
REMARK    2  A    between atoms: N_6  and  C_17 
REMARK    3  A    between atoms: N_6  and  C_20 
REMARK    4  A    between atoms: N_7  and  C_21 
REMARK    5  A    between atoms: N_7  and  C_23 
REMARK    6  A    between atoms: C_10  and  C_13 
REMARK    7  A    between atoms: C_24  and  C_29 
ROOT
HETATM    1  N   UNL     1      55.852  87.045  35.764  1.00  0.00    -0.224 NA
HETATM    2  N   UNL     1      54.830  85.566  37.369  1.00  0.00    -0.224 NA
HETATM    3  C   UNL     1      57.035  86.832  36.377  1.00  0.00     0.133 A 
HETATM    4  C   UNL     1      57.193  86.011  37.474  1.00  0.00     0.100 A 
HETATM    5  C   UNL     1      56.046  85.394  37.939  1.00  0.00     0.133 A 
HETATM    6  C   UNL     1      54.806  86.391  36.305  1.00  0.00     0.237 A 
ENDROOT
BRANCH   3   7
HETATM    7  N   UNL     1      58.190  87.481  35.875  1.00  0.00    -0.341 N 
HETATM    8  H   UNL     1      58.277  88.446  36.182  1.00  0.00     0.167 HD
BRANCH   7   9
HETATM    9  C   UNL     1      59.236  87.047  35.044  1.00  0.00     0.035 A 
HETATM   10  C   UNL     1      59.080  85.903  34.256  1.00  0.00     0.059 A 
HETATM   11  C   UNL     1      60.119  85.473  33.431  1.00  0.00     0.036 A 
HETATM   12  C   UNL     1      61.318  86.186  33.390  1.00  0.00     0.029 A 
HETATM   13  C   UNL     1      61.478  87.328  34.174  1.00  0.00     0.004 A 
HETATM   14  C   UNL     1      60.439  87.757  35.000  1.00  0.00     0.029 A 
BRANCH  11  15
HETATM   15  N   UNL     1      59.959  84.331  32.645  1.00  0.00    -0.327 N 
HETATM   16  C   UNL     1      59.915  82.999  33.061  1.00  0.00     0.226 C 
HETATM   17  O   UNL     1      60.007  82.565  34.202  1.00  0.00    -0.273 OA
HETATM   18  H   UNL     1      59.871  84.502  31.645  1.00  0.00     0.169 HD
BRANCH  16  19
HETATM   19  C   UNL     1      59.730  82.021  31.942  1.00  0.00     0.078 A 
HETATM   20  C   UNL     1      58.555  82.188  31.046  1.00  0.00     0.015 A 
HETATM   21  C   UNL     1      58.600  81.056  32.029  1.00  0.00     0.015 A 
ENDBRANCH  16  19
ENDBRANCH  11  15
ENDBRANCH   7   9
ENDBRANCH   3   7
BRANCH   5  22
HETATM   22  N   UNL     1      56.164  84.547  39.058  1.00  0.00    -0.341 N 
HETATM   23  H   UNL     1      55.418  83.857  39.112  1.00  0.00     0.167 HD
BRANCH  22  24
HETATM   24  C   UNL     1      56.890  84.652  40.262  1.00  0.00     0.034 A 
HETATM   25  C   UNL     1      56.230  84.963  41.451  1.00  0.00     0.045 A 
HETATM   26  C   UNL     1      56.949  85.065  42.641  1.00  0.00     0.050 A 
HETATM   27  C   UNL     1      58.328  84.857  42.644  1.00  0.00     0.016 A 
HETATM   28  C   UNL     1      58.989  84.546  41.455  1.00  0.00     0.003 A 
HETATM   29  C   UNL     1      58.270  84.444  40.264  1.00  0.00     0.029 A 
BRANCH  26  30
HETATM   30  C   UNL     1      56.243  85.398  43.913  1.00  0.00     0.417 C 
HETATM   31  F   UNL     1      56.370  84.439  44.877  1.00  0.00    -0.166 F 
HETATM   32  F   UNL     1      56.685  86.551  44.497  1.00  0.00    -0.166 F 
HETATM   33  F   UNL     1      54.900  85.567  43.739  1.00  0.00    -0.166 F 
ENDBRANCH  26  30
ENDBRANCH  22  24
ENDBRANCH   5  22
TORSDOF 7
ENDMDL
MODEL 6
REMARK VINA RESULT:      -7.0      6.899     10.172
REMARK  7 active torsions:
REMARK  status: ('A' for Active; 'I' for Inactive)
REMARK       I    between atoms: N_5  and  C_13 
REMARK    1  A    between atoms: N_5  and  C_14 
REMARK    2  A    between atoms: N_6  and  C_17 
REMARK    3  A    between atoms: N_6  and  C_20 
REMARK    4  A    between atoms: N_7  and  C_21 
REMARK    5  A    between atoms: N_7  and  C_23 
REMARK    6  A    between atoms: C_10  and  C_13 
REMARK    7  A    between atoms: C_24  and  C_29 
ROOT
HETATM    1  N   UNL     1      55.816  84.385  41.524  1.00  0.00    -0.224 NA
HETATM    2  N   UNL     1      55.883  84.869  43.884  1.00  0.00    -0.224 NA
HETATM    3  C   UNL     1      57.091  84.818  41.437  1.00  0.00     0.133 A 
HETATM    4  C   UNL     1      57.818  85.283  42.514  1.00  0.00     0.100 A 
HETATM    5  C   UNL     1      57.160  85.289  43.731  1.00  0.00     0.133 A 
HETATM    6  C   UNL     1      55.281  84.439  42.759  1.00  0.00     0.237 A 
ENDROOT
BRANCH   3   7
HETATM    7  N   UNL     1      57.733  84.798  40.175  1.00  0.00    -0.341 N 
HETATM    8  H   UNL     1      58.705  84.506  40.220  1.00  0.00     0.167 HD
BRANCH   7   9
HETATM    9  C   UNL     1      57.284  85.097  38.878  1.00  0.00     0.035 A 
HETATM   10  C   UNL     1      58.194  85.187  37.821  1.00  0.00     0.059 A 
HETATM   11  C   UNL     1      57.747  85.483  36.534  1.00  0.00     0.036 A 
HETATM   12  C   UNL     1      56.387  85.689  36.297  1.00  0.00     0.029 A 
HETATM   13  C   UNL     1      55.475  85.600  37.348  1.00  0.00     0.004 A 
HETATM   14  C   UNL     1      55.923  85.305  38.637  1.00  0.00     0.029 A 
BRANCH  11  15
HETATM   15  N   UNL     1      58.659  85.571  35.481  1.00  0.00    -0.327 N 
HETATM   16  C   UNL     1      59.407  86.680  35.081  1.00  0.00     0.226 C 
HETATM   17  O   UNL     1      59.414  87.799  35.576  1.00  0.00    -0.273 OA
HETATM   18  H   UNL     1      58.782  84.717  34.941  1.00  0.00     0.169 HD
BRANCH  16  19
HETATM   19  C   UNL     1      60.294  86.419  33.903  1.00  0.00     0.078 A 
HETATM   20  C   UNL     1      60.273  87.389  32.775  1.00  0.00     0.015 A 
HETATM   21  C   UNL     1      59.658  86.030  32.615  1.00  0.00     0.015 A 
ENDBRANCH  16  19
ENDBRANCH  11  15
ENDBRANCH   7   9
ENDBRANCH   3   7
BRANCH   5  22
HETATM   22  N   UNL     1      57.867  85.756  44.855  1.00  0.00    -0.341 N 
HETATM   23  H   UNL     1      58.619  85.131  45.137  1.00  0.00     0.167 HD
BRANCH  22  24
HETATM   24  C   UNL     1      57.563  86.715  45.844  1.00  0.00     0.034 A 
HETATM   25  C   UNL     1      57.316  88.039  45.481  1.00  0.00     0.045 A 
HETATM   26  C   UNL     1      57.013  88.985  46.459  1.00  0.00     0.050 A 
HETATM   27  C   UNL     1      56.959  88.608  47.801  1.00  0.00     0.016 A 
HETATM   28  C   UNL     1      57.206  87.285  48.165  1.00  0.00     0.003 A 
HETATM   29  C   UNL     1      57.508  86.338  47.186  1.00  0.00     0.029 A 
BRANCH  26  30
HETATM   30  C   UNL     1      56.749  90.401  46.072  1.00  0.00     0.417 C 
HETATM   31  F   UNL     1      55.511  90.599  45.530  1.00  0.00    -0.166 F 
HETATM   32  F   UNL     1      56.825  91.277  47.117  1.00  0.00    -0.166 F 
HETATM   33  F   UNL     1      57.634  90.865  45.141  1.00  0.00    -0.166 F 
ENDBRANCH  26  30
ENDBRANCH  22  24
ENDBRANCH   5  22
TORSDOF 7
ENDMDL
MODEL 7
REMARK VINA RESULT:      -7.0      4.389      9.312
REMARK  7 active torsions:
REMARK  status: ('A' for Active; 'I' for Inactive)
REMARK       I    between atoms: N_5  and  C_13 
REMARK    1  A    between atoms: N_5  and  C_14 
REMARK    2  A    between atoms: N_6  and  C_17 
REMARK    3  A    between atoms: N_6  and  C_20 
REMARK    4  A    between atoms: N_7  and  C_21 
REMARK    5  A    between atoms: N_7  and  C_23 
REMARK    6  A    between atoms: C_10  and  C_13 
REMARK    7  A    between atoms: C_24  and  C_29 
ROOT
HETATM    1  N   UNL     1      59.042  83.110  31.638  1.00  0.00    -0.224 NA
HETATM    2  N   UNL     1      59.283  80.713  31.690  1.00  0.00    -0.224 NA
HETATM    3  C   UNL     1      60.223  83.205  32.283  1.00  0.00     0.133 A 
HETATM    4  C   UNL     1      60.982  82.115  32.659  1.00  0.00     0.100 A 
HETATM    5  C   UNL     1      60.461  80.875  32.336  1.00  0.00     0.133 A 
HETATM    6  C   UNL     1      58.637  81.852  31.377  1.00  0.00     0.237 A 
ENDROOT
BRANCH   3   7
HETATM    7  N   UNL     1      60.726  84.491  32.599  1.00  0.00    -0.341 N 
HETATM    8  H   UNL     1      61.730  84.577  32.465  1.00  0.00     0.167 HD
BRANCH   7   9
HETATM    9  C   UNL     1      60.106  85.666  33.054  1.00  0.00     0.035 A 
HETATM   10  C   UNL     1      59.387  85.664  34.253  1.00  0.00     0.059 A 
HETATM   11  C   UNL     1      58.773  86.831  34.704  1.00  0.00     0.036 A 
HETATM   12  C   UNL     1      58.874  88.007  33.959  1.00  0.00     0.029 A 
HETATM   13  C   UNL     1      59.591  88.014  32.762  1.00  0.00     0.004 A 
HETATM   14  C   UNL     1      60.205  86.845  32.311  1.00  0.00     0.029 A 
BRANCH  11  15
HETATM   15  N   UNL     1      58.056  86.825  35.902  1.00  0.00    -0.327 N 
HETATM   16  C   UNL     1      56.675  86.934  36.080  1.00  0.00     0.226 C 
HETATM   17  O   UNL     1      55.815  87.055  35.218  1.00  0.00    -0.273 OA
HETATM   18  H   UNL     1      58.621  86.736  36.744  1.00  0.00     0.169 HD
BRANCH  16  19
HETATM   19  C   UNL     1      56.245  86.889  37.513  1.00  0.00     0.078 A 
HETATM   20  C   UNL     1      56.334  85.593  38.237  1.00  0.00     0.015 A 
HETATM   21  C   UNL     1      54.996  86.152  37.851  1.00  0.00     0.015 A 
ENDBRANCH  16  19
ENDBRANCH  11  15
ENDBRANCH   7   9
ENDBRANCH   3   7
BRANCH   5  22
HETATM   22  N   UNL     1      61.205  79.737  32.702  1.00  0.00    -0.341 N 
HETATM   23  H   UNL     1      62.024  79.595  32.115  1.00  0.00     0.167 HD
BRANCH  22  24
HETATM   24  C   UNL     1      60.892  78.600  33.476  1.00  0.00     0.034 A 
HETATM   25  C   UNL     1      60.161  77.552  32.916  1.00  0.00     0.045 A 
HETATM   26  C   UNL     1      59.854  76.429  33.683  1.00  0.00     0.050 A 
HETATM   27  C   UNL     1      60.278  76.352  35.009  1.00  0.00     0.016 A 
HETATM   28  C   UNL     1      61.008  77.400  35.570  1.00  0.00     0.003 A 
HETATM   29  C   UNL     1      61.315  78.524  34.803  1.00  0.00     0.029 A 
BRANCH  26  30
HETATM   30  C   UNL     1      59.073  75.308  33.084  1.00  0.00     0.417 C 
HETATM   31  F   UNL     1      58.750  74.327  33.977  1.00  0.00    -0.166 F 
HETATM   32  F   UNL     1      57.883  75.701  32.541  1.00  0.00    -0.166 F 
HETATM   33  F   UNL     1      59.745  74.678  32.076  1.00  0.00    -0.166 F 
ENDBRANCH  26  30
ENDBRANCH  22  24
ENDBRANCH   5  22
TORSDOF 7
ENDMDL
MODEL 8
REMARK VINA RESULT:      -6.8      1.746      2.400
REMARK  7 active torsions:
REMARK  status: ('A' for Active; 'I' for Inactive)
REMARK       I    between atoms: N_5  and  C_13 
REMARK    1  A    between atoms: N_5  and  C_14 
REMARK    2  A    between atoms: N_6  and  C_17 
REMARK    3  A    between atoms: N_6  and  C_20 
REMARK    4  A    between atoms: N_7  and  C_21 
REMARK    5  A    between atoms: N_7  and  C_23 
REMARK    6  A    between atoms: C_10  and  C_13 
REMARK    7  A    between atoms: C_24  and  C_29 
ROOT
HETATM    1  N   UNL     1      60.005  84.972  32.290  1.00  0.00    -0.224 NA
HETATM    2  N   UNL     1      59.368  86.511  34.032  1.00  0.00    -0.224 NA
HETATM    3  C   UNL     1      59.958  83.979  33.202  1.00  0.00     0.133 A 
HETATM    4  C   UNL     1      59.629  84.170  34.529  1.00  0.00     0.100 A 
HETATM    5  C   UNL     1      59.339  85.472  34.898  1.00  0.00     0.133 A 
HETATM    6  C   UNL     1      59.704  86.195  32.767  1.00  0.00     0.237 A 
ENDROOT
BRANCH   3   7
HETATM    7  N   UNL     1      60.262  82.659  32.789  1.00  0.00    -0.341 N 
HETATM    8  H   UNL     1      60.249  82.537  31.780  1.00  0.00     0.167 HD
BRANCH   7   9
HETATM    9  C   UNL     1      60.582  81.492  33.503  1.00  0.00     0.035 A 
HETATM   10  C   UNL     1      59.777  80.355  33.391  1.00  0.00     0.059 A 
HETATM   11  C   UNL     1      60.096  79.197  34.099  1.00  0.00     0.036 A 
HETATM   12  C   UNL     1      61.222  79.170  34.922  1.00  0.00     0.029 A 
HETATM   13  C   UNL     1      62.029  80.302  35.037  1.00  0.00     0.004 A 
HETATM   14  C   UNL     1      61.708  81.461  34.329  1.00  0.00     0.029 A 
BRANCH  11  15
HETATM   15  N   UNL     1      59.290  78.064  33.984  1.00  0.00    -0.327 N 
HETATM   16  C   UNL     1      59.001  77.325  32.834  1.00  0.00     0.226 C 
HETATM   17  O   UNL     1      59.399  77.526  31.694  1.00  0.00    -0.273 OA
HETATM   18  H   UNL     1      58.859  77.748  34.850  1.00  0.00     0.169 HD
BRANCH  16  19
HETATM   19  C   UNL     1      58.093  76.160  33.075  1.00  0.00     0.078 A 
HETATM   20  C   UNL     1      58.706  74.845  33.407  1.00  0.00     0.015 A 
HETATM   21  C   UNL     1      58.070  75.065  32.066  1.00  0.00     0.015 A 
ENDBRANCH  16  19
ENDBRANCH  11  15
ENDBRANCH   7   9
ENDBRANCH   3   7
BRANCH   5  22
HETATM   22  N   UNL     1      58.998  85.710  36.243  1.00  0.00    -0.341 N 
HETATM   23  H   UNL     1      59.806  85.710  36.862  1.00  0.00     0.167 HD
BRANCH  22  24
HETATM   24  C   UNL     1      57.779  85.628  36.948  1.00  0.00     0.034 A 
HETATM   25  C   UNL     1      57.770  85.228  38.285  1.00  0.00     0.045 A 
HETATM   26  C   UNL     1      56.565  85.149  38.981  1.00  0.00     0.050 A 
HETATM   27  C   UNL     1      55.367  85.470  38.341  1.00  0.00     0.016 A 
HETATM   28  C   UNL     1      55.375  85.869  37.005  1.00  0.00     0.003 A 
HETATM   29  C   UNL     1      56.582  85.948  36.308  1.00  0.00     0.029 A 
BRANCH  26  30
HETATM   30  C   UNL     1      56.555  84.722  40.410  1.00  0.00     0.417 C 
HETATM   31  F   UNL     1      57.782  84.774  41.006  1.00  0.00    -0.166 F 
HETATM   32  F   UNL     1      55.742  85.481  41.202  1.00  0.00    -0.166 F 
HETATM   33  F   UNL     1      56.124  83.436  40.571  1.00  0.00    -0.166 F 
ENDBRANCH  26  30
ENDBRANCH  22  24
ENDBRANCH   5  22
TORSDOF 7
ENDMDL
MODEL 9
REMARK VINA RESULT:      -6.6     11.214     16.467
REMARK  7 active torsions:
REMARK  status: ('A' for Active; 'I' for Inactive)
REMARK       I    between atoms: N_5  and  C_13 
REMARK    1  A    between atoms: N_5  and  C_14 
REMARK    2  A    between atoms: N_6  and  C_17 
REMARK    3  A    between atoms: N_6  and  C_20 
REMARK    4  A    between atoms: N_7  and  C_21 
REMARK    5  A    between atoms: N_7  and  C_23 
REMARK    6  A    between atoms: C_10  and  C_13 
REMARK    7  A    between atoms: C_24  and  C_29 
ROOT
HETATM    1  N   UNL     1      57.077  89.913  48.633  1.00  0.00    -0.224 NA
HETATM    2  N   UNL     1      56.633  87.545  48.642  1.00  0.00    -0.224 NA
HETATM    3  C   UNL     1      57.527  89.786  47.368  1.00  0.00     0.133 A 
HETATM    4  C   UNL     1      57.560  88.589  46.682  1.00  0.00     0.100 A 
HETATM    5  C   UNL     1      57.097  87.483  47.372  1.00  0.00     0.133 A 
HETATM    6  C   UNL     1      56.653  88.769  49.203  1.00  0.00     0.237 A 
ENDROOT
BRANCH   3   7
HETATM    7  N   UNL     1      57.995  90.939  46.691  1.00  0.00    -0.341 N 
HETATM    8  H   UNL     1      58.988  91.112  46.825  1.00  0.00     0.167 HD
BRANCH   7   9
HETATM    9  C   UNL     1      57.355  91.881  45.869  1.00  0.00     0.035 A 
HETATM   10  C   UNL     1      56.236  92.576  46.334  1.00  0.00     0.059 A 
HETATM   11  C   UNL     1      55.602  93.512  45.517  1.00  0.00     0.036 A 
HETATM   12  C   UNL     1      56.085  93.757  44.231  1.00  0.00     0.029 A 
HETATM   13  C   UNL     1      57.202  93.066  43.762  1.00  0.00     0.004 A 
HETATM   14  C   UNL     1      57.835  92.129  44.579  1.00  0.00     0.029 A 
BRANCH  11  15
HETATM   15  N   UNL     1      54.484  94.205  45.986  1.00  0.00    -0.327 N 
HETATM   16  C   UNL     1      54.453  95.328  46.816  1.00  0.00     0.226 C 
HETATM   17  O   UNL     1      55.403  95.931  47.298  1.00  0.00    -0.273 OA
HETATM   18  H   UNL     1      53.586  93.833  45.684  1.00  0.00     0.169 HD
BRANCH  16  19
HETATM   19  C   UNL     1      53.071  95.815  47.122  1.00  0.00     0.078 A 
HETATM   20  C   UNL     1      52.809  97.279  47.057  1.00  0.00     0.015 A 
HETATM   21  C   UNL     1      52.857  96.577  48.382  1.00  0.00     0.015 A 
ENDBRANCH  16  19
ENDBRANCH  11  15
ENDBRANCH   7   9
ENDBRANCH   3   7
BRANCH   5  22
HETATM   22  N   UNL     1      57.114  86.242  46.708  1.00  0.00    -0.341 N 
HETATM   23  H   UNL     1      57.114  85.451  47.348  1.00  0.00     0.167 HD
BRANCH  22  24
HETATM   24  C   UNL     1      57.449  85.869  45.389  1.00  0.00     0.034 A 
HETATM   25  C   UNL     1      56.443  85.670  44.443  1.00  0.00     0.045 A 
HETATM   26  C   UNL     1      56.775  85.303  43.140  1.00  0.00     0.050 A 
HETATM   27  C   UNL     1      58.113  85.135  42.781  1.00  0.00     0.016 A 
HETATM   28  C   UNL     1      59.119  85.334  43.727  1.00  0.00     0.003 A 
HETATM   29  C   UNL     1      58.786  85.701  45.031  1.00  0.00     0.029 A 
BRANCH  26  30
HETATM   30  C   UNL     1      55.700  85.090  42.127  1.00  0.00     0.417 C 
HETATM   31  F   UNL     1      56.145  85.141  40.837  1.00  0.00    -0.166 F 
HETATM   32  F   UNL     1      55.076  83.880  42.241  1.00  0.00    -0.166 F 
HETATM   33  F   UNL     1      54.708  86.024  42.210  1.00  0.00    -0.166 F 
ENDBRANCH  26  30
ENDBRANCH  22  24
ENDBRANCH   5  22
TORSDOF 7
ENDMDL
