MODEL 1
REMARK VINA RESULT:      -7.5      0.000      0.000
REMARK  7 active torsions:
REMARK  status: ('A' for Active; 'I' for Inactive)
REMARK       I    between atoms: N_5  and  C_13 
REMARK    1  A    between atoms: N_5  and  C_14 
REMARK    2  A    between atoms: N_6  and  C_17 
REMARK    3  A    between atoms: N_6  and  C_20 
REMARK    4  A    between atoms: N_7  and  C_21 
REMARK    5  A    between atoms: N_7  and  C_23 
REMARK    6  A    between atoms: C_10  and  C_13 
REMARK    7  A    between atoms: C_24  and  C_29 
ROOT
HETATM    1  N   UNL     1      60.784  82.514  32.356  1.00  0.00    -0.224 NA
HETATM    2  N   UNL     1      59.688  84.576  32.951  1.00  0.00    -0.224 NA
HETATM    3  C   UNL     1      61.058  82.326  33.663  1.00  0.00     0.133 A 
HETATM    4  C   UNL     1      60.685  83.205  34.660  1.00  0.00     0.100 A 
HETATM    5  C   UNL     1      59.994  84.329  34.246  1.00  0.00     0.133 A 
HETATM    6  C   UNL     1      60.107  83.644  32.074  1.00  0.00     0.237 A 
ENDROOT
BRANCH   3   7
HETATM    7  N   UNL     1      61.769  81.163  34.051  1.00  0.00    -0.341 N 
HETATM    8  H   UNL     1      62.765  81.214  33.856  1.00  0.00     0.167 HD
BRANCH   7   9
HETATM    9  C   UNL     1      61.363  79.962  34.656  1.00  0.00     0.035 A 
HETATM   10  C   UNL     1      60.723  78.975  33.902  1.00  0.00     0.059 A 
HETATM   11  C   UNL     1      60.322  77.783  34.504  1.00  0.00     0.036 A 
HETATM   12  C   UNL     1      60.561  77.571  35.862  1.00  0.00     0.029 A 
HETATM   13  C   UNL     1      61.200  78.553  36.618  1.00  0.00     0.004 A 
HETATM   14  C   UNL     1      61.600  79.747  36.017  1.00  0.00     0.029 A 
BRANCH  11  15
HETATM   15  N   UNL     1      59.683  76.799  33.747  1.00  0.00    -0.327 N 
HETATM   16  C   UNL     1      58.312  76.587  33.591  1.00  0.00     0.226 C 
HETATM   17  O   UNL     1      57.393  77.225  34.088  1.00  0.00    -0.273 OA
HETATM   18  H   UNL     1      60.304  76.158  33.256  1.00  0.00     0.169 HD
BRANCH  16  19
HETATM   19  C   UNL     1      57.974  75.433  32.700  1.00  0.00     0.078 A 
HETATM   20  C   UNL     1      59.069  74.809  31.909  1.00  0.00     0.015 A 
HETATM   21  C   UNL     1      58.024  75.642  31.227  1.00  0.00     0.015 A 
ENDBRANCH  16  19
ENDBRANCH  11  15
ENDBRANCH   7   9
ENDBRANCH   3   7
BRANCH   5  22
HETATM   22  N   UNL     1      59.595  85.252  35.233  1.00  0.00    -0.341 N 
HETATM   23  H   UNL     1      60.165  85.203  36.074  1.00  0.00     0.167 HD
BRANCH  22  24
HETATM   24  C   UNL     1      58.406  85.985  35.429  1.00  0.00     0.034 A 
HETATM   25  C   UNL     1      57.446  85.530  36.332  1.00  0.00     0.045 A 
HETATM   26  C   UNL     1      56.271  86.256  36.527  1.00  0.00     0.050 A 
HETATM   27  C   UNL     1      56.057  87.438  35.819  1.00  0.00     0.016 A 
HETATM   28  C   UNL     1      57.016  87.894  34.915  1.00  0.00     0.003 A 
HETATM   29  C   UNL     1      58.191  87.167  34.720  1.00  0.00     0.029 A 
BRANCH  26  30
HETATM   30  C   UNL     1      55.244  85.769  37.493  1.00  0.00     0.417 C 
HETATM   31  F   UNL     1      55.118  86.556  38.602  1.00  0.00    -0.166 F 
HETATM   32  F   UNL     1      53.988  85.696  36.963  1.00  0.00    -0.166 F 
HETATM   33  F   UNL     1      55.517  84.516  37.963  1.00  0.00    -0.166 F 
ENDBRANCH  26  30
ENDBRANCH  22  24
ENDBRANCH   5  22
TORSDOF 7
ENDMDL
MODEL 2
REMARK VINA RESULT:      -7.4      1.607      2.633
REMARK  7 active torsions:
REMARK  status: ('A' for Active; 'I' for Inactive)
REMARK       I    between atoms: N_5  and  C_13 
REMARK    1  A    between atoms: N_5  and  C_14 
REMARK    2  A    between atoms: N_6  and  C_17 
REMARK    3  A    between atoms: N_6  and  C_20 
REMARK    4  A    between atoms: N_7  and  C_21 
REMARK    5  A    between atoms: N_7  and  C_23 
REMARK    6  A    between atoms: C_10  and  C_13 
REMARK    7  A    between atoms: C_24  and  C_29 
ROOT
HETATM    1  N   UNL     1      61.611  82.323  36.876  1.00  0.00    -0.224 NA
HETATM    2  N   UNL     1      60.916  84.420  37.838  1.00  0.00    -0.224 NA
HETATM    3  C   UNL     1      61.170  82.767  35.681  1.00  0.00     0.133 A 
HETATM    4  C   UNL     1      60.599  84.009  35.488  1.00  0.00     0.100 A 
HETATM    5  C   UNL     1      60.493  84.807  36.612  1.00  0.00     0.133 A 
HETATM    6  C   UNL     1      61.454  83.187  37.896  1.00  0.00     0.237 A 
ENDROOT
BRANCH   3   7
HETATM    7  N   UNL     1      61.293  81.923  34.551  1.00  0.00    -0.341 N 
HETATM    8  H   UNL     1      62.251  81.815  34.228  1.00  0.00     0.167 HD
BRANCH   7   9
HETATM    9  C   UNL     1      60.351  81.202  33.798  1.00  0.00     0.035 A 
HETATM   10  C   UNL     1      60.280  79.811  33.903  1.00  0.00     0.059 A 
HETATM   11  C   UNL     1      59.344  79.097  33.157  1.00  0.00     0.036 A 
HETATM   12  C   UNL     1      58.472  79.772  32.301  1.00  0.00     0.029 A 
HETATM   13  C   UNL     1      58.538  81.161  32.193  1.00  0.00     0.004 A 
HETATM   14  C   UNL     1      59.476  81.875  32.939  1.00  0.00     0.029 A 
BRANCH  11  15
HETATM   15  N   UNL     1      59.276  77.707  33.265  1.00  0.00    -0.327 N 
HETATM   16  C   UNL     1      58.187  76.926  33.656  1.00  0.00     0.226 C 
HETATM   17  O   UNL     1      57.070  77.305  33.982  1.00  0.00    -0.273 OA
HETATM   18  H   UNL     1      60.135  77.212  33.034  1.00  0.00     0.169 HD
BRANCH  16  19
HETATM   19  C   UNL     1      58.467  75.455  33.661  1.00  0.00     0.078 A 
HETATM   20  C   UNL     1      59.872  75.005  33.858  1.00  0.00     0.015 A 
HETATM   21  C   UNL     1      59.219  74.878  32.513  1.00  0.00     0.015 A 
ENDBRANCH  16  19
ENDBRANCH  11  15
ENDBRANCH   7   9
ENDBRANCH   3   7
BRANCH   5  22
HETATM   22  N   UNL     1      59.916  86.083  36.457  1.00  0.00    -0.341 N 
HETATM   23  H   UNL     1      60.520  86.832  36.788  1.00  0.00     0.167 HD
BRANCH  22  24
HETATM   24  C   UNL     1      58.589  86.511  36.249  1.00  0.00     0.034 A 
HETATM   25  C   UNL     1      57.566  86.045  37.076  1.00  0.00     0.045 A 
HETATM   26  C   UNL     1      56.254  86.471  36.870  1.00  0.00     0.050 A 
HETATM   27  C   UNL     1      55.964  87.363  35.837  1.00  0.00     0.016 A 
HETATM   28  C   UNL     1      56.986  87.829  35.010  1.00  0.00     0.003 A 
HETATM   29  C   UNL     1      58.298  87.403  35.216  1.00  0.00     0.029 A 
BRANCH  26  30
HETATM   30  C   UNL     1      55.160  85.973  37.754  1.00  0.00     0.417 C 
HETATM   31  F   UNL     1      53.948  85.893  37.132  1.00  0.00    -0.166 F 
HETATM   32  F   UNL     1      55.388  84.723  38.253  1.00  0.00    -0.166 F 
HETATM   33  F   UNL     1      54.961  86.772  38.843  1.00  0.00    -0.166 F 
ENDBRANCH  26  30
ENDBRANCH  22  24
ENDBRANCH   5  22
TORSDOF 7
ENDMDL
MODEL 3
REMARK VINA RESULT:      -7.4      1.702      2.257
REMARK  7 active torsions:
REMARK  status: ('A' for Active; 'I' for Inactive)
REMARK       I    between atoms: N_5  and  C_13 
REMARK    1  A    between atoms: N_5  and  C_14 
REMARK    2  A    between atoms: N_6  and  C_17 
REMARK    3  A    between atoms: N_6  and  C_20 
REMARK    4  A    between atoms: N_7  and  C_21 
REMARK    5  A    between atoms: N_7  and  C_23 
REMARK    6  A    between atoms: C_10  and  C_13 
REMARK    7  A    between atoms: C_24  and  C_29 
ROOT
HETATM    1  N   UNL     1      59.970  84.428  32.524  1.00  0.00    -0.224 NA
HETATM    2  N   UNL     1      59.689  86.051  34.284  1.00  0.00    -0.224 NA
HETATM    3  C   UNL     1      59.664  83.463  33.416  1.00  0.00     0.133 A 
HETATM    4  C   UNL     1      59.363  83.711  34.740  1.00  0.00     0.100 A 
HETATM    5  C   UNL     1      59.390  85.038  35.129  1.00  0.00     0.133 A 
HETATM    6  C   UNL     1      59.965  85.681  33.019  1.00  0.00     0.237 A 
ENDROOT
BRANCH   3   7
HETATM    7  N   UNL     1      59.646  82.115  32.984  1.00  0.00    -0.341 N 
HETATM    8  H   UNL     1      59.275  81.996  32.045  1.00  0.00     0.167 HD
BRANCH   7   9
HETATM    9  C   UNL     1      60.048  80.917  33.598  1.00  0.00     0.035 A 
HETATM   10  C   UNL     1      59.529  79.694  33.163  1.00  0.00     0.059 A 
HETATM   11  C   UNL     1      59.930  78.506  33.772  1.00  0.00     0.036 A 
HETATM   12  C   UNL     1      60.851  78.534  34.820  1.00  0.00     0.029 A 
HETATM   13  C   UNL     1      61.372  79.752  35.257  1.00  0.00     0.004 A 
HETATM   14  C   UNL     1      60.970  80.941  34.648  1.00  0.00     0.029 A 
BRANCH  11  15
HETATM   15  N   UNL     1      59.410  77.287  33.334  1.00  0.00    -0.327 N 
HETATM   16  C   UNL     1      58.112  76.797  33.494  1.00  0.00     0.226 C 
HETATM   17  O   UNL     1      57.168  77.341  34.052  1.00  0.00    -0.273 OA
HETATM   18  H   UNL     1      60.068  76.686  32.843  1.00  0.00     0.169 HD
BRANCH  16  19
HETATM   19  C   UNL     1      57.898  75.442  32.894  1.00  0.00     0.078 A 
HETATM   20  C   UNL     1      59.052  74.771  32.237  1.00  0.00     0.015 A 
HETATM   21  C   UNL     1      57.924  75.316  31.412  1.00  0.00     0.015 A 
ENDBRANCH  16  19
ENDBRANCH  11  15
ENDBRANCH   7   9
ENDBRANCH   3   7
BRANCH   5  22
HETATM   22  N   UNL     1      59.088  85.333  36.473  1.00  0.00    -0.341 N 
HETATM   23  H   UNL     1      59.885  85.207  37.093  1.00  0.00     0.167 HD
BRANCH  22  24
HETATM   24  C   UNL     1      57.870  85.449  37.174  1.00  0.00     0.034 A 
HETATM   25  C   UNL     1      57.790  85.043  38.506  1.00  0.00     0.045 A 
HETATM   26  C   UNL     1      56.586  85.160  39.199  1.00  0.00     0.050 A 
HETATM   27  C   UNL     1      55.461  85.684  38.561  1.00  0.00     0.016 A 
HETATM   28  C   UNL     1      55.541  86.090  37.229  1.00  0.00     0.003 A 
HETATM   29  C   UNL     1      56.746  85.973  36.536  1.00  0.00     0.029 A 
BRANCH  26  30
HETATM   30  C   UNL     1      56.499  84.725  40.624  1.00  0.00     0.417 C 
HETATM   31  F   UNL     1      57.693  84.769  41.284  1.00  0.00    -0.166 F 
HETATM   32  F   UNL     1      55.648  85.483  41.375  1.00  0.00    -0.166 F 
HETATM   33  F   UNL     1      56.056  83.439  40.754  1.00  0.00    -0.166 F 
ENDBRANCH  26  30
ENDBRANCH  22  24
ENDBRANCH   5  22
TORSDOF 7
ENDMDL
MODEL 4
REMARK VINA RESULT:      -7.3      4.274      6.723
REMARK  7 active torsions:
REMARK  status: ('A' for Active; 'I' for Inactive)
REMARK       I    between atoms: N_5  and  C_13 
REMARK    1  A    between atoms: N_5  and  C_14 
REMARK    2  A    between atoms: N_6  and  C_17 
REMARK    3  A    between atoms: N_6  and  C_20 
REMARK    4  A    between atoms: N_7  and  C_21 
REMARK    5  A    between atoms: N_7  and  C_23 
REMARK    6  A    between atoms: C_10  and  C_13 
REMARK    7  A    between atoms: C_24  and  C_29 
ROOT
HETATM    1  N   UNL     1      56.585  86.565  36.475  1.00  0.00    -0.224 NA
HETATM    2  N   UNL     1      55.356  85.782  38.394  1.00  0.00    -0.224 NA
HETATM    3  C   UNL     1      57.672  85.927  36.957  1.00  0.00     0.133 A 
HETATM    4  C   UNL     1      57.678  85.206  38.134  1.00  0.00     0.100 A 
HETATM    5  C   UNL     1      56.480  85.164  38.824  1.00  0.00     0.133 A 
HETATM    6  C   UNL     1      55.477  86.453  37.233  1.00  0.00     0.237 A 
ENDROOT
BRANCH   3   7
HETATM    7  N   UNL     1      58.882  85.992  36.225  1.00  0.00    -0.341 N 
HETATM    8  H   UNL     1      59.625  86.486  36.713  1.00  0.00     0.167 HD
BRANCH   7   9
HETATM    9  C   UNL     1      59.254  85.502  34.962  1.00  0.00     0.035 A 
HETATM   10  C   UNL     1      59.440  84.131  34.765  1.00  0.00     0.059 A 
HETATM   11  C   UNL     1      59.808  83.646  33.511  1.00  0.00     0.036 A 
HETATM   12  C   UNL     1      59.990  84.529  32.446  1.00  0.00     0.029 A 
HETATM   13  C   UNL     1      59.804  85.898  32.637  1.00  0.00     0.004 A 
HETATM   14  C   UNL     1      59.438  86.384  33.893  1.00  0.00     0.029 A 
BRANCH  11  15
HETATM   15  N   UNL     1      59.992  82.276  33.319  1.00  0.00    -0.327 N 
HETATM   16  C   UNL     1      59.249  81.411  32.512  1.00  0.00     0.226 C 
HETATM   17  O   UNL     1      58.285  81.684  31.809  1.00  0.00    -0.273 OA
HETATM   18  H   UNL     1      60.763  81.865  33.842  1.00  0.00     0.169 HD
BRANCH  16  19
HETATM   19  C   UNL     1      59.728  79.993  32.543  1.00  0.00     0.078 A 
HETATM   20  C   UNL     1      58.838  78.961  33.139  1.00  0.00     0.015 A 
HETATM   21  C   UNL     1      60.079  79.397  33.860  1.00  0.00     0.015 A 
ENDBRANCH  16  19
ENDBRANCH  11  15
ENDBRANCH   7   9
ENDBRANCH   3   7
BRANCH   5  22
HETATM   22  N   UNL     1      56.445  84.438  40.030  1.00  0.00    -0.341 N 
HETATM   23  H   UNL     1      56.092  83.491  39.911  1.00  0.00     0.167 HD
BRANCH  22  24
HETATM   24  C   UNL     1      56.484  84.832  41.384  1.00  0.00     0.034 A 
HETATM   25  C   UNL     1      57.708  84.932  42.046  1.00  0.00     0.045 A 
HETATM   26  C   UNL     1      57.746  85.324  43.384  1.00  0.00     0.050 A 
HETATM   27  C   UNL     1      56.561  85.616  44.060  1.00  0.00     0.016 A 
HETATM   28  C   UNL     1      55.338  85.516  43.398  1.00  0.00     0.003 A 
HETATM   29  C   UNL     1      55.299  85.124  42.059  1.00  0.00     0.029 A 
BRANCH  26  30
HETATM   30  C   UNL     1      59.054  85.431  44.093  1.00  0.00     0.417 C 
HETATM   31  F   UNL     1      59.003  86.194  45.224  1.00  0.00    -0.166 F 
HETATM   32  F   UNL     1      59.555  84.227  44.499  1.00  0.00    -0.166 F 
HETATM   33  F   UNL     1      60.028  85.990  43.317  1.00  0.00    -0.166 F 
ENDBRANCH  26  30
ENDBRANCH  22  24
ENDBRANCH   5  22
TORSDOF 7
ENDMDL
MODEL 5
REMARK VINA RESULT:      -7.3      7.991     12.655
REMARK  7 active torsions:
REMARK  status: ('A' for Active; 'I' for Inactive)
REMARK       I    between atoms: N_5  and  C_13 
REMARK    1  A    between atoms: N_5  and  C_14 
REMARK    2  A    between atoms: N_6  and  C_17 
REMARK    3  A    between atoms: N_6  and  C_20 
REMARK    4  A    between atoms: N_7  and  C_21 
REMARK    5  A    between atoms: N_7  and  C_23 
REMARK    6  A    between atoms: C_10  and  C_13 
REMARK    7  A    between atoms: C_24  and  C_29 
ROOT
HETATM    1  N   UNL     1      55.457  85.649  43.748  1.00  0.00    -0.224 NA
HETATM    2  N   UNL     1      55.645  85.082  41.414  1.00  0.00    -0.224 NA
HETATM    3  C   UNL     1      56.787  85.451  43.865  1.00  0.00     0.133 A 
HETATM    4  C   UNL     1      57.601  85.074  42.817  1.00  0.00     0.100 A 
HETATM    5  C   UNL     1      56.974  84.899  41.596  1.00  0.00     0.133 A 
HETATM    6  C   UNL     1      54.960  85.449  42.513  1.00  0.00     0.237 A 
ENDROOT
BRANCH   3   7
HETATM    7  N   UNL     1      57.396  85.638  45.130  1.00  0.00    -0.341 N 
HETATM    8  H   UNL     1      58.004  84.872  45.404  1.00  0.00     0.167 HD
BRANCH   7   9
HETATM    9  C   UNL     1      57.327  86.679  46.071  1.00  0.00     0.035 A 
HETATM   10  C   UNL     1      57.452  88.009  45.660  1.00  0.00     0.059 A 
HETATM   11  C   UNL     1      57.381  89.041  46.595  1.00  0.00     0.036 A 
HETATM   12  C   UNL     1      57.185  88.749  47.945  1.00  0.00     0.029 A 
HETATM   13  C   UNL     1      57.060  87.423  48.360  1.00  0.00     0.004 A 
HETATM   14  C   UNL     1      57.132  86.390  47.424  1.00  0.00     0.029 A 
BRANCH  11  15
HETATM   15  N   UNL     1      57.506  90.368  46.181  1.00  0.00    -0.327 N 
HETATM   16  C   UNL     1      56.517  91.202  45.652  1.00  0.00     0.226 C 
HETATM   17  O   UNL     1      55.340  90.934  45.448  1.00  0.00    -0.273 OA
HETATM   18  H   UNL     1      58.438  90.766  46.274  1.00  0.00     0.169 HD
BRANCH  16  19
HETATM   19  C   UNL     1      57.002  92.577  45.313  1.00  0.00     0.078 A 
HETATM   20  C   UNL     1      56.344  93.300  44.192  1.00  0.00     0.015 A 
HETATM   21  C   UNL     1      57.738  92.768  44.033  1.00  0.00     0.015 A 
ENDBRANCH  16  19
ENDBRANCH  11  15
ENDBRANCH   7   9
ENDBRANCH   3   7
BRANCH   5  22
HETATM   22  N   UNL     1      57.769  84.514  40.500  1.00  0.00    -0.341 N 
HETATM   23  H   UNL     1      58.664  84.118  40.781  1.00  0.00     0.167 HD
BRANCH  22  24
HETATM   24  C   UNL     1      57.732  84.846  39.130  1.00  0.00     0.034 A 
HETATM   25  C   UNL     1      56.543  85.288  38.550  1.00  0.00     0.045 A 
HETATM   26  C   UNL     1      56.508  85.618  37.196  1.00  0.00     0.050 A 
HETATM   27  C   UNL     1      57.663  85.506  36.421  1.00  0.00     0.016 A 
HETATM   28  C   UNL     1      58.852  85.064  37.000  1.00  0.00     0.003 A 
HETATM   29  C   UNL     1      58.887  84.734  38.355  1.00  0.00     0.029 A 
BRANCH  26  30
HETATM   30  C   UNL     1      55.237  86.091  36.575  1.00  0.00     0.417 C 
HETATM   31  F   UNL     1      54.735  85.236  35.635  1.00  0.00    -0.166 F 
HETATM   32  F   UNL     1      54.223  86.267  37.473  1.00  0.00    -0.166 F 
HETATM   33  F   UNL     1      55.377  87.292  35.940  1.00  0.00    -0.166 F 
ENDBRANCH  26  30
ENDBRANCH  22  24
ENDBRANCH   5  22
TORSDOF 7
ENDMDL
MODEL 6
REMARK VINA RESULT:      -7.1      4.916      7.813
REMARK  7 active torsions:
REMARK  status: ('A' for Active; 'I' for Inactive)
REMARK       I    between atoms: N_5  and  C_13 
REMARK    1  A    between atoms: N_5  and  C_14 
REMARK    2  A    between atoms: N_6  and  C_17 
REMARK    3  A    between atoms: N_6  and  C_20 
REMARK    4  A    between atoms: N_7  and  C_21 
REMARK    5  A    between atoms: N_7  and  C_23 
REMARK    6  A    between atoms: C_10  and  C_13 
REMARK    7  A    between atoms: C_24  and  C_29 
ROOT
HETATM    1  N   UNL     1      61.853  81.758  39.876  1.00  0.00    -0.224 NA
HETATM    2  N   UNL     1      61.148  82.580  42.029  1.00  0.00    -0.224 NA
HETATM    3  C   UNL     1      61.667  83.001  39.383  1.00  0.00     0.133 A 
HETATM    4  C   UNL     1      61.231  84.069  40.140  1.00  0.00     0.100 A 
HETATM    5  C   UNL     1      60.981  83.803  41.475  1.00  0.00     0.133 A 
HETATM    6  C   UNL     1      61.577  81.621  41.187  1.00  0.00     0.237 A 
ENDROOT
BRANCH   3   7
HETATM    7  N   UNL     1      61.931  83.237  38.012  1.00  0.00    -0.341 N 
HETATM    8  H   UNL     1      62.922  83.304  37.797  1.00  0.00     0.167 HD
BRANCH   7   9
HETATM    9  C   UNL     1      61.091  83.389  36.897  1.00  0.00     0.035 A 
HETATM   10  C   UNL     1      60.106  84.380  36.887  1.00  0.00     0.059 A 
HETATM   11  C   UNL     1      59.273  84.530  35.779  1.00  0.00     0.036 A 
HETATM   12  C   UNL     1      59.421  83.690  34.675  1.00  0.00     0.029 A 
HETATM   13  C   UNL     1      60.403  82.699  34.680  1.00  0.00     0.004 A 
HETATM   14  C   UNL     1      61.235  82.548  35.789  1.00  0.00     0.029 A 
BRANCH  11  15
HETATM   15  N   UNL     1      58.291  85.522  35.773  1.00  0.00    -0.327 N 
HETATM   16  C   UNL     1      56.993  85.453  36.285  1.00  0.00     0.226 C 
HETATM   17  O   UNL     1      56.457  84.505  36.843  1.00  0.00    -0.273 OA
HETATM   18  H   UNL     1      58.563  86.399  35.334  1.00  0.00     0.169 HD
BRANCH  16  19
HETATM   19  C   UNL     1      56.204  86.712  36.107  1.00  0.00     0.078 A 
HETATM   20  C   UNL     1      56.594  87.640  35.011  1.00  0.00     0.015 A 
HETATM   21  C   UNL     1      56.858  88.007  36.442  1.00  0.00     0.015 A 
ENDBRANCH  16  19
ENDBRANCH  11  15
ENDBRANCH   7   9
ENDBRANCH   3   7
BRANCH   5  22
HETATM   22  N   UNL     1      60.534  84.867  42.282  1.00  0.00    -0.341 N 
HETATM   23  H   UNL     1      61.295  85.450  42.624  1.00  0.00     0.167 HD
BRANCH  22  24
HETATM   24  C   UNL     1      59.324  85.103  42.966  1.00  0.00     0.034 A 
HETATM   25  C   UNL     1      58.108  85.002  42.289  1.00  0.00     0.045 A 
HETATM   26  C   UNL     1      56.912  85.235  42.967  1.00  0.00     0.050 A 
HETATM   27  C   UNL     1      56.931  85.569  44.321  1.00  0.00     0.016 A 
HETATM   28  C   UNL     1      58.146  85.670  44.998  1.00  0.00     0.003 A 
HETATM   29  C   UNL     1      59.343  85.437  44.320  1.00  0.00     0.029 A 
BRANCH  26  30
HETATM   30  C   UNL     1      55.611  85.127  42.244  1.00  0.00     0.417 C 
HETATM   31  F   UNL     1      54.803  86.216  42.405  1.00  0.00    -0.166 F 
HETATM   32  F   UNL     1      55.748  84.982  40.893  1.00  0.00    -0.166 F 
HETATM   33  F   UNL     1      54.869  84.056  42.654  1.00  0.00    -0.166 F 
ENDBRANCH  26  30
ENDBRANCH  22  24
ENDBRANCH   5  22
TORSDOF 7
ENDMDL
MODEL 7
REMARK VINA RESULT:      -7.1      4.247      9.232
REMARK  7 active torsions:
REMARK  status: ('A' for Active; 'I' for Inactive)
REMARK       I    between atoms: N_5  and  C_13 
REMARK    1  A    between atoms: N_5  and  C_14 
REMARK    2  A    between atoms: N_6  and  C_17 
REMARK    3  A    between atoms: N_6  and  C_20 
REMARK    4  A    between atoms: N_7  and  C_21 
REMARK    5  A    between atoms: N_7  and  C_23 
REMARK    6  A    between atoms: C_10  and  C_13 
REMARK    7  A    between atoms: C_24  and  C_29 
ROOT
HETATM    1  N   UNL     1      58.910  82.504  31.486  1.00  0.00    -0.224 NA
HETATM    2  N   UNL     1      58.905  80.381  32.627  1.00  0.00    -0.224 NA
HETATM    3  C   UNL     1      59.867  82.919  32.342  1.00  0.00     0.133 A 
HETATM    4  C   UNL     1      60.387  82.134  33.351  1.00  0.00     0.100 A 
HETATM    5  C   UNL     1      59.865  80.857  33.453  1.00  0.00     0.133 A 
HETATM    6  C   UNL     1      58.480  81.243  31.684  1.00  0.00     0.237 A 
ENDROOT
BRANCH   3   7
HETATM    7  N   UNL     1      60.378  84.234  32.209  1.00  0.00    -0.341 N 
HETATM    8  H   UNL     1      61.183  84.295  31.592  1.00  0.00     0.167 HD
BRANCH   7   9
HETATM    9  C   UNL     1      59.982  85.465  32.758  1.00  0.00     0.035 A 
HETATM   10  C   UNL     1      59.308  85.505  33.982  1.00  0.00     0.059 A 
HETATM   11  C   UNL     1      58.917  86.728  34.527  1.00  0.00     0.036 A 
HETATM   12  C   UNL     1      59.199  87.916  33.851  1.00  0.00     0.029 A 
HETATM   13  C   UNL     1      59.871  87.880  32.630  1.00  0.00     0.004 A 
HETATM   14  C   UNL     1      60.261  86.657  32.084  1.00  0.00     0.029 A 
BRANCH  11  15
HETATM   15  N   UNL     1      58.245  86.764  35.750  1.00  0.00    -0.327 N 
HETATM   16  C   UNL     1      56.885  86.984  35.979  1.00  0.00     0.226 C 
HETATM   17  O   UNL     1      56.008  87.189  35.149  1.00  0.00    -0.273 OA
HETATM   18  H   UNL     1      58.829  86.616  36.570  1.00  0.00     0.169 HD
BRANCH  16  19
HETATM   19  C   UNL     1      56.502  86.955  37.426  1.00  0.00     0.078 A 
HETATM   20  C   UNL     1      56.679  85.683  38.177  1.00  0.00     0.015 A 
HETATM   21  C   UNL     1      55.303  86.166  37.821  1.00  0.00     0.015 A 
ENDBRANCH  16  19
ENDBRANCH  11  15
ENDBRANCH   7   9
ENDBRANCH   3   7
BRANCH   5  22
HETATM   22  N   UNL     1      60.369  80.024  34.470  1.00  0.00    -0.341 N 
HETATM   23  H   UNL     1      60.944  80.525  35.144  1.00  0.00     0.167 HD
BRANCH  22  24
HETATM   24  C   UNL     1      60.512  78.624  34.575  1.00  0.00     0.034 A 
HETATM   25  C   UNL     1      59.587  77.780  33.961  1.00  0.00     0.045 A 
HETATM   26  C   UNL     1      59.731  76.396  34.063  1.00  0.00     0.050 A 
HETATM   27  C   UNL     1      60.799  75.857  34.779  1.00  0.00     0.016 A 
HETATM   28  C   UNL     1      61.724  76.701  35.394  1.00  0.00     0.003 A 
HETATM   29  C   UNL     1      61.580  78.085  35.291  1.00  0.00     0.029 A 
BRANCH  26  30
HETATM   30  C   UNL     1      58.742  75.493  33.406  1.00  0.00     0.417 C 
HETATM   31  F   UNL     1      57.493  76.034  33.298  1.00  0.00    -0.166 F 
HETATM   32  F   UNL     1      59.088  75.137  32.134  1.00  0.00    -0.166 F 
HETATM   33  F   UNL     1      58.574  74.318  34.082  1.00  0.00    -0.166 F 
ENDBRANCH  26  30
ENDBRANCH  22  24
ENDBRANCH   5  22
TORSDOF 7
ENDMDL
MODEL 8
REMARK VINA RESULT:      -7.1      6.652     10.270
REMARK  7 active torsions:
REMARK  status: ('A' for Active; 'I' for Inactive)
REMARK       I    between atoms: N_5  and  C_13 
REMARK    1  A    between atoms: N_5  and  C_14 
REMARK    2  A    between atoms: N_6  and  C_17 
REMARK    3  A    between atoms: N_6  and  C_20 
REMARK    4  A    between atoms: N_7  and  C_21 
REMARK    5  A    between atoms: N_7  and  C_23 
REMARK    6  A    between atoms: C_10  and  C_13 
REMARK    7  A    between atoms: C_24  and  C_29 
ROOT
HETATM    1  N   UNL     1      60.768  82.932  41.216  1.00  0.00    -0.224 NA
HETATM    2  N   UNL     1      61.076  82.533  38.860  1.00  0.00    -0.224 NA
HETATM    3  C   UNL     1      60.109  84.066  40.899  1.00  0.00     0.133 A 
HETATM    4  C   UNL     1      59.896  84.493  39.604  1.00  0.00     0.100 A 
HETATM    5  C   UNL     1      60.407  83.681  38.608  1.00  0.00     0.133 A 
HETATM    6  C   UNL     1      61.219  82.225  40.163  1.00  0.00     0.237 A 
ENDROOT
BRANCH   3   7
HETATM    7  N   UNL     1      59.601  84.875  41.945  1.00  0.00    -0.341 N 
HETATM    8  H   UNL     1      60.275  85.547  42.302  1.00  0.00     0.167 HD
BRANCH   7   9
HETATM    9  C   UNL     1      58.347  84.930  42.577  1.00  0.00     0.035 A 
HETATM   10  C   UNL     1      58.263  85.042  43.967  1.00  0.00     0.059 A 
HETATM   11  C   UNL     1      57.018  85.099  44.592  1.00  0.00     0.036 A 
HETATM   12  C   UNL     1      55.851  85.044  43.830  1.00  0.00     0.029 A 
HETATM   13  C   UNL     1      55.929  84.932  42.442  1.00  0.00     0.004 A 
HETATM   14  C   UNL     1      57.175  84.875  41.817  1.00  0.00     0.029 A 
BRANCH  11  15
HETATM   15  N   UNL     1      56.939  85.212  45.981  1.00  0.00    -0.327 N 
HETATM   16  C   UNL     1      56.988  86.373  46.755  1.00  0.00     0.226 C 
HETATM   17  O   UNL     1      57.110  87.528  46.368  1.00  0.00    -0.273 OA
HETATM   18  H   UNL     1      56.839  84.332  46.483  1.00  0.00     0.169 HD
BRANCH  16  19
HETATM   19  C   UNL     1      56.873  86.126  48.227  1.00  0.00     0.078 A 
HETATM   20  C   UNL     1      56.668  87.294  49.125  1.00  0.00     0.015 A 
HETATM   21  C   UNL     1      57.986  86.576  49.107  1.00  0.00     0.015 A 
ENDBRANCH  16  19
ENDBRANCH  11  15
ENDBRANCH   7   9
ENDBRANCH   3   7
BRANCH   5  22
HETATM   22  N   UNL     1      60.210  84.081  37.272  1.00  0.00    -0.341 N 
HETATM   23  H   UNL     1      60.904  83.692  36.637  1.00  0.00     0.167 HD
BRANCH  22  24
HETATM   24  C   UNL     1      59.475  85.135  36.689  1.00  0.00     0.034 A 
HETATM   25  C   UNL     1      58.081  85.105  36.703  1.00  0.00     0.045 A 
HETATM   26  C   UNL     1      57.355  86.148  36.128  1.00  0.00     0.050 A 
HETATM   27  C   UNL     1      58.024  87.220  35.538  1.00  0.00     0.016 A 
HETATM   28  C   UNL     1      59.418  87.251  35.523  1.00  0.00     0.003 A 
HETATM   29  C   UNL     1      60.144  86.207  36.099  1.00  0.00     0.029 A 
BRANCH  26  30
HETATM   30  C   UNL     1      55.863  86.116  36.143  1.00  0.00     0.417 C 
HETATM   31  F   UNL     1      55.293  86.691  35.044  1.00  0.00    -0.166 F 
HETATM   32  F   UNL     1      55.345  84.854  36.195  1.00  0.00    -0.166 F 
HETATM   33  F   UNL     1      55.335  86.774  37.217  1.00  0.00    -0.166 F 
ENDBRANCH  26  30
ENDBRANCH  22  24
ENDBRANCH   5  22
TORSDOF 7
ENDMDL
MODEL 9
REMARK VINA RESULT:      -6.9      2.668      3.643
REMARK  7 active torsions:
REMARK  status: ('A' for Active; 'I' for Inactive)
REMARK       I    between atoms: N_5  and  C_13 
REMARK    1  A    between atoms: N_5  and  C_14 
REMARK    2  A    between atoms: N_6  and  C_17 
REMARK    3  A    between atoms: N_6  and  C_20 
REMARK    4  A    between atoms: N_7  and  C_21 
REMARK    5  A    between atoms: N_7  and  C_23 
REMARK    6  A    between atoms: C_10  and  C_13 
REMARK    7  A    between atoms: C_24  and  C_29 
ROOT
HETATM    1  N   UNL     1      61.674  81.875  37.046  1.00  0.00    -0.224 NA
HETATM    2  N   UNL     1      60.894  83.712  38.397  1.00  0.00    -0.224 NA
HETATM    3  C   UNL     1      61.154  82.497  35.967  1.00  0.00     0.133 A 
HETATM    4  C   UNL     1      60.501  83.711  36.023  1.00  0.00     0.100 A 
HETATM    5  C   UNL     1      60.395  84.285  37.277  1.00  0.00     0.133 A 
HETATM    6  C   UNL     1      61.509  82.528  38.212  1.00  0.00     0.237 A 
ENDROOT
BRANCH   3   7
HETATM    7  N   UNL     1      61.280  81.881  34.698  1.00  0.00    -0.341 N 
HETATM    8  H   UNL     1      62.214  81.949  34.306  1.00  0.00     0.167 HD
BRANCH   7   9
HETATM    9  C   UNL     1      60.366  81.191  33.885  1.00  0.00     0.035 A 
HETATM   10  C   UNL     1      60.277  79.797  33.950  1.00  0.00     0.059 A 
HETATM   11  C   UNL     1      59.369  79.113  33.144  1.00  0.00     0.036 A 
HETATM   12  C   UNL     1      58.543  79.820  32.268  1.00  0.00     0.029 A 
HETATM   13  C   UNL     1      58.627  81.210  32.199  1.00  0.00     0.004 A 
HETATM   14  C   UNL     1      59.537  81.894  33.006  1.00  0.00     0.029 A 
BRANCH  11  15
HETATM   15  N   UNL     1      59.284  77.722  33.212  1.00  0.00    -0.327 N 
HETATM   16  C   UNL     1      58.188  76.944  33.594  1.00  0.00     0.226 C 
HETATM   17  O   UNL     1      57.080  77.329  33.944  1.00  0.00    -0.273 OA
HETATM   18  H   UNL     1      60.132  77.222  32.956  1.00  0.00     0.169 HD
BRANCH  16  19
HETATM   19  C   UNL     1      58.448  75.470  33.552  1.00  0.00     0.078 A 
HETATM   20  C   UNL     1      59.818  74.986  33.874  1.00  0.00     0.015 A 
HETATM   21  C   UNL     1      59.312  74.938  32.462  1.00  0.00     0.015 A 
ENDBRANCH  16  19
ENDBRANCH  11  15
ENDBRANCH   7   9
ENDBRANCH   3   7
BRANCH   5  22
HETATM   22  N   UNL     1      59.735  85.524  37.377  1.00  0.00    -0.341 N 
HETATM   23  H   UNL     1      59.924  86.003  38.255  1.00  0.00     0.167 HD
BRANCH  22  24
HETATM   24  C   UNL     1      58.642  86.083  36.682  1.00  0.00     0.034 A 
HETATM   25  C   UNL     1      58.863  86.896  35.570  1.00  0.00     0.045 A 
HETATM   26  C   UNL     1      57.782  87.446  34.883  1.00  0.00     0.050 A 
HETATM   27  C   UNL     1      56.480  87.185  35.307  1.00  0.00     0.016 A 
HETATM   28  C   UNL     1      56.258  86.373  36.419  1.00  0.00     0.003 A 
HETATM   29  C   UNL     1      57.340  85.822  37.107  1.00  0.00     0.029 A 
BRANCH  26  30
HETATM   30  C   UNL     1      58.018  88.315  33.693  1.00  0.00     0.417 C 
HETATM   31  F   UNL     1      57.900  87.658  32.502  1.00  0.00    -0.166 F 
HETATM   32  F   UNL     1      57.153  89.368  33.606  1.00  0.00    -0.166 F 
HETATM   33  F   UNL     1      59.268  88.866  33.685  1.00  0.00    -0.166 F 
ENDBRANCH  26  30
ENDBRANCH  22  24
ENDBRANCH   5  22
TORSDOF 7
ENDMDL
