MODEL 1
REMARK VINA RESULT:      -7.7      0.000      0.000
REMARK  7 active torsions:
REMARK  status: ('A' for Active; 'I' for Inactive)
REMARK       I    between atoms: N_5  and  C_13 
REMARK    1  A    between atoms: N_5  and  C_14 
REMARK    2  A    between atoms: N_6  and  C_17 
REMARK    3  A    between atoms: N_6  and  C_20 
REMARK    4  A    between atoms: N_7  and  C_21 
REMARK    5  A    between atoms: N_7  and  C_23 
REMARK    6  A    between atoms: C_10  and  C_13 
REMARK    7  A    between atoms: C_24  and  C_29 
ROOT
HETATM    1  N   UNL     1      59.879  87.611  34.170  1.00  0.00    -0.224 NA
HETATM    2  N   UNL     1      60.924  85.761  33.034  1.00  0.00    -0.224 NA
HETATM    3  C   UNL     1      59.268  86.720  34.980  1.00  0.00     0.133 A 
HETATM    4  C   UNL     1      59.434  85.354  34.880  1.00  0.00     0.100 A 
HETATM    5  C   UNL     1      60.283  84.919  33.877  1.00  0.00     0.133 A 
HETATM    6  C   UNL     1      60.680  87.070  33.233  1.00  0.00     0.237 A 
ENDROOT
BRANCH   3   7
HETATM    7  N   UNL     1      58.405  87.200  35.995  1.00  0.00    -0.341 N 
HETATM    8  H   UNL     1      58.772  88.009  36.489  1.00  0.00     0.167 HD
BRANCH   7   9
HETATM    9  C   UNL     1      57.142  86.779  36.442  1.00  0.00     0.035 A 
HETATM   10  C   UNL     1      56.969  86.349  37.761  1.00  0.00     0.059 A 
HETATM   11  C   UNL     1      55.715  85.932  38.204  1.00  0.00     0.036 A 
HETATM   12  C   UNL     1      54.626  85.944  37.331  1.00  0.00     0.029 A 
HETATM   13  C   UNL     1      54.793  86.373  36.015  1.00  0.00     0.004 A 
HETATM   14  C   UNL     1      56.049  86.789  35.571  1.00  0.00     0.029 A 
BRANCH  11  15
HETATM   15  N   UNL     1      55.547  85.505  39.522  1.00  0.00    -0.327 N 
HETATM   16  C   UNL     1      56.455  84.811  40.325  1.00  0.00     0.226 C 
HETATM   17  O   UNL     1      57.584  84.439  40.032  1.00  0.00    -0.273 OA
HETATM   18  H   UNL     1      54.645  85.726  39.938  1.00  0.00     0.169 HD
BRANCH  16  19
HETATM   19  C   UNL     1      55.943  84.510  41.699  1.00  0.00     0.078 A 
HETATM   20  C   UNL     1      55.179  85.568  42.414  1.00  0.00     0.015 A 
HETATM   21  C   UNL     1      56.568  85.211  42.853  1.00  0.00     0.015 A 
ENDBRANCH  16  19
ENDBRANCH  11  15
ENDBRANCH   7   9
ENDBRANCH   3   7
BRANCH   5  22
HETATM   22  N   UNL     1      60.480  83.531  33.742  1.00  0.00    -0.341 N 
HETATM   23  H   UNL     1      61.401  83.231  34.052  1.00  0.00     0.167 HD
BRANCH  22  24
HETATM   24  C   UNL     1      59.815  82.542  32.989  1.00  0.00     0.034 A 
HETATM   25  C   UNL     1      59.729  81.236  33.472  1.00  0.00     0.045 A 
HETATM   26  C   UNL     1      59.070  80.259  32.728  1.00  0.00     0.050 A 
HETATM   27  C   UNL     1      58.495  80.586  31.500  1.00  0.00     0.016 A 
HETATM   28  C   UNL     1      58.581  81.891  31.016  1.00  0.00     0.003 A 
HETATM   29  C   UNL     1      59.240  82.869  31.761  1.00  0.00     0.029 A 
BRANCH  26  30
HETATM   30  C   UNL     1      58.978  78.862  33.245  1.00  0.00     0.417 C 
HETATM   31  F   UNL     1      59.781  78.623  34.323  1.00  0.00    -0.166 F 
HETATM   32  F   UNL     1      57.722  78.511  33.651  1.00  0.00    -0.166 F 
HETATM   33  F   UNL     1      59.334  77.932  32.310  1.00  0.00    -0.166 F 
ENDBRANCH  26  30
ENDBRANCH  22  24
ENDBRANCH   5  22
TORSDOF 7
ENDMDL
MODEL 2
REMARK VINA RESULT:      -7.6      4.131      8.688
REMARK  7 active torsions:
REMARK  status: ('A' for Active; 'I' for Inactive)
REMARK       I    between atoms: N_5  and  C_13 
REMARK    1  A    between atoms: N_5  and  C_14 
REMARK    2  A    between atoms: N_6  and  C_17 
REMARK    3  A    between atoms: N_6  and  C_20 
REMARK    4  A    between atoms: N_7  and  C_21 
REMARK    5  A    between atoms: N_7  and  C_23 
REMARK    6  A    between atoms: C_10  and  C_13 
REMARK    7  A    between atoms: C_24  and  C_29 
ROOT
HETATM    1  N   UNL     1      60.784  82.486  32.392  1.00  0.00    -0.224 NA
HETATM    2  N   UNL     1      59.691  84.540  33.022  1.00  0.00    -0.224 NA
HETATM    3  C   UNL     1      61.044  82.267  33.698  1.00  0.00     0.133 A 
HETATM    4  C   UNL     1      60.664  83.126  34.710  1.00  0.00     0.100 A 
HETATM    5  C   UNL     1      59.982  84.263  34.314  1.00  0.00     0.133 A 
HETATM    6  C   UNL     1      60.115  83.625  32.129  1.00  0.00     0.237 A 
ENDROOT
BRANCH   3   7
HETATM    7  N   UNL     1      61.745  81.093  34.067  1.00  0.00    -0.341 N 
HETATM    8  H   UNL     1      62.737  81.131  33.854  1.00  0.00     0.167 HD
BRANCH   7   9
HETATM    9  C   UNL     1      61.334  79.896  34.675  1.00  0.00     0.035 A 
HETATM   10  C   UNL     1      60.672  78.917  33.927  1.00  0.00     0.059 A 
HETATM   11  C   UNL     1      60.266  77.728  34.531  1.00  0.00     0.036 A 
HETATM   12  C   UNL     1      60.520  77.511  35.886  1.00  0.00     0.029 A 
HETATM   13  C   UNL     1      61.180  78.484  36.636  1.00  0.00     0.004 A 
HETATM   14  C   UNL     1      61.585  79.674  36.032  1.00  0.00     0.029 A 
BRANCH  11  15
HETATM   15  N   UNL     1      59.607  76.754  33.781  1.00  0.00    -0.327 N 
HETATM   16  C   UNL     1      58.233  76.608  33.574  1.00  0.00     0.226 C 
HETATM   17  O   UNL     1      57.330  77.310  34.012  1.00  0.00    -0.273 OA
HETATM   18  H   UNL     1      60.211  76.065  33.338  1.00  0.00     0.169 HD
BRANCH  16  19
HETATM   19  C   UNL     1      57.871  75.443  32.708  1.00  0.00     0.078 A 
HETATM   20  C   UNL     1      58.966  74.706  32.022  1.00  0.00     0.015 A 
HETATM   21  C   UNL     1      58.036  75.582  31.235  1.00  0.00     0.015 A 
ENDBRANCH  16  19
ENDBRANCH  11  15
ENDBRANCH   7   9
ENDBRANCH   3   7
BRANCH   5  22
HETATM   22  N   UNL     1      59.577  85.165  35.317  1.00  0.00    -0.341 N 
HETATM   23  H   UNL     1      60.131  85.086  36.167  1.00  0.00     0.167 HD
BRANCH  22  24
HETATM   24  C   UNL     1      58.395  85.910  35.510  1.00  0.00     0.034 A 
HETATM   25  C   UNL     1      57.439  85.477  36.429  1.00  0.00     0.045 A 
HETATM   26  C   UNL     1      56.271  86.214  36.620  1.00  0.00     0.050 A 
HETATM   27  C   UNL     1      56.059  87.385  35.893  1.00  0.00     0.016 A 
HETATM   28  C   UNL     1      57.014  87.819  34.973  1.00  0.00     0.003 A 
HETATM   29  C   UNL     1      58.182  87.081  34.782  1.00  0.00     0.029 A 
BRANCH  26  30
HETATM   30  C   UNL     1      55.248  85.752  37.603  1.00  0.00     0.417 C 
HETATM   31  F   UNL     1      55.093  86.591  38.668  1.00  0.00    -0.166 F 
HETATM   32  F   UNL     1      53.999  85.619  37.068  1.00  0.00    -0.166 F 
HETATM   33  F   UNL     1      55.549  84.532  38.138  1.00  0.00    -0.166 F 
ENDBRANCH  26  30
ENDBRANCH  22  24
ENDBRANCH   5  22
TORSDOF 7
ENDMDL
MODEL 3
REMARK VINA RESULT:      -7.5      4.521      9.221
REMARK  7 active torsions:
REMARK  status: ('A' for Active; 'I' for Inactive)
REMARK       I    between atoms: N_5  and  C_13 
REMARK    1  A    between atoms: N_5  and  C_14 
REMARK    2  A    between atoms: N_6  and  C_17 
REMARK    3  A    between atoms: N_6  and  C_20 
REMARK    4  A    between atoms: N_7  and  C_21 
REMARK    5  A    between atoms: N_7  and  C_23 
REMARK    6  A    between atoms: C_10  and  C_13 
REMARK    7  A    between atoms: C_24  and  C_29 
ROOT
HETATM    1  N   UNL     1      56.717  86.612  36.520  1.00  0.00    -0.224 NA
HETATM    2  N   UNL     1      55.531  85.888  38.489  1.00  0.00    -0.224 NA
HETATM    3  C   UNL     1      57.780  85.897  36.943  1.00  0.00     0.133 A 
HETATM    4  C   UNL     1      57.795  85.162  38.111  1.00  0.00     0.100 A 
HETATM    5  C   UNL     1      56.631  85.191  38.859  1.00  0.00     0.133 A 
HETATM    6  C   UNL     1      55.642  86.564  37.330  1.00  0.00     0.237 A 
ENDROOT
BRANCH   3   7
HETATM    7  N   UNL     1      58.956  85.890  36.153  1.00  0.00    -0.341 N 
HETATM    8  H   UNL     1      59.700  86.472  36.530  1.00  0.00     0.167 HD
BRANCH   7   9
HETATM    9  C   UNL     1      59.292  85.232  34.959  1.00  0.00     0.035 A 
HETATM   10  C   UNL     1      59.322  83.836  34.909  1.00  0.00     0.059 A 
HETATM   11  C   UNL     1      59.655  83.183  33.722  1.00  0.00     0.036 A 
HETATM   12  C   UNL     1      59.957  83.924  32.579  1.00  0.00     0.029 A 
HETATM   13  C   UNL     1      59.928  85.318  32.624  1.00  0.00     0.004 A 
HETATM   14  C   UNL     1      59.596  85.970  33.812  1.00  0.00     0.029 A 
BRANCH  11  15
HETATM   15  N   UNL     1      59.683  81.789  33.677  1.00  0.00    -0.327 N 
HETATM   16  C   UNL     1      58.944  80.938  32.851  1.00  0.00     0.226 C 
HETATM   17  O   UNL     1      58.121  81.248  31.999  1.00  0.00    -0.273 OA
HETATM   18  H   UNL     1      60.321  81.346  34.335  1.00  0.00     0.169 HD
BRANCH  16  19
HETATM   19  C   UNL     1      59.227  79.485  33.070  1.00  0.00     0.078 A 
HETATM   20  C   UNL     1      60.238  79.110  34.095  1.00  0.00     0.015 A 
HETATM   21  C   UNL     1      60.547  78.951  32.635  1.00  0.00     0.015 A 
ENDBRANCH  16  19
ENDBRANCH  11  15
ENDBRANCH   7   9
ENDBRANCH   3   7
BRANCH   5  22
HETATM   22  N   UNL     1      56.605  84.454  40.058  1.00  0.00    -0.341 N 
HETATM   23  H   UNL     1      56.331  83.484  39.920  1.00  0.00     0.167 HD
BRANCH  22  24
HETATM   24  C   UNL     1      56.562  84.839  41.415  1.00  0.00     0.034 A 
HETATM   25  C   UNL     1      57.745  84.956  42.145  1.00  0.00     0.045 A 
HETATM   26  C   UNL     1      57.702  85.338  43.485  1.00  0.00     0.050 A 
HETATM   27  C   UNL     1      56.477  85.602  44.096  1.00  0.00     0.016 A 
HETATM   28  C   UNL     1      55.294  85.485  43.367  1.00  0.00     0.003 A 
HETATM   29  C   UNL     1      55.337  85.104  42.026  1.00  0.00     0.029 A 
BRANCH  26  30
HETATM   30  C   UNL     1      58.967  85.463  44.266  1.00  0.00     0.417 C 
HETATM   31  F   UNL     1      58.790  85.984  45.516  1.00  0.00    -0.166 F 
HETATM   32  F   UNL     1      59.606  84.272  44.465  1.00  0.00    -0.166 F 
HETATM   33  F   UNL     1      59.883  86.273  43.658  1.00  0.00    -0.166 F 
ENDBRANCH  26  30
ENDBRANCH  22  24
ENDBRANCH   5  22
TORSDOF 7
ENDMDL
MODEL 4
REMARK VINA RESULT:      -7.4      5.337      8.961
REMARK  7 active torsions:
REMARK  status: ('A' for Active; 'I' for Inactive)
REMARK       I    between atoms: N_5  and  C_13 
REMARK    1  A    between atoms: N_5  and  C_14 
REMARK    2  A    between atoms: N_6  and  C_17 
REMARK    3  A    between atoms: N_6  and  C_20 
REMARK    4  A    between atoms: N_7  and  C_21 
REMARK    5  A    between atoms: N_7  and  C_23 
REMARK    6  A    between atoms: C_10  and  C_13 
REMARK    7  A    between atoms: C_24  and  C_29 
ROOT
HETATM    1  N   UNL     1      55.761  85.271  43.769  1.00  0.00    -0.224 NA
HETATM    2  N   UNL     1      55.951  84.680  41.441  1.00  0.00    -0.224 NA
HETATM    3  C   UNL     1      57.108  85.335  43.825  1.00  0.00     0.133 A 
HETATM    4  C   UNL     1      57.932  85.089  42.746  1.00  0.00     0.100 A 
HETATM    5  C   UNL     1      57.297  84.760  41.561  1.00  0.00     0.133 A 
HETATM    6  C   UNL     1      55.257  84.942  42.565  1.00  0.00     0.237 A 
ENDROOT
BRANCH   3   7
HETATM    7  N   UNL     1      57.725  85.673  45.054  1.00  0.00    -0.341 N 
HETATM    8  H   UNL     1      58.521  85.085  45.283  1.00  0.00     0.167 HD
BRANCH   7   9
HETATM    9  C   UNL     1      57.453  86.667  46.009  1.00  0.00     0.035 A 
HETATM   10  C   UNL     1      57.524  88.018  45.660  1.00  0.00     0.059 A 
HETATM   11  C   UNL     1      57.253  89.003  46.609  1.00  0.00     0.036 A 
HETATM   12  C   UNL     1      56.909  88.641  47.912  1.00  0.00     0.029 A 
HETATM   13  C   UNL     1      56.836  87.294  48.265  1.00  0.00     0.004 A 
HETATM   14  C   UNL     1      57.108  86.309  47.316  1.00  0.00     0.029 A 
BRANCH  11  15
HETATM   15  N   UNL     1      57.325  90.351  46.255  1.00  0.00    -0.327 N 
HETATM   16  C   UNL     1      56.330  91.145  45.679  1.00  0.00     0.226 C 
HETATM   17  O   UNL     1      55.193  90.814  45.368  1.00  0.00    -0.273 OA
HETATM   18  H   UNL     1      58.219  90.801  46.440  1.00  0.00     0.169 HD
BRANCH  16  19
HETATM   19  C   UNL     1      56.752  92.560  45.432  1.00  0.00     0.078 A 
HETATM   20  C   UNL     1      55.882  93.417  44.582  1.00  0.00     0.015 A 
HETATM   21  C   UNL     1      57.203  92.931  44.063  1.00  0.00     0.015 A 
ENDBRANCH  16  19
ENDBRANCH  11  15
ENDBRANCH   7   9
ENDBRANCH   3   7
BRANCH   5  22
HETATM   22  N   UNL     1      58.102  84.501  40.436  1.00  0.00    -0.341 N 
HETATM   23  H   UNL     1      59.058  84.255  40.683  1.00  0.00     0.167 HD
BRANCH  22  24
HETATM   24  C   UNL     1      57.962  84.816  39.068  1.00  0.00     0.034 A 
HETATM   25  C   UNL     1      56.732  85.253  38.575  1.00  0.00     0.045 A 
HETATM   26  C   UNL     1      56.595  85.566  37.223  1.00  0.00     0.050 A 
HETATM   27  C   UNL     1      57.687  85.442  36.364  1.00  0.00     0.016 A 
HETATM   28  C   UNL     1      58.916  85.005  36.856  1.00  0.00     0.003 A 
HETATM   29  C   UNL     1      59.054  84.692  38.209  1.00  0.00     0.029 A 
BRANCH  26  30
HETATM   30  C   UNL     1      55.280  86.033  36.695  1.00  0.00     0.417 C 
HETATM   31  F   UNL     1      55.342  87.242  36.064  1.00  0.00    -0.166 F 
HETATM   32  F   UNL     1      54.725  85.182  35.782  1.00  0.00    -0.166 F 
HETATM   33  F   UNL     1      54.342  86.180  37.676  1.00  0.00    -0.166 F 
ENDBRANCH  26  30
ENDBRANCH  22  24
ENDBRANCH   5  22
TORSDOF 7
ENDMDL
MODEL 5
REMARK VINA RESULT:      -7.2      4.646      6.934
REMARK  7 active torsions:
REMARK  status: ('A' for Active; 'I' for Inactive)
REMARK       I    between atoms: N_5  and  C_13 
REMARK    1  A    between atoms: N_5  and  C_14 
REMARK    2  A    between atoms: N_6  and  C_17 
REMARK    3  A    between atoms: N_6  and  C_20 
REMARK    4  A    between atoms: N_7  and  C_21 
REMARK    5  A    between atoms: N_7  and  C_23 
REMARK    6  A    between atoms: C_10  and  C_13 
REMARK    7  A    between atoms: C_24  and  C_29 
ROOT
HETATM    1  N   UNL     1      60.826  82.965  41.254  1.00  0.00    -0.224 NA
HETATM    2  N   UNL     1      61.136  82.532  38.904  1.00  0.00    -0.224 NA
HETATM    3  C   UNL     1      60.142  84.079  40.921  1.00  0.00     0.133 A 
HETATM    4  C   UNL     1      59.916  84.479  39.619  1.00  0.00     0.100 A 
HETATM    5  C   UNL     1      60.441  83.661  38.635  1.00  0.00     0.133 A 
HETATM    6  C   UNL     1      61.290  82.249  40.212  1.00  0.00     0.237 A 
ENDROOT
BRANCH   3   7
HETATM    7  N   UNL     1      59.619  84.893  41.954  1.00  0.00    -0.341 N 
HETATM    8  H   UNL     1      60.280  85.582  42.302  1.00  0.00     0.167 HD
BRANCH   7   9
HETATM    9  C   UNL     1      58.364  84.937  42.584  1.00  0.00     0.035 A 
HETATM   10  C   UNL     1      58.277  85.062  43.973  1.00  0.00     0.059 A 
HETATM   11  C   UNL     1      57.030  85.106  44.597  1.00  0.00     0.036 A 
HETATM   12  C   UNL     1      55.865  85.026  43.834  1.00  0.00     0.029 A 
HETATM   13  C   UNL     1      55.946  84.901  42.448  1.00  0.00     0.004 A 
HETATM   14  C   UNL     1      57.193  84.855  41.824  1.00  0.00     0.029 A 
BRANCH  11  15
HETATM   15  N   UNL     1      56.948  85.232  45.985  1.00  0.00    -0.327 N 
HETATM   16  C   UNL     1      57.028  86.398  46.750  1.00  0.00     0.226 C 
HETATM   17  O   UNL     1      57.185  87.546  46.354  1.00  0.00    -0.273 OA
HETATM   18  H   UNL     1      56.820  84.360  46.493  1.00  0.00     0.169 HD
BRANCH  16  19
HETATM   19  C   UNL     1      56.898  86.166  48.223  1.00  0.00     0.078 A 
HETATM   20  C   UNL     1      56.677  87.342  49.106  1.00  0.00     0.015 A 
HETATM   21  C   UNL     1      57.999  86.633  49.109  1.00  0.00     0.015 A 
ENDBRANCH  16  19
ENDBRANCH  11  15
ENDBRANCH   7   9
ENDBRANCH   3   7
BRANCH   5  22
HETATM   22  N   UNL     1      60.232  84.034  37.293  1.00  0.00    -0.341 N 
HETATM   23  H   UNL     1      60.888  83.592  36.654  1.00  0.00     0.167 HD
BRANCH  22  24
HETATM   24  C   UNL     1      59.538  85.108  36.698  1.00  0.00     0.034 A 
HETATM   25  C   UNL     1      58.143  85.122  36.693  1.00  0.00     0.045 A 
HETATM   26  C   UNL     1      57.458  86.185  36.106  1.00  0.00     0.050 A 
HETATM   27  C   UNL     1      58.168  87.234  35.522  1.00  0.00     0.016 A 
HETATM   28  C   UNL     1      59.562  87.221  35.526  1.00  0.00     0.003 A 
HETATM   29  C   UNL     1      60.248  86.158  36.114  1.00  0.00     0.029 A 
BRANCH  26  30
HETATM   30  C   UNL     1      55.966  86.200  36.101  1.00  0.00     0.417 C 
HETATM   31  F   UNL     1      55.429  86.842  35.022  1.00  0.00    -0.166 F 
HETATM   32  F   UNL     1      55.408  84.954  36.088  1.00  0.00    -0.166 F 
HETATM   33  F   UNL     1      55.444  86.824  37.197  1.00  0.00    -0.166 F 
ENDBRANCH  26  30
ENDBRANCH  22  24
ENDBRANCH   5  22
TORSDOF 7
ENDMDL
MODEL 6
REMARK VINA RESULT:      -7.2      6.337     11.607
REMARK  7 active torsions:
REMARK  status: ('A' for Active; 'I' for Inactive)
REMARK       I    between atoms: N_5  and  C_13 
REMARK    1  A    between atoms: N_5  and  C_14 
REMARK    2  A    between atoms: N_6  and  C_17 
REMARK    3  A    between atoms: N_6  and  C_20 
REMARK    4  A    between atoms: N_7  and  C_21 
REMARK    5  A    between atoms: N_7  and  C_23 
REMARK    6  A    between atoms: C_10  and  C_13 
REMARK    7  A    between atoms: C_24  and  C_29 
ROOT
HETATM    1  N   UNL     1      55.755  84.402  41.513  1.00  0.00    -0.224 NA
HETATM    2  N   UNL     1      55.825  84.914  43.867  1.00  0.00    -0.224 NA
HETATM    3  C   UNL     1      57.042  84.798  41.427  1.00  0.00     0.133 A 
HETATM    4  C   UNL     1      57.777  85.257  42.501  1.00  0.00     0.100 A 
HETATM    5  C   UNL     1      57.114  85.297  43.715  1.00  0.00     0.133 A 
HETATM    6  C   UNL     1      55.217  84.485  42.745  1.00  0.00     0.237 A 
ENDROOT
BRANCH   3   7
HETATM    7  N   UNL     1      57.690  84.745  40.168  1.00  0.00    -0.341 N 
HETATM    8  H   UNL     1      58.647  84.408  40.219  1.00  0.00     0.167 HD
BRANCH   7   9
HETATM    9  C   UNL     1      57.262  85.061  38.868  1.00  0.00     0.035 A 
HETATM   10  C   UNL     1      58.193  85.214  37.838  1.00  0.00     0.059 A 
HETATM   11  C   UNL     1      57.767  85.526  36.547  1.00  0.00     0.036 A 
HETATM   12  C   UNL     1      56.407  85.687  36.281  1.00  0.00     0.029 A 
HETATM   13  C   UNL     1      55.473  85.534  37.306  1.00  0.00     0.004 A 
HETATM   14  C   UNL     1      55.900  85.223  38.597  1.00  0.00     0.029 A 
BRANCH  11  15
HETATM   15  N   UNL     1      58.701  85.677  35.521  1.00  0.00    -0.327 N 
HETATM   16  C   UNL     1      58.890  86.779  34.684  1.00  0.00     0.226 C 
HETATM   17  O   UNL     1      58.273  87.837  34.685  1.00  0.00    -0.273 OA
HETATM   18  H   UNL     1      59.311  84.877  35.369  1.00  0.00     0.169 HD
BRANCH  16  19
HETATM   19  C   UNL     1      59.991  86.600  33.686  1.00  0.00     0.078 A 
HETATM   20  C   UNL     1      59.899  87.333  32.395  1.00  0.00     0.015 A 
HETATM   21  C   UNL     1      59.693  85.848  32.436  1.00  0.00     0.015 A 
ENDBRANCH  16  19
ENDBRANCH  11  15
ENDBRANCH   7   9
ENDBRANCH   3   7
BRANCH   5  22
HETATM   22  N   UNL     1      57.829  85.759  44.836  1.00  0.00    -0.341 N 
HETATM   23  H   UNL     1      58.586  85.136  45.107  1.00  0.00     0.167 HD
BRANCH  22  24
HETATM   24  C   UNL     1      57.528  86.708  45.835  1.00  0.00     0.034 A 
HETATM   25  C   UNL     1      57.307  88.041  45.489  1.00  0.00     0.045 A 
HETATM   26  C   UNL     1      57.008  88.979  46.477  1.00  0.00     0.050 A 
HETATM   27  C   UNL     1      56.930  88.583  47.813  1.00  0.00     0.016 A 
HETATM   28  C   UNL     1      57.152  87.251  48.160  1.00  0.00     0.003 A 
HETATM   29  C   UNL     1      57.450  86.313  47.171  1.00  0.00     0.029 A 
BRANCH  26  30
HETATM   30  C   UNL     1      56.772  90.404  46.107  1.00  0.00     0.417 C 
HETATM   31  F   UNL     1      56.861  91.266  47.162  1.00  0.00    -0.166 F 
HETATM   32  F   UNL     1      57.655  90.882  45.182  1.00  0.00    -0.166 F 
HETATM   33  F   UNL     1      55.533  90.609  45.571  1.00  0.00    -0.166 F 
ENDBRANCH  26  30
ENDBRANCH  22  24
ENDBRANCH   5  22
TORSDOF 7
ENDMDL
MODEL 7
REMARK VINA RESULT:      -7.1      4.073      6.267
REMARK  7 active torsions:
REMARK  status: ('A' for Active; 'I' for Inactive)
REMARK       I    between atoms: N_5  and  C_13 
REMARK    1  A    between atoms: N_5  and  C_14 
REMARK    2  A    between atoms: N_6  and  C_17 
REMARK    3  A    between atoms: N_6  and  C_20 
REMARK    4  A    between atoms: N_7  and  C_21 
REMARK    5  A    between atoms: N_7  and  C_23 
REMARK    6  A    between atoms: C_10  and  C_13 
REMARK    7  A    between atoms: C_24  and  C_29 
ROOT
HETATM    1  N   UNL     1      61.555  82.175  37.048  1.00  0.00    -0.224 NA
HETATM    2  N   UNL     1      60.776  83.552  35.231  1.00  0.00    -0.224 NA
HETATM    3  C   UNL     1      61.248  83.181  37.893  1.00  0.00     0.133 A 
HETATM    4  C   UNL     1      60.709  84.385  37.487  1.00  0.00     0.100 A 
HETATM    5  C   UNL     1      60.490  84.523  36.129  1.00  0.00     0.133 A 
HETATM    6  C   UNL     1      61.298  82.424  35.750  1.00  0.00     0.237 A 
ENDROOT
BRANCH   3   7
HETATM    7  N   UNL     1      61.486  83.006  39.278  1.00  0.00    -0.341 N 
HETATM    8  H   UNL     1      61.997  82.156  39.497  1.00  0.00     0.167 HD
BRANCH   7   9
HETATM    9  C   UNL     1      61.159  83.783  40.402  1.00  0.00     0.035 A 
HETATM   10  C   UNL     1      59.822  84.059  40.702  1.00  0.00     0.059 A 
HETATM   11  C   UNL     1      59.499  84.829  41.819  1.00  0.00     0.036 A 
HETATM   12  C   UNL     1      60.510  85.327  42.641  1.00  0.00     0.029 A 
HETATM   13  C   UNL     1      61.846  85.054  42.345  1.00  0.00     0.004 A 
HETATM   14  C   UNL     1      62.169  84.285  41.227  1.00  0.00     0.029 A 
BRANCH  11  15
HETATM   15  N   UNL     1      58.162  85.101  42.115  1.00  0.00    -0.327 N 
HETATM   16  C   UNL     1      57.566  85.218  43.373  1.00  0.00     0.226 C 
HETATM   17  O   UNL     1      58.098  85.106  44.469  1.00  0.00    -0.273 OA
HETATM   18  H   UNL     1      57.555  85.222  41.308  1.00  0.00     0.169 HD
BRANCH  16  19
HETATM   19  C   UNL     1      56.100  85.519  43.322  1.00  0.00     0.078 A 
HETATM   20  C   UNL     1      55.172  84.434  42.903  1.00  0.00     0.015 A 
HETATM   21  C   UNL     1      55.442  85.593  41.989  1.00  0.00     0.015 A 
ENDBRANCH  16  19
ENDBRANCH  11  15
ENDBRANCH   7   9
ENDBRANCH   3   7
BRANCH   5  22
HETATM   22  N   UNL     1      59.941  85.737  35.673  1.00  0.00    -0.341 N 
HETATM   23  H   UNL     1      60.648  86.444  35.485  1.00  0.00     0.167 HD
BRANCH  22  24
HETATM   24  C   UNL     1      58.639  86.277  35.730  1.00  0.00     0.034 A 
HETATM   25  C   UNL     1      57.728  85.807  36.676  1.00  0.00     0.045 A 
HETATM   26  C   UNL     1      56.442  86.342  36.732  1.00  0.00     0.050 A 
HETATM   27  C   UNL     1      56.066  87.348  35.842  1.00  0.00     0.016 A 
HETATM   28  C   UNL     1      56.976  87.819  34.896  1.00  0.00     0.003 A 
HETATM   29  C   UNL     1      58.263  87.283  34.840  1.00  0.00     0.029 A 
BRANCH  26  30
HETATM   30  C   UNL     1      55.467  85.839  37.744  1.00  0.00     0.417 C 
HETATM   31  F   UNL     1      54.242  85.538  37.221  1.00  0.00    -0.166 F 
HETATM   32  F   UNL     1      55.875  84.700  38.375  1.00  0.00    -0.166 F 
HETATM   33  F   UNL     1      55.229  86.744  38.738  1.00  0.00    -0.166 F 
ENDBRANCH  26  30
ENDBRANCH  22  24
ENDBRANCH   5  22
TORSDOF 7
ENDMDL
MODEL 8
REMARK VINA RESULT:      -6.9      6.577     11.561
REMARK  7 active torsions:
REMARK  status: ('A' for Active; 'I' for Inactive)
REMARK       I    between atoms: N_5  and  C_13 
REMARK    1  A    between atoms: N_5  and  C_14 
REMARK    2  A    between atoms: N_6  and  C_17 
REMARK    3  A    between atoms: N_6  and  C_20 
REMARK    4  A    between atoms: N_7  and  C_21 
REMARK    5  A    between atoms: N_7  and  C_23 
REMARK    6  A    between atoms: C_10  and  C_13 
REMARK    7  A    between atoms: C_24  and  C_29 
ROOT
HETATM    1  N   UNL     1      55.714  84.409  41.440  1.00  0.00    -0.224 NA
HETATM    2  N   UNL     1      55.965  84.902  43.786  1.00  0.00    -0.224 NA
HETATM    3  C   UNL     1      56.994  84.797  41.260  1.00  0.00     0.133 A 
HETATM    4  C   UNL     1      57.811  85.243  42.279  1.00  0.00     0.100 A 
HETATM    5  C   UNL     1      57.241  85.278  43.540  1.00  0.00     0.133 A 
HETATM    6  C   UNL     1      55.271  84.486  42.709  1.00  0.00     0.237 A 
ENDROOT
BRANCH   3   7
HETATM    7  N   UNL     1      57.544  84.750  39.956  1.00  0.00    -0.341 N 
HETATM    8  H   UNL     1      58.447  84.285  39.914  1.00  0.00     0.167 HD
BRANCH   7   9
HETATM    9  C   UNL     1      57.080  85.214  38.714  1.00  0.00     0.035 A 
HETATM   10  C   UNL     1      57.975  85.421  37.660  1.00  0.00     0.059 A 
HETATM   11  C   UNL     1      57.513  85.880  36.428  1.00  0.00     0.036 A 
HETATM   12  C   UNL     1      56.154  86.134  36.242  1.00  0.00     0.029 A 
HETATM   13  C   UNL     1      55.257  85.929  37.290  1.00  0.00     0.004 A 
HETATM   14  C   UNL     1      55.720  85.470  38.524  1.00  0.00     0.029 A 
BRANCH  11  15
HETATM   15  N   UNL     1      58.411  86.085  35.378  1.00  0.00    -0.327 N 
HETATM   16  C   UNL     1      59.409  87.056  35.275  1.00  0.00     0.226 C 
HETATM   17  O   UNL     1      59.698  87.924  36.089  1.00  0.00    -0.273 OA
HETATM   18  H   UNL     1      58.312  85.445  34.593  1.00  0.00     0.169 HD
BRANCH  16  19
HETATM   19  C   UNL     1      60.193  86.986  34.002  1.00  0.00     0.078 A 
HETATM   20  C   UNL     1      61.281  87.978  33.788  1.00  0.00     0.015 A 
HETATM   21  C   UNL     1      60.008  88.070  33.000  1.00  0.00     0.015 A 
ENDBRANCH  16  19
ENDBRANCH  11  15
ENDBRANCH   7   9
ENDBRANCH   3   7
BRANCH   5  22
HETATM   22  N   UNL     1      58.042  85.726  44.608  1.00  0.00    -0.341 N 
HETATM   23  H   UNL     1      58.810  85.093  44.819  1.00  0.00     0.167 HD
BRANCH  22  24
HETATM   24  C   UNL     1      57.826  86.674  45.630  1.00  0.00     0.034 A 
HETATM   25  C   UNL     1      57.349  86.262  46.874  1.00  0.00     0.045 A 
HETATM   26  C   UNL     1      57.137  87.199  47.885  1.00  0.00     0.050 A 
HETATM   27  C   UNL     1      57.404  88.548  47.652  1.00  0.00     0.016 A 
HETATM   28  C   UNL     1      57.881  88.961  46.408  1.00  0.00     0.003 A 
HETATM   29  C   UNL     1      58.092  88.023  45.397  1.00  0.00     0.029 A 
BRANCH  26  30
HETATM   30  C   UNL     1      56.626  86.759  49.216  1.00  0.00     0.417 C 
HETATM   31  F   UNL     1      55.880  85.617  49.166  1.00  0.00    -0.166 F 
HETATM   32  F   UNL     1      57.615  86.499  50.122  1.00  0.00    -0.166 F 
HETATM   33  F   UNL     1      55.825  87.694  49.806  1.00  0.00    -0.166 F 
ENDBRANCH  26  30
ENDBRANCH  22  24
ENDBRANCH   5  22
TORSDOF 7
ENDMDL
MODEL 9
REMARK VINA RESULT:      -6.9      8.841     12.065
REMARK  7 active torsions:
REMARK  status: ('A' for Active; 'I' for Inactive)
REMARK       I    between atoms: N_5  and  C_13 
REMARK    1  A    between atoms: N_5  and  C_14 
REMARK    2  A    between atoms: N_6  and  C_17 
REMARK    3  A    between atoms: N_6  and  C_20 
REMARK    4  A    between atoms: N_7  and  C_21 
REMARK    5  A    between atoms: N_7  and  C_23 
REMARK    6  A    between atoms: C_10  and  C_13 
REMARK    7  A    between atoms: C_24  and  C_29 
ROOT
HETATM    1  N   UNL     1      56.568  89.386  48.086  1.00  0.00    -0.224 NA
HETATM    2  N   UNL     1      57.421  87.135  48.189  1.00  0.00    -0.224 NA
HETATM    3  C   UNL     1      56.631  89.309  46.740  1.00  0.00     0.133 A 
HETATM    4  C   UNL     1      57.071  88.194  46.057  1.00  0.00     0.100 A 
HETATM    5  C   UNL     1      57.461  87.120  46.837  1.00  0.00     0.133 A 
HETATM    6  C   UNL     1      56.973  88.280  48.738  1.00  0.00     0.237 A 
ENDROOT
BRANCH   3   7
HETATM    7  N   UNL     1      56.226  90.427  45.973  1.00  0.00    -0.341 N 
HETATM    8  H   UNL     1      55.217  90.539  45.921  1.00  0.00     0.167 HD
BRANCH   7   9
HETATM    9  C   UNL     1      56.947  91.412  45.277  1.00  0.00     0.035 A 
HETATM   10  C   UNL     1      56.361  92.650  44.999  1.00  0.00     0.059 A 
HETATM   11  C   UNL     1      57.079  93.626  44.310  1.00  0.00     0.036 A 
HETATM   12  C   UNL     1      58.387  93.370  43.897  1.00  0.00     0.029 A 
HETATM   13  C   UNL     1      58.976  92.137  44.172  1.00  0.00     0.004 A 
HETATM   14  C   UNL     1      58.257  91.159  44.861  1.00  0.00     0.029 A 
BRANCH  11  15
HETATM   15  N   UNL     1      56.490  94.862  44.034  1.00  0.00    -0.327 N 
HETATM   16  C   UNL     1      56.741  96.091  44.647  1.00  0.00     0.226 C 
HETATM   17  O   UNL     1      57.532  96.332  45.550  1.00  0.00    -0.273 OA
HETATM   18  H   UNL     1      55.788  94.852  43.298  1.00  0.00     0.169 HD
BRANCH  16  19
HETATM   19  C   UNL     1      55.924  97.219  44.099  1.00  0.00     0.078 A 
HETATM   20  C   UNL     1      56.387  97.885  42.851  1.00  0.00     0.015 A 
HETATM   21  C   UNL     1      56.486  98.596  44.169  1.00  0.00     0.015 A 
ENDBRANCH  16  19
ENDBRANCH  11  15
ENDBRANCH   7   9
ENDBRANCH   3   7
BRANCH   5  22
HETATM   22  N   UNL     1      57.916  85.962  46.177  1.00  0.00    -0.341 N 
HETATM   23  H   UNL     1      58.448  85.344  46.786  1.00  0.00     0.167 HD
BRANCH  22  24
HETATM   24  C   UNL     1      58.067  85.637  44.813  1.00  0.00     0.034 A 
HETATM   25  C   UNL     1      56.945  85.361  44.032  1.00  0.00     0.045 A 
HETATM   26  C   UNL     1      57.095  85.042  42.683  1.00  0.00     0.050 A 
HETATM   27  C   UNL     1      58.368  84.998  42.115  1.00  0.00     0.016 A 
HETATM   28  C   UNL     1      59.491  85.274  42.895  1.00  0.00     0.003 A 
HETATM   29  C   UNL     1      59.340  85.593  44.245  1.00  0.00     0.029 A 
BRANCH  26  30
HETATM   30  C   UNL     1      55.895  84.747  41.848  1.00  0.00     0.417 C 
HETATM   31  F   UNL     1      55.242  85.864  41.414  1.00  0.00    -0.166 F 
HETATM   32  F   UNL     1      56.179  84.037  40.716  1.00  0.00    -0.166 F 
HETATM   33  F   UNL     1      54.958  84.011  42.516  1.00  0.00    -0.166 F 
ENDBRANCH  26  30
ENDBRANCH  22  24
ENDBRANCH   5  22
TORSDOF 7
ENDMDL
