MODEL 1
REMARK VINA RESULT:      -7.8      0.000      0.000
REMARK  7 active torsions:
REMARK  status: ('A' for Active; 'I' for Inactive)
REMARK       I    between atoms: N_5  and  C_13 
REMARK    1  A    between atoms: N_5  and  C_14 
REMARK    2  A    between atoms: N_6  and  C_17 
REMARK    3  A    between atoms: N_6  and  C_20 
REMARK    4  A    between atoms: N_7  and  C_21 
REMARK    5  A    between atoms: N_7  and  C_23 
REMARK    6  A    between atoms: C_10  and  C_13 
REMARK    7  A    between atoms: C_24  and  C_29 
ROOT
HETATM    1  N   UNL     1      59.605  88.026  34.099  1.00  0.00    -0.224 NA
HETATM    2  N   UNL     1      61.099  86.291  33.348  1.00  0.00    -0.224 NA
HETATM    3  C   UNL     1      59.156  87.178  35.048  1.00  0.00     0.133 A 
HETATM    4  C   UNL     1      59.624  85.889  35.207  1.00  0.00     0.100 A 
HETATM    5  C   UNL     1      60.608  85.489  34.321  1.00  0.00     0.133 A 
HETATM    6  C   UNL     1      60.562  87.524  33.295  1.00  0.00     0.237 A 
ENDROOT
BRANCH   3   7
HETATM    7  N   UNL     1      58.148  87.621  35.938  1.00  0.00    -0.341 N 
HETATM    8  H   UNL     1      58.327  88.543  36.326  1.00  0.00     0.167 HD
BRANCH   7   9
HETATM    9  C   UNL     1      56.950  87.036  36.380  1.00  0.00     0.035 A 
HETATM   10  C   UNL     1      56.826  86.596  37.700  1.00  0.00     0.059 A 
HETATM   11  C   UNL     1      55.635  86.017  38.138  1.00  0.00     0.036 A 
HETATM   12  C   UNL     1      54.562  85.876  37.257  1.00  0.00     0.029 A 
HETATM   13  C   UNL     1      54.681  86.313  35.938  1.00  0.00     0.004 A 
HETATM   14  C   UNL     1      55.873  86.892  35.500  1.00  0.00     0.029 A 
BRANCH  11  15
HETATM   15  N   UNL     1      55.516  85.580  39.458  1.00  0.00    -0.327 N 
HETATM   16  C   UNL     1      56.446  84.865  40.216  1.00  0.00     0.226 C 
HETATM   17  O   UNL     1      57.555  84.479  39.873  1.00  0.00    -0.273 OA
HETATM   18  H   UNL     1      54.635  85.811  39.913  1.00  0.00     0.169 HD
BRANCH  16  19
HETATM   19  C   UNL     1      55.986  84.560  41.608  1.00  0.00     0.078 A 
HETATM   20  C   UNL     1      55.201  85.594  42.334  1.00  0.00     0.015 A 
HETATM   21  C   UNL     1      56.616  85.299  42.736  1.00  0.00     0.015 A 
ENDBRANCH  16  19
ENDBRANCH  11  15
ENDBRANCH   7   9
ENDBRANCH   3   7
BRANCH   5  22
HETATM   22  N   UNL     1      61.113  84.181  34.451  1.00  0.00    -0.341 N 
HETATM   23  H   UNL     1      62.102  84.161  34.687  1.00  0.00     0.167 HD
BRANCH  22  24
HETATM   24  C   UNL     1      60.636  82.926  34.018  1.00  0.00     0.034 A 
HETATM   25  C   UNL     1      59.733  82.849  32.958  1.00  0.00     0.045 A 
HETATM   26  C   UNL     1      59.263  81.608  32.530  1.00  0.00     0.050 A 
HETATM   27  C   UNL     1      59.697  80.443  33.161  1.00  0.00     0.016 A 
HETATM   28  C   UNL     1      60.600  80.518  34.221  1.00  0.00     0.003 A 
HETATM   29  C   UNL     1      61.070  81.760  34.649  1.00  0.00     0.029 A 
BRANCH  26  30
HETATM   30  C   UNL     1      58.297  81.526  31.396  1.00  0.00     0.417 C 
HETATM   31  F   UNL     1      58.755  80.798  30.337  1.00  0.00    -0.166 F 
HETATM   32  F   UNL     1      57.105  80.951  31.735  1.00  0.00    -0.166 F 
HETATM   33  F   UNL     1      57.979  82.753  30.887  1.00  0.00    -0.166 F 
ENDBRANCH  26  30
ENDBRANCH  22  24
ENDBRANCH   5  22
TORSDOF 7
ENDMDL
MODEL 2
REMARK VINA RESULT:      -7.5      4.185      8.652
REMARK  7 active torsions:
REMARK  status: ('A' for Active; 'I' for Inactive)
REMARK       I    between atoms: N_5  and  C_13 
REMARK    1  A    between atoms: N_5  and  C_14 
REMARK    2  A    between atoms: N_6  and  C_17 
REMARK    3  A    between atoms: N_6  and  C_20 
REMARK    4  A    between atoms: N_7  and  C_21 
REMARK    5  A    between atoms: N_7  and  C_23 
REMARK    6  A    between atoms: C_10  and  C_13 
REMARK    7  A    between atoms: C_24  and  C_29 
ROOT
HETATM    1  N   UNL     1      60.759  82.449  32.396  1.00  0.00    -0.224 NA
HETATM    2  N   UNL     1      59.670  84.527  32.943  1.00  0.00    -0.224 NA
HETATM    3  C   UNL     1      61.048  82.298  33.705  1.00  0.00     0.133 A 
HETATM    4  C   UNL     1      60.686  83.206  34.679  1.00  0.00     0.100 A 
HETATM    5  C   UNL     1      59.990  84.319  34.241  1.00  0.00     0.133 A 
HETATM    6  C   UNL     1      60.079  83.570  32.089  1.00  0.00     0.237 A 
ENDROOT
BRANCH   3   7
HETATM    7  N   UNL     1      61.762  81.147  34.119  1.00  0.00    -0.341 N 
HETATM    8  H   UNL     1      62.766  81.223  33.980  1.00  0.00     0.167 HD
BRANCH   7   9
HETATM    9  C   UNL     1      61.352  79.930  34.687  1.00  0.00     0.035 A 
HETATM   10  C   UNL     1      60.708  78.969  33.904  1.00  0.00     0.059 A 
HETATM   11  C   UNL     1      60.302  77.760  34.469  1.00  0.00     0.036 A 
HETATM   12  C   UNL     1      60.539  77.507  35.821  1.00  0.00     0.029 A 
HETATM   13  C   UNL     1      61.182  78.464  36.607  1.00  0.00     0.004 A 
HETATM   14  C   UNL     1      61.587  79.673  36.041  1.00  0.00     0.029 A 
BRANCH  11  15
HETATM   15  N   UNL     1      59.659  76.803  33.683  1.00  0.00    -0.327 N 
HETATM   16  C   UNL     1      58.288  76.569  33.559  1.00  0.00     0.226 C 
HETATM   17  O   UNL     1      57.373  77.161  34.117  1.00  0.00    -0.273 OA
HETATM   18  H   UNL     1      60.277  76.201  33.141  1.00  0.00     0.169 HD
BRANCH  16  19
HETATM   19  C   UNL     1      57.946  75.454  32.621  1.00  0.00     0.078 A 
HETATM   20  C   UNL     1      59.053  74.791  31.880  1.00  0.00     0.015 A 
HETATM   21  C   UNL     1      58.095  75.693  31.159  1.00  0.00     0.015 A 
ENDBRANCH  16  19
ENDBRANCH  11  15
ENDBRANCH   7   9
ENDBRANCH   3   7
BRANCH   5  22
HETATM   22  N   UNL     1      59.601  85.269  35.204  1.00  0.00    -0.341 N 
HETATM   23  H   UNL     1      60.195  85.260  36.031  1.00  0.00     0.167 HD
BRANCH  22  24
HETATM   24  C   UNL     1      58.406  85.990  35.406  1.00  0.00     0.034 A 
HETATM   25  C   UNL     1      57.457  85.527  36.318  1.00  0.00     0.045 A 
HETATM   26  C   UNL     1      56.276  86.241  36.519  1.00  0.00     0.050 A 
HETATM   27  C   UNL     1      56.044  87.419  35.807  1.00  0.00     0.016 A 
HETATM   28  C   UNL     1      56.992  87.882  34.896  1.00  0.00     0.003 A 
HETATM   29  C   UNL     1      58.174  87.167  34.695  1.00  0.00     0.029 A 
BRANCH  26  30
HETATM   30  C   UNL     1      55.261  85.746  37.493  1.00  0.00     0.417 C 
HETATM   31  F   UNL     1      55.146  86.526  38.608  1.00  0.00    -0.166 F 
HETATM   32  F   UNL     1      53.999  85.674  36.978  1.00  0.00    -0.166 F 
HETATM   33  F   UNL     1      55.542  84.491  37.952  1.00  0.00    -0.166 F 
ENDBRANCH  26  30
ENDBRANCH  22  24
ENDBRANCH   5  22
TORSDOF 7
ENDMDL
MODEL 3
REMARK VINA RESULT:      -7.4      4.181      8.343
REMARK  7 active torsions:
REMARK  status: ('A' for Active; 'I' for Inactive)
REMARK       I    between atoms: N_5  and  C_13 
REMARK    1  A    between atoms: N_5  and  C_14 
REMARK    2  A    between atoms: N_6  and  C_17 
REMARK    3  A    between atoms: N_6  and  C_20 
REMARK    4  A    between atoms: N_7  and  C_21 
REMARK    5  A    between atoms: N_7  and  C_23 
REMARK    6  A    between atoms: C_10  and  C_13 
REMARK    7  A    between atoms: C_24  and  C_29 
ROOT
HETATM    1  N   UNL     1      61.582  82.151  37.057  1.00  0.00    -0.224 NA
HETATM    2  N   UNL     1      60.886  84.263  37.985  1.00  0.00    -0.224 NA
HETATM    3  C   UNL     1      61.184  82.594  35.846  1.00  0.00     0.133 A 
HETATM    4  C   UNL     1      60.636  83.842  35.628  1.00  0.00     0.100 A 
HETATM    5  C   UNL     1      60.507  84.649  36.745  1.00  0.00     0.133 A 
HETATM    6  C   UNL     1      61.406  83.024  38.067  1.00  0.00     0.237 A 
ENDROOT
BRANCH   3   7
HETATM    7  N   UNL     1      61.331  81.741  34.725  1.00  0.00    -0.341 N 
HETATM    8  H   UNL     1      62.300  81.564  34.476  1.00  0.00     0.167 HD
BRANCH   7   9
HETATM    9  C   UNL     1      60.398  81.091  33.900  1.00  0.00     0.035 A 
HETATM   10  C   UNL     1      60.272  79.700  33.940  1.00  0.00     0.059 A 
HETATM   11  C   UNL     1      59.344  79.056  33.121  1.00  0.00     0.036 A 
HETATM   12  C   UNL     1      58.539  79.801  32.259  1.00  0.00     0.029 A 
HETATM   13  C   UNL     1      58.661  81.189  32.215  1.00  0.00     0.004 A 
HETATM   14  C   UNL     1      59.590  81.833  33.034  1.00  0.00     0.029 A 
BRANCH  11  15
HETATM   15  N   UNL     1      59.221  77.667  33.165  1.00  0.00    -0.327 N 
HETATM   16  C   UNL     1      58.127  76.912  33.595  1.00  0.00     0.226 C 
HETATM   17  O   UNL     1      57.054  77.321  34.019  1.00  0.00    -0.273 OA
HETATM   18  H   UNL     1      60.037  77.149  32.847  1.00  0.00     0.169 HD
BRANCH  16  19
HETATM   19  C   UNL     1      58.338  75.433  33.505  1.00  0.00     0.078 A 
HETATM   20  C   UNL     1      59.681  74.891  33.848  1.00  0.00     0.015 A 
HETATM   21  C   UNL     1      59.216  74.912  32.422  1.00  0.00     0.015 A 
ENDBRANCH  16  19
ENDBRANCH  11  15
ENDBRANCH   7   9
ENDBRANCH   3   7
BRANCH   5  22
HETATM   22  N   UNL     1      59.952  85.931  36.565  1.00  0.00    -0.341 N 
HETATM   23  H   UNL     1      60.555  86.674  36.912  1.00  0.00     0.167 HD
BRANCH  22  24
HETATM   24  C   UNL     1      58.639  86.376  36.310  1.00  0.00     0.034 A 
HETATM   25  C   UNL     1      57.588  85.954  37.125  1.00  0.00     0.045 A 
HETATM   26  C   UNL     1      56.289  86.396  36.873  1.00  0.00     0.050 A 
HETATM   27  C   UNL     1      56.041  87.260  35.807  1.00  0.00     0.016 A 
HETATM   28  C   UNL     1      57.091  87.683  34.992  1.00  0.00     0.003 A 
HETATM   29  C   UNL     1      58.390  87.241  35.244  1.00  0.00     0.029 A 
BRANCH  26  30
HETATM   30  C   UNL     1      55.165  85.944  37.743  1.00  0.00     0.417 C 
HETATM   31  F   UNL     1      55.013  86.694  38.874  1.00  0.00    -0.166 F 
HETATM   32  F   UNL     1      53.948  85.979  37.125  1.00  0.00    -0.166 F 
HETATM   33  F   UNL     1      55.319  84.657  38.175  1.00  0.00    -0.166 F 
ENDBRANCH  26  30
ENDBRANCH  22  24
ENDBRANCH   5  22
TORSDOF 7
ENDMDL
MODEL 4
REMARK VINA RESULT:      -7.3      4.846      9.160
REMARK  7 active torsions:
REMARK  status: ('A' for Active; 'I' for Inactive)
REMARK       I    between atoms: N_5  and  C_13 
REMARK    1  A    between atoms: N_5  and  C_14 
REMARK    2  A    between atoms: N_6  and  C_17 
REMARK    3  A    between atoms: N_6  and  C_20 
REMARK    4  A    between atoms: N_7  and  C_21 
REMARK    5  A    between atoms: N_7  and  C_23 
REMARK    6  A    between atoms: C_10  and  C_13 
REMARK    7  A    between atoms: C_24  and  C_29 
ROOT
HETATM    1  N   UNL     1      56.777  86.663  36.505  1.00  0.00    -0.224 NA
HETATM    2  N   UNL     1      55.549  85.959  38.455  1.00  0.00    -0.224 NA
HETATM    3  C   UNL     1      57.811  85.907  36.929  1.00  0.00     0.133 A 
HETATM    4  C   UNL     1      57.790  85.160  38.089  1.00  0.00     0.100 A 
HETATM    5  C   UNL     1      56.621  85.221  38.826  1.00  0.00     0.133 A 
HETATM    6  C   UNL     1      55.694  86.644  37.305  1.00  0.00     0.237 A 
ENDROOT
BRANCH   3   7
HETATM    7  N   UNL     1      58.993  85.869  36.150  1.00  0.00    -0.341 N 
HETATM    8  H   UNL     1      59.748  86.433  36.531  1.00  0.00     0.167 HD
BRANCH   7   9
HETATM    9  C   UNL     1      59.323  85.199  34.960  1.00  0.00     0.035 A 
HETATM   10  C   UNL     1      59.285  83.803  34.904  1.00  0.00     0.059 A 
HETATM   11  C   UNL     1      59.611  83.139  33.723  1.00  0.00     0.036 A 
HETATM   12  C   UNL     1      59.977  83.867  32.591  1.00  0.00     0.029 A 
HETATM   13  C   UNL     1      60.017  85.260  32.641  1.00  0.00     0.004 A 
HETATM   14  C   UNL     1      59.691  85.925  33.824  1.00  0.00     0.029 A 
BRANCH  11  15
HETATM   15  N   UNL     1      59.570  81.744  33.671  1.00  0.00    -0.327 N 
HETATM   16  C   UNL     1      58.843  80.936  32.795  1.00  0.00     0.226 C 
HETATM   17  O   UNL     1      58.094  81.290  31.894  1.00  0.00    -0.273 OA
HETATM   18  H   UNL     1      60.140  81.268  34.367  1.00  0.00     0.169 HD
BRANCH  16  19
HETATM   19  C   UNL     1      59.036  79.469  33.024  1.00  0.00     0.078 A 
HETATM   20  C   UNL     1      60.139  79.034  33.922  1.00  0.00     0.015 A 
HETATM   21  C   UNL     1      60.240  78.817  32.441  1.00  0.00     0.015 A 
ENDBRANCH  16  19
ENDBRANCH  11  15
ENDBRANCH   7   9
ENDBRANCH   3   7
BRANCH   5  22
HETATM   22  N   UNL     1      56.558  84.472  40.017  1.00  0.00    -0.341 N 
HETATM   23  H   UNL     1      56.229  83.520  39.868  1.00  0.00     0.167 HD
BRANCH  22  24
HETATM   24  C   UNL     1      56.543  84.842  41.378  1.00  0.00     0.034 A 
HETATM   25  C   UNL     1      57.740  84.946  42.087  1.00  0.00     0.045 A 
HETATM   26  C   UNL     1      57.724  85.314  43.432  1.00  0.00     0.050 A 
HETATM   27  C   UNL     1      56.511  85.576  44.069  1.00  0.00     0.016 A 
HETATM   28  C   UNL     1      55.314  85.472  43.361  1.00  0.00     0.003 A 
HETATM   29  C   UNL     1      55.330  85.104  42.015  1.00  0.00     0.029 A 
BRANCH  26  30
HETATM   30  C   UNL     1      59.004  85.426  44.190  1.00  0.00     0.417 C 
HETATM   31  F   UNL     1      59.983  86.097  43.516  1.00  0.00    -0.166 F 
HETATM   32  F   UNL     1      58.877  86.082  45.381  1.00  0.00    -0.166 F 
HETATM   33  F   UNL     1      59.540  84.208  44.498  1.00  0.00    -0.166 F 
ENDBRANCH  26  30
ENDBRANCH  22  24
ENDBRANCH   5  22
TORSDOF 7
ENDMDL
MODEL 5
REMARK VINA RESULT:      -7.3      1.505      2.024
REMARK  7 active torsions:
REMARK  status: ('A' for Active; 'I' for Inactive)
REMARK       I    between atoms: N_5  and  C_13 
REMARK    1  A    between atoms: N_5  and  C_14 
REMARK    2  A    between atoms: N_6  and  C_17 
REMARK    3  A    between atoms: N_6  and  C_20 
REMARK    4  A    between atoms: N_7  and  C_21 
REMARK    5  A    between atoms: N_7  and  C_23 
REMARK    6  A    between atoms: C_10  and  C_13 
REMARK    7  A    between atoms: C_24  and  C_29 
ROOT
HETATM    1  N   UNL     1      60.585  87.133  35.271  1.00  0.00    -0.224 NA
HETATM    2  N   UNL     1      61.589  85.058  34.568  1.00  0.00    -0.224 NA
HETATM    3  C   UNL     1      59.438  86.459  35.494  1.00  0.00     0.133 A 
HETATM    4  C   UNL     1      59.291  85.103  35.281  1.00  0.00     0.100 A 
HETATM    5  C   UNL     1      60.410  84.440  34.812  1.00  0.00     0.133 A 
HETATM    6  C   UNL     1      61.606  86.382  34.814  1.00  0.00     0.237 A 
ENDROOT
BRANCH   3   7
HETATM    7  N   UNL     1      58.311  87.171  35.974  1.00  0.00    -0.341 N 
HETATM    8  H   UNL     1      58.436  88.179  35.968  1.00  0.00     0.167 HD
BRANCH   7   9
HETATM    9  C   UNL     1      57.057  86.752  36.448  1.00  0.00     0.035 A 
HETATM   10  C   UNL     1      56.909  86.331  37.772  1.00  0.00     0.059 A 
HETATM   11  C   UNL     1      55.664  85.916  38.242  1.00  0.00     0.036 A 
HETATM   12  C   UNL     1      54.559  85.921  37.389  1.00  0.00     0.029 A 
HETATM   13  C   UNL     1      54.701  86.341  36.067  1.00  0.00     0.004 A 
HETATM   14  C   UNL     1      55.948  86.754  35.597  1.00  0.00     0.029 A 
BRANCH  11  15
HETATM   15  N   UNL     1      55.521  85.497  39.566  1.00  0.00    -0.327 N 
HETATM   16  C   UNL     1      56.448  84.819  40.359  1.00  0.00     0.226 C 
HETATM   17  O   UNL     1      57.576  84.457  40.052  1.00  0.00    -0.273 OA
HETATM   18  H   UNL     1      54.623  85.713  39.994  1.00  0.00     0.169 HD
BRANCH  16  19
HETATM   19  C   UNL     1      55.960  84.525  41.744  1.00  0.00     0.078 A 
HETATM   20  C   UNL     1      55.211  85.586  42.468  1.00  0.00     0.015 A 
HETATM   21  C   UNL     1      56.608  85.229  42.884  1.00  0.00     0.015 A 
ENDBRANCH  16  19
ENDBRANCH  11  15
ENDBRANCH   7   9
ENDBRANCH   3   7
BRANCH   5  22
HETATM   22  N   UNL     1      60.302  83.055  34.582  1.00  0.00    -0.341 N 
HETATM   23  H   UNL     1      60.930  82.507  35.167  1.00  0.00     0.167 HD
BRANCH  22  24
HETATM   24  C   UNL     1      59.761  82.303  33.519  1.00  0.00     0.034 A 
HETATM   25  C   UNL     1      59.634  80.918  33.636  1.00  0.00     0.045 A 
HETATM   26  C   UNL     1      59.097  80.176  32.585  1.00  0.00     0.050 A 
HETATM   27  C   UNL     1      58.687  80.817  31.417  1.00  0.00     0.016 A 
HETATM   28  C   UNL     1      58.814  82.201  31.298  1.00  0.00     0.003 A 
HETATM   29  C   UNL     1      59.351  82.944  32.350  1.00  0.00     0.029 A 
BRANCH  26  30
HETATM   30  C   UNL     1      58.962  78.695  32.710  1.00  0.00     0.417 C 
HETATM   31  F   UNL     1      57.703  78.287  33.047  1.00  0.00    -0.166 F 
HETATM   32  F   UNL     1      59.260  78.021  31.561  1.00  0.00    -0.166 F 
HETATM   33  F   UNL     1      59.785  78.171  33.666  1.00  0.00    -0.166 F 
ENDBRANCH  26  30
ENDBRANCH  22  24
ENDBRANCH   5  22
TORSDOF 7
ENDMDL
MODEL 6
REMARK VINA RESULT:      -7.3      5.133      8.665
REMARK  7 active torsions:
REMARK  status: ('A' for Active; 'I' for Inactive)
REMARK       I    between atoms: N_5  and  C_13 
REMARK    1  A    between atoms: N_5  and  C_14 
REMARK    2  A    between atoms: N_6  and  C_17 
REMARK    3  A    between atoms: N_6  and  C_20 
REMARK    4  A    between atoms: N_7  and  C_21 
REMARK    5  A    between atoms: N_7  and  C_23 
REMARK    6  A    between atoms: C_10  and  C_13 
REMARK    7  A    between atoms: C_24  and  C_29 
ROOT
HETATM    1  N   UNL     1      55.536  85.557  43.759  1.00  0.00    -0.224 NA
HETATM    2  N   UNL     1      55.716  84.969  41.429  1.00  0.00    -0.224 NA
HETATM    3  C   UNL     1      56.877  85.442  43.853  1.00  0.00     0.133 A 
HETATM    4  C   UNL     1      57.694  85.100  42.794  1.00  0.00     0.100 A 
HETATM    5  C   UNL     1      57.056  84.870  41.588  1.00  0.00     0.133 A 
HETATM    6  C   UNL     1      55.029  85.309  42.536  1.00  0.00     0.237 A 
ENDROOT
BRANCH   3   7
HETATM    7  N   UNL     1      57.497  85.683  45.104  1.00  0.00    -0.341 N 
HETATM    8  H   UNL     1      58.181  84.977  45.359  1.00  0.00     0.167 HD
BRANCH   7   9
HETATM    9  C   UNL     1      57.351  86.710  46.051  1.00  0.00     0.035 A 
HETATM   10  C   UNL     1      57.445  88.048  45.659  1.00  0.00     0.059 A 
HETATM   11  C   UNL     1      57.300  89.067  46.600  1.00  0.00     0.036 A 
HETATM   12  C   UNL     1      57.059  88.753  47.938  1.00  0.00     0.029 A 
HETATM   13  C   UNL     1      56.964  87.419  48.334  1.00  0.00     0.004 A 
HETATM   14  C   UNL     1      57.111  86.400  47.392  1.00  0.00     0.029 A 
BRANCH  11  15
HETATM   15  N   UNL     1      57.393  90.402  46.203  1.00  0.00    -0.327 N 
HETATM   16  C   UNL     1      56.396  91.208  45.648  1.00  0.00     0.226 C 
HETATM   17  O   UNL     1      55.238  90.903  45.399  1.00  0.00    -0.273 OA
HETATM   18  H   UNL     1      58.307  90.830  46.334  1.00  0.00     0.169 HD
BRANCH  16  19
HETATM   19  C   UNL     1      56.846  92.602  45.341  1.00  0.00     0.078 A 
HETATM   20  C   UNL     1      56.204  93.316  44.204  1.00  0.00     0.015 A 
HETATM   21  C   UNL     1      57.619  92.833  44.090  1.00  0.00     0.015 A 
ENDBRANCH  16  19
ENDBRANCH  11  15
ENDBRANCH   7   9
ENDBRANCH   3   7
BRANCH   5  22
HETATM   22  N   UNL     1      57.854  84.519  40.482  1.00  0.00    -0.341 N 
HETATM   23  H   UNL     1      58.773  84.176  40.752  1.00  0.00     0.167 HD
BRANCH  22  24
HETATM   24  C   UNL     1      57.776  84.836  39.110  1.00  0.00     0.034 A 
HETATM   25  C   UNL     1      56.573  85.279  38.562  1.00  0.00     0.045 A 
HETATM   26  C   UNL     1      56.498  85.594  37.206  1.00  0.00     0.050 A 
HETATM   27  C   UNL     1      57.626  85.464  36.397  1.00  0.00     0.016 A 
HETATM   28  C   UNL     1      58.830  85.021  36.943  1.00  0.00     0.003 A 
HETATM   29  C   UNL     1      58.905  84.707  38.301  1.00  0.00     0.029 A 
BRANCH  26  30
HETATM   30  C   UNL     1      55.210  86.068  36.620  1.00  0.00     0.417 C 
HETATM   31  F   UNL     1      54.744  85.277  35.609  1.00  0.00    -0.166 F 
HETATM   32  F   UNL     1      54.189  86.130  37.524  1.00  0.00    -0.166 F 
HETATM   33  F   UNL     1      55.306  87.322  36.088  1.00  0.00    -0.166 F 
ENDBRANCH  26  30
ENDBRANCH  22  24
ENDBRANCH   5  22
TORSDOF 7
ENDMDL
MODEL 7
REMARK VINA RESULT:      -7.1      4.825      8.562
REMARK  7 active torsions:
REMARK  status: ('A' for Active; 'I' for Inactive)
REMARK       I    between atoms: N_5  and  C_13 
REMARK    1  A    between atoms: N_5  and  C_14 
REMARK    2  A    between atoms: N_6  and  C_17 
REMARK    3  A    between atoms: N_6  and  C_20 
REMARK    4  A    between atoms: N_7  and  C_21 
REMARK    5  A    between atoms: N_7  and  C_23 
REMARK    6  A    between atoms: C_10  and  C_13 
REMARK    7  A    between atoms: C_24  and  C_29 
ROOT
HETATM    1  N   UNL     1      61.860  81.771  39.948  1.00  0.00    -0.224 NA
HETATM    2  N   UNL     1      61.147  82.584  42.101  1.00  0.00    -0.224 NA
HETATM    3  C   UNL     1      61.671  83.013  39.457  1.00  0.00     0.133 A 
HETATM    4  C   UNL     1      61.229  84.078  40.216  1.00  0.00     0.100 A 
HETATM    5  C   UNL     1      60.977  83.808  41.549  1.00  0.00     0.133 A 
HETATM    6  C   UNL     1      61.581  81.628  41.258  1.00  0.00     0.237 A 
ENDROOT
BRANCH   3   7
HETATM    7  N   UNL     1      61.938  83.254  38.087  1.00  0.00    -0.341 N 
HETATM    8  H   UNL     1      62.929  83.334  37.876  1.00  0.00     0.167 HD
BRANCH   7   9
HETATM    9  C   UNL     1      61.100  83.396  36.969  1.00  0.00     0.035 A 
HETATM   10  C   UNL     1      60.125  84.397  36.941  1.00  0.00     0.059 A 
HETATM   11  C   UNL     1      59.295  84.538  35.830  1.00  0.00     0.036 A 
HETATM   12  C   UNL     1      59.435  83.677  34.741  1.00  0.00     0.029 A 
HETATM   13  C   UNL     1      60.406  82.677  34.763  1.00  0.00     0.004 A 
HETATM   14  C   UNL     1      61.236  82.536  35.876  1.00  0.00     0.029 A 
BRANCH  11  15
HETATM   15  N   UNL     1      58.324  85.540  35.807  1.00  0.00    -0.327 N 
HETATM   16  C   UNL     1      56.999  85.465  36.242  1.00  0.00     0.226 C 
HETATM   17  O   UNL     1      56.423  84.503  36.733  1.00  0.00    -0.273 OA
HETATM   18  H   UNL     1      58.628  86.430  35.417  1.00  0.00     0.169 HD
BRANCH  16  19
HETATM   19  C   UNL     1      56.232  86.739  36.067  1.00  0.00     0.078 A 
HETATM   20  C   UNL     1      56.740  87.741  35.092  1.00  0.00     0.015 A 
HETATM   21  C   UNL     1      56.841  88.002  36.566  1.00  0.00     0.015 A 
ENDBRANCH  16  19
ENDBRANCH  11  15
ENDBRANCH   7   9
ENDBRANCH   3   7
BRANCH   5  22
HETATM   22  N   UNL     1      60.525  84.868  42.358  1.00  0.00    -0.341 N 
HETATM   23  H   UNL     1      61.284  85.444  42.715  1.00  0.00     0.167 HD
BRANCH  22  24
HETATM   24  C   UNL     1      59.306  85.106  43.026  1.00  0.00     0.034 A 
HETATM   25  C   UNL     1      58.098  84.996  42.337  1.00  0.00     0.045 A 
HETATM   26  C   UNL     1      56.894  85.230  42.999  1.00  0.00     0.050 A 
HETATM   27  C   UNL     1      56.896  85.575  44.350  1.00  0.00     0.016 A 
HETATM   28  C   UNL     1      58.103  85.686  45.040  1.00  0.00     0.003 A 
HETATM   29  C   UNL     1      59.308  85.452  44.377  1.00  0.00     0.029 A 
BRANCH  26  30
HETATM   30  C   UNL     1      55.602  85.112  42.262  1.00  0.00     0.417 C 
HETATM   31  F   UNL     1      54.779  86.190  42.422  1.00  0.00    -0.166 F 
HETATM   32  F   UNL     1      55.754  84.978  40.911  1.00  0.00    -0.166 F 
HETATM   33  F   UNL     1      54.869  84.030  42.657  1.00  0.00    -0.166 F 
ENDBRANCH  26  30
ENDBRANCH  22  24
ENDBRANCH   5  22
TORSDOF 7
ENDMDL
MODEL 8
REMARK VINA RESULT:      -7.1      3.585      4.153
REMARK  7 active torsions:
REMARK  status: ('A' for Active; 'I' for Inactive)
REMARK       I    between atoms: N_5  and  C_13 
REMARK    1  A    between atoms: N_5  and  C_14 
REMARK    2  A    between atoms: N_6  and  C_17 
REMARK    3  A    between atoms: N_6  and  C_20 
REMARK    4  A    between atoms: N_7  and  C_21 
REMARK    5  A    between atoms: N_7  and  C_23 
REMARK    6  A    between atoms: C_10  and  C_13 
REMARK    7  A    between atoms: C_24  and  C_29 
ROOT
HETATM    1  N   UNL     1      60.603  87.943  35.639  1.00  0.00    -0.224 NA
HETATM    2  N   UNL     1      62.032  86.045  35.236  1.00  0.00    -0.224 NA
HETATM    3  C   UNL     1      59.567  87.089  35.768  1.00  0.00     0.133 A 
HETATM    4  C   UNL     1      59.683  85.719  35.646  1.00  0.00     0.100 A 
HETATM    5  C   UNL     1      60.953  85.241  35.376  1.00  0.00     0.133 A 
HETATM    6  C   UNL     1      61.790  87.362  35.376  1.00  0.00     0.237 A 
ENDROOT
BRANCH   3   7
HETATM    7  N   UNL     1      58.281  87.613  36.043  1.00  0.00    -0.341 N 
HETATM    8  H   UNL     1      58.226  88.623  35.946  1.00  0.00     0.167 HD
BRANCH   7   9
HETATM    9  C   UNL     1      57.070  87.006  36.417  1.00  0.00     0.035 A 
HETATM   10  C   UNL     1      56.875  86.573  37.731  1.00  0.00     0.059 A 
HETATM   11  C   UNL     1      55.672  85.973  38.101  1.00  0.00     0.036 A 
HETATM   12  C   UNL     1      54.658  85.802  37.158  1.00  0.00     0.029 A 
HETATM   13  C   UNL     1      54.848  86.233  35.845  1.00  0.00     0.004 A 
HETATM   14  C   UNL     1      56.052  86.833  35.475  1.00  0.00     0.029 A 
BRANCH  11  15
HETATM   15  N   UNL     1      55.482  85.543  39.415  1.00  0.00    -0.327 N 
HETATM   16  C   UNL     1      56.395  84.897  40.251  1.00  0.00     0.226 C 
HETATM   17  O   UNL     1      57.550  84.579  39.997  1.00  0.00    -0.273 OA
HETATM   18  H   UNL     1      54.557  85.722  39.800  1.00  0.00     0.169 HD
BRANCH  16  19
HETATM   19  C   UNL     1      55.853  84.577  41.609  1.00  0.00     0.078 A 
HETATM   20  C   UNL     1      55.253  85.681  42.406  1.00  0.00     0.015 A 
HETATM   21  C   UNL     1      56.579  85.099  42.798  1.00  0.00     0.015 A 
ENDBRANCH  16  19
ENDBRANCH  11  15
ENDBRANCH   7   9
ENDBRANCH   3   7
BRANCH   5  22
HETATM   22  N   UNL     1      61.114  83.848  35.245  1.00  0.00    -0.341 N 
HETATM   23  H   UNL     1      60.800  83.497  34.344  1.00  0.00     0.167 HD
BRANCH  22  24
HETATM   24  C   UNL     1      61.310  82.817  36.187  1.00  0.00     0.034 A 
HETATM   25  C   UNL     1      61.190  83.084  37.551  1.00  0.00     0.045 A 
HETATM   26  C   UNL     1      61.383  82.064  38.482  1.00  0.00     0.050 A 
HETATM   27  C   UNL     1      61.695  80.775  38.049  1.00  0.00     0.016 A 
HETATM   28  C   UNL     1      61.816  80.507  36.685  1.00  0.00     0.003 A 
HETATM   29  C   UNL     1      61.623  81.528  35.755  1.00  0.00     0.029 A 
BRANCH  26  30
HETATM   30  C   UNL     1      61.255  82.349  39.940  1.00  0.00     0.417 C 
HETATM   31  F   UNL     1      59.961  82.433  40.371  1.00  0.00    -0.166 F 
HETATM   32  F   UNL     1      61.834  81.402  40.735  1.00  0.00    -0.166 F 
HETATM   33  F   UNL     1      61.836  83.532  40.297  1.00  0.00    -0.166 F 
ENDBRANCH  26  30
ENDBRANCH  22  24
ENDBRANCH   5  22
TORSDOF 7
ENDMDL
MODEL 9
REMARK VINA RESULT:      -7.1      3.248      5.346
REMARK  7 active torsions:
REMARK  status: ('A' for Active; 'I' for Inactive)
REMARK       I    between atoms: N_5  and  C_13 
REMARK    1  A    between atoms: N_5  and  C_14 
REMARK    2  A    between atoms: N_6  and  C_17 
REMARK    3  A    between atoms: N_6  and  C_20 
REMARK    4  A    between atoms: N_7  and  C_21 
REMARK    5  A    between atoms: N_7  and  C_23 
REMARK    6  A    between atoms: C_10  and  C_13 
REMARK    7  A    between atoms: C_24  and  C_29 
ROOT
HETATM    1  N   UNL     1      58.802  82.638  31.422  1.00  0.00    -0.224 NA
HETATM    2  N   UNL     1      58.711  80.445  32.416  1.00  0.00    -0.224 NA
HETATM    3  C   UNL     1      59.769  82.958  32.307  1.00  0.00     0.133 A 
HETATM    4  C   UNL     1      60.253  82.087  33.263  1.00  0.00     0.100 A 
HETATM    5  C   UNL     1      59.683  80.827  33.276  1.00  0.00     0.133 A 
HETATM    6  C   UNL     1      58.324  81.384  31.532  1.00  0.00     0.237 A 
ENDROOT
BRANCH   3   7
HETATM    7  N   UNL     1      60.330  84.258  32.265  1.00  0.00    -0.341 N 
HETATM    8  H   UNL     1      61.193  84.310  31.732  1.00  0.00     0.167 HD
BRANCH   7   9
HETATM    9  C   UNL     1      59.919  85.485  32.811  1.00  0.00     0.035 A 
HETATM   10  C   UNL     1      59.248  85.522  34.037  1.00  0.00     0.059 A 
HETATM   11  C   UNL     1      58.842  86.741  34.578  1.00  0.00     0.036 A 
HETATM   12  C   UNL     1      59.106  87.930  33.898  1.00  0.00     0.029 A 
HETATM   13  C   UNL     1      59.776  87.899  32.675  1.00  0.00     0.004 A 
HETATM   14  C   UNL     1      60.181  86.679  32.132  1.00  0.00     0.029 A 
BRANCH  11  15
HETATM   15  N   UNL     1      58.173  86.772  35.803  1.00  0.00    -0.327 N 
HETATM   16  C   UNL     1      56.805  86.934  36.033  1.00  0.00     0.226 C 
HETATM   17  O   UNL     1      55.917  87.079  35.203  1.00  0.00    -0.273 OA
HETATM   18  H   UNL     1      58.766  86.670  36.624  1.00  0.00     0.169 HD
BRANCH  16  19
HETATM   19  C   UNL     1      56.428  86.919  37.481  1.00  0.00     0.078 A 
HETATM   20  C   UNL     1      56.621  85.658  38.247  1.00  0.00     0.015 A 
HETATM   21  C   UNL     1      55.239  86.123  37.892  1.00  0.00     0.015 A 
ENDBRANCH  16  19
ENDBRANCH  11  15
ENDBRANCH   7   9
ENDBRANCH   3   7
BRANCH   5  22
HETATM   22  N   UNL     1      60.149  79.908  34.236  1.00  0.00    -0.341 N 
HETATM   23  H   UNL     1      60.791  80.327  34.905  1.00  0.00     0.167 HD
BRANCH  22  24
HETATM   24  C   UNL     1      60.172  78.498  34.276  1.00  0.00     0.034 A 
HETATM   25  C   UNL     1      59.306  77.762  33.468  1.00  0.00     0.045 A 
HETATM   26  C   UNL     1      59.331  76.369  33.507  1.00  0.00     0.050 A 
HETATM   27  C   UNL     1      60.222  75.710  34.355  1.00  0.00     0.016 A 
HETATM   28  C   UNL     1      61.088  76.446  35.163  1.00  0.00     0.003 A 
HETATM   29  C   UNL     1      61.063  77.840  35.124  1.00  0.00     0.029 A 
BRANCH  26  30
HETATM   30  C   UNL     1      58.405  75.581  32.642  1.00  0.00     0.417 C 
HETATM   31  F   UNL     1      57.943  76.274  31.560  1.00  0.00    -0.166 F 
HETATM   32  F   UNL     1      58.969  74.450  32.126  1.00  0.00    -0.166 F 
HETATM   33  F   UNL     1      57.291  75.162  33.311  1.00  0.00    -0.166 F 
ENDBRANCH  26  30
ENDBRANCH  22  24
ENDBRANCH   5  22
TORSDOF 7
ENDMDL
