MODEL 1
REMARK VINA RESULT:      -7.5      0.000      0.000
REMARK  7 active torsions:
REMARK  status: ('A' for Active; 'I' for Inactive)
REMARK       I    between atoms: N_5  and  C_13 
REMARK    1  A    between atoms: N_5  and  C_14 
REMARK    2  A    between atoms: N_6  and  C_17 
REMARK    3  A    between atoms: N_6  and  C_20 
REMARK    4  A    between atoms: N_7  and  C_21 
REMARK    5  A    between atoms: N_7  and  C_23 
REMARK    6  A    between atoms: C_10  and  C_13 
REMARK    7  A    between atoms: C_24  and  C_29 
ROOT
HETATM    1  N   UNL     1      60.749  82.416  32.401  1.00  0.00    -0.224 NA
HETATM    2  N   UNL     1      59.630  84.469  32.984  1.00  0.00    -0.224 NA
HETATM    3  C   UNL     1      61.061  82.259  33.705  1.00  0.00     0.133 A 
HETATM    4  C   UNL     1      60.697  83.152  34.693  1.00  0.00     0.100 A 
HETATM    5  C   UNL     1      59.974  84.254  34.275  1.00  0.00     0.133 A 
HETATM    6  C   UNL     1      60.044  83.527  32.115  1.00  0.00     0.237 A 
ENDROOT
BRANCH   3   7
HETATM    7  N   UNL     1      61.804  81.119  34.097  1.00  0.00    -0.341 N 
HETATM    8  H   UNL     1      62.800  81.203  33.917  1.00  0.00     0.167 HD
BRANCH   7   9
HETATM    9  C   UNL     1      61.429  79.902  34.690  1.00  0.00     0.035 A 
HETATM   10  C   UNL     1      60.758  78.931  33.942  1.00  0.00     0.059 A 
HETATM   11  C   UNL     1      60.388  77.723  34.531  1.00  0.00     0.036 A 
HETATM   12  C   UNL     1      60.688  77.479  35.872  1.00  0.00     0.029 A 
HETATM   13  C   UNL     1      61.358  78.445  36.623  1.00  0.00     0.004 A 
HETATM   14  C   UNL     1      61.727  79.654  36.033  1.00  0.00     0.029 A 
BRANCH  11  15
HETATM   15  N   UNL     1      59.718  76.755  33.780  1.00  0.00    -0.327 N 
HETATM   16  C   UNL     1      58.341  76.602  33.604  1.00  0.00     0.226 C 
HETATM   17  O   UNL     1      57.444  77.289  34.075  1.00  0.00    -0.273 OA
HETATM   18  H   UNL     1      60.317  76.079  33.311  1.00  0.00     0.169 HD
BRANCH  16  19
HETATM   19  C   UNL     1      57.967  75.448  32.727  1.00  0.00     0.078 A 
HETATM   20  C   UNL     1      59.041  74.784  31.940  1.00  0.00     0.015 A 
HETATM   21  C   UNL     1      58.019  75.640  31.251  1.00  0.00     0.015 A 
ENDBRANCH  16  19
ENDBRANCH  11  15
ENDBRANCH   7   9
ENDBRANCH   3   7
BRANCH   5  22
HETATM   22  N   UNL     1      59.582  85.189  35.253  1.00  0.00    -0.341 N 
HETATM   23  H   UNL     1      60.147  85.136  36.098  1.00  0.00     0.167 HD
BRANCH  22  24
HETATM   24  C   UNL     1      58.404  85.942  35.437  1.00  0.00     0.034 A 
HETATM   25  C   UNL     1      57.434  85.512  36.343  1.00  0.00     0.045 A 
HETATM   26  C   UNL     1      56.271  86.258  36.525  1.00  0.00     0.050 A 
HETATM   27  C   UNL     1      56.075  87.434  35.801  1.00  0.00     0.016 A 
HETATM   28  C   UNL     1      57.044  87.865  34.895  1.00  0.00     0.003 A 
HETATM   29  C   UNL     1      58.209  87.118  34.713  1.00  0.00     0.029 A 
BRANCH  26  30
HETATM   30  C   UNL     1      55.233  85.798  37.494  1.00  0.00     0.417 C 
HETATM   31  F   UNL     1      55.092  86.620  38.575  1.00  0.00    -0.166 F 
HETATM   32  F   UNL     1      53.984  85.704  36.952  1.00  0.00    -0.166 F 
HETATM   33  F   UNL     1      55.505  84.562  38.006  1.00  0.00    -0.166 F 
ENDBRANCH  26  30
ENDBRANCH  22  24
ENDBRANCH   5  22
TORSDOF 7
ENDMDL
MODEL 2
REMARK VINA RESULT:      -7.4      1.594      2.560
REMARK  7 active torsions:
REMARK  status: ('A' for Active; 'I' for Inactive)
REMARK       I    between atoms: N_5  and  C_13 
REMARK    1  A    between atoms: N_5  and  C_14 
REMARK    2  A    between atoms: N_6  and  C_17 
REMARK    3  A    between atoms: N_6  and  C_20 
REMARK    4  A    between atoms: N_7  and  C_21 
REMARK    5  A    between atoms: N_7  and  C_23 
REMARK    6  A    between atoms: C_10  and  C_13 
REMARK    7  A    between atoms: C_24  and  C_29 
ROOT
HETATM    1  N   UNL     1      61.561  82.296  37.040  1.00  0.00    -0.224 NA
HETATM    2  N   UNL     1      60.866  84.447  37.873  1.00  0.00    -0.224 NA
HETATM    3  C   UNL     1      61.159  82.683  35.812  1.00  0.00     0.133 A 
HETATM    4  C   UNL     1      60.610  83.919  35.539  1.00  0.00     0.100 A 
HETATM    5  C   UNL     1      60.482  84.776  36.618  1.00  0.00     0.133 A 
HETATM    6  C   UNL     1      61.387  83.213  38.010  1.00  0.00     0.237 A 
ENDROOT
BRANCH   3   7
HETATM    7  N   UNL     1      61.304  81.780  34.730  1.00  0.00    -0.341 N 
HETATM    8  H   UNL     1      62.272  81.561  34.512  1.00  0.00     0.167 HD
BRANCH   7   9
HETATM    9  C   UNL     1      60.369  81.127  33.909  1.00  0.00     0.035 A 
HETATM   10  C   UNL     1      60.251  79.735  33.946  1.00  0.00     0.059 A 
HETATM   11  C   UNL     1      59.322  79.088  33.132  1.00  0.00     0.036 A 
HETATM   12  C   UNL     1      58.507  79.830  32.277  1.00  0.00     0.029 A 
HETATM   13  C   UNL     1      58.621  81.219  32.237  1.00  0.00     0.004 A 
HETATM   14  C   UNL     1      59.551  81.866  33.051  1.00  0.00     0.029 A 
BRANCH  11  15
HETATM   15  N   UNL     1      59.207  77.697  33.173  1.00  0.00    -0.327 N 
HETATM   16  C   UNL     1      58.120  76.936  33.609  1.00  0.00     0.226 C 
HETATM   17  O   UNL     1      57.048  77.337  34.043  1.00  0.00    -0.273 OA
HETATM   18  H   UNL     1      60.024  77.185  32.848  1.00  0.00     0.169 HD
BRANCH  16  19
HETATM   19  C   UNL     1      58.340  75.458  33.514  1.00  0.00     0.078 A 
HETATM   20  C   UNL     1      59.696  74.925  33.815  1.00  0.00     0.015 A 
HETATM   21  C   UNL     1      59.187  74.942  32.404  1.00  0.00     0.015 A 
ENDBRANCH  16  19
ENDBRANCH  11  15
ENDBRANCH   7   9
ENDBRANCH   3   7
BRANCH   5  22
HETATM   22  N   UNL     1      59.926  86.048  36.381  1.00  0.00    -0.341 N 
HETATM   23  H   UNL     1      60.557  86.807  36.629  1.00  0.00     0.167 HD
BRANCH  22  24
HETATM   24  C   UNL     1      58.601  86.489  36.187  1.00  0.00     0.034 A 
HETATM   25  C   UNL     1      57.576  86.002  36.997  1.00  0.00     0.045 A 
HETATM   26  C   UNL     1      56.266  86.440  36.805  1.00  0.00     0.050 A 
HETATM   27  C   UNL     1      55.981  87.366  35.802  1.00  0.00     0.016 A 
HETATM   28  C   UNL     1      57.005  87.854  34.991  1.00  0.00     0.003 A 
HETATM   29  C   UNL     1      58.316  87.416  35.184  1.00  0.00     0.029 A 
BRANCH  26  30
HETATM   30  C   UNL     1      55.169  85.918  37.672  1.00  0.00     0.417 C 
HETATM   31  F   UNL     1      54.964  86.659  38.800  1.00  0.00    -0.166 F 
HETATM   32  F   UNL     1      53.955  85.874  37.048  1.00  0.00    -0.166 F 
HETATM   33  F   UNL     1      55.404  84.645  38.106  1.00  0.00    -0.166 F 
ENDBRANCH  26  30
ENDBRANCH  22  24
ENDBRANCH   5  22
TORSDOF 7
ENDMDL
MODEL 3
REMARK VINA RESULT:      -7.3      4.268      6.597
REMARK  7 active torsions:
REMARK  status: ('A' for Active; 'I' for Inactive)
REMARK       I    between atoms: N_5  and  C_13 
REMARK    1  A    between atoms: N_5  and  C_14 
REMARK    2  A    between atoms: N_6  and  C_17 
REMARK    3  A    between atoms: N_6  and  C_20 
REMARK    4  A    between atoms: N_7  and  C_21 
REMARK    5  A    between atoms: N_7  and  C_23 
REMARK    6  A    between atoms: C_10  and  C_13 
REMARK    7  A    between atoms: C_24  and  C_29 
ROOT
HETATM    1  N   UNL     1      56.706  86.595  36.496  1.00  0.00    -0.224 NA
HETATM    2  N   UNL     1      55.535  85.866  38.472  1.00  0.00    -0.224 NA
HETATM    3  C   UNL     1      57.778  85.891  36.918  1.00  0.00     0.133 A 
HETATM    4  C   UNL     1      57.804  85.161  38.088  1.00  0.00     0.100 A 
HETATM    5  C   UNL     1      56.643  85.181  38.840  1.00  0.00     0.133 A 
HETATM    6  C   UNL     1      55.635  86.540  37.311  1.00  0.00     0.237 A 
ENDROOT
BRANCH   3   7
HETATM    7  N   UNL     1      58.951  85.893  36.123  1.00  0.00    -0.341 N 
HETATM    8  H   UNL     1      59.686  86.492  36.489  1.00  0.00     0.167 HD
BRANCH   7   9
HETATM    9  C   UNL     1      59.293  85.224  34.936  1.00  0.00     0.035 A 
HETATM   10  C   UNL     1      59.322  83.827  34.899  1.00  0.00     0.059 A 
HETATM   11  C   UNL     1      59.660  83.164  33.720  1.00  0.00     0.036 A 
HETATM   12  C   UNL     1      59.971  83.895  32.572  1.00  0.00     0.029 A 
HETATM   13  C   UNL     1      59.944  85.289  32.605  1.00  0.00     0.004 A 
HETATM   14  C   UNL     1      59.606  85.952  33.785  1.00  0.00     0.029 A 
BRANCH  11  15
HETATM   15  N   UNL     1      59.687  81.769  33.686  1.00  0.00    -0.327 N 
HETATM   16  C   UNL     1      58.944  80.913  32.870  1.00  0.00     0.226 C 
HETATM   17  O   UNL     1      58.120  81.217  32.017  1.00  0.00    -0.273 OA
HETATM   18  H   UNL     1      60.325  81.332  34.347  1.00  0.00     0.169 HD
BRANCH  16  19
HETATM   19  C   UNL     1      59.226  79.461  33.101  1.00  0.00     0.078 A 
HETATM   20  C   UNL     1      60.261  79.094  34.105  1.00  0.00     0.015 A 
HETATM   21  C   UNL     1      60.532  78.915  32.640  1.00  0.00     0.015 A 
ENDBRANCH  16  19
ENDBRANCH  11  15
ENDBRANCH   7   9
ENDBRANCH   3   7
BRANCH   5  22
HETATM   22  N   UNL     1      56.628  84.448  40.042  1.00  0.00    -0.341 N 
HETATM   23  H   UNL     1      56.372  83.472  39.906  1.00  0.00     0.167 HD
BRANCH  22  24
HETATM   24  C   UNL     1      56.576  84.836  41.397  1.00  0.00     0.034 A 
HETATM   25  C   UNL     1      57.754  84.953  42.135  1.00  0.00     0.045 A 
HETATM   26  C   UNL     1      57.702  85.339  43.474  1.00  0.00     0.050 A 
HETATM   27  C   UNL     1      56.472  85.607  44.075  1.00  0.00     0.016 A 
HETATM   28  C   UNL     1      55.294  85.489  43.338  1.00  0.00     0.003 A 
HETATM   29  C   UNL     1      55.347  85.104  41.998  1.00  0.00     0.029 A 
BRANCH  26  30
HETATM   30  C   UNL     1      58.961  85.465  44.264  1.00  0.00     0.417 C 
HETATM   31  F   UNL     1      58.778  86.005  45.505  1.00  0.00    -0.166 F 
HETATM   32  F   UNL     1      59.589  84.272  44.484  1.00  0.00    -0.166 F 
HETATM   33  F   UNL     1      59.888  86.260  43.652  1.00  0.00    -0.166 F 
ENDBRANCH  26  30
ENDBRANCH  22  24
ENDBRANCH   5  22
TORSDOF 7
ENDMDL
MODEL 4
REMARK VINA RESULT:      -7.1      8.010     12.721
REMARK  7 active torsions:
REMARK  status: ('A' for Active; 'I' for Inactive)
REMARK       I    between atoms: N_5  and  C_13 
REMARK    1  A    between atoms: N_5  and  C_14 
REMARK    2  A    between atoms: N_6  and  C_17 
REMARK    3  A    between atoms: N_6  and  C_20 
REMARK    4  A    between atoms: N_7  and  C_21 
REMARK    5  A    between atoms: N_7  and  C_23 
REMARK    6  A    between atoms: C_10  and  C_13 
REMARK    7  A    between atoms: C_24  and  C_29 
ROOT
HETATM    1  N   UNL     1      55.743  85.557  43.821  1.00  0.00    -0.224 NA
HETATM    2  N   UNL     1      55.810  84.804  41.533  1.00  0.00    -0.224 NA
HETATM    3  C   UNL     1      57.092  85.552  43.824  1.00  0.00     0.133 A 
HETATM    4  C   UNL     1      57.859  85.191  42.735  1.00  0.00     0.100 A 
HETATM    5  C   UNL     1      57.162  84.820  41.599  1.00  0.00     0.133 A 
HETATM    6  C   UNL     1      55.175  85.176  42.661  1.00  0.00     0.237 A 
ENDROOT
BRANCH   3   7
HETATM    7  N   UNL     1      57.774  85.937  45.004  1.00  0.00    -0.341 N 
HETATM    8  H   UNL     1      58.618  85.399  45.178  1.00  0.00     0.167 HD
BRANCH   7   9
HETATM    9  C   UNL     1      57.512  86.921  45.972  1.00  0.00     0.035 A 
HETATM   10  C   UNL     1      57.544  88.275  45.626  1.00  0.00     0.059 A 
HETATM   11  C   UNL     1      57.282  89.250  46.588  1.00  0.00     0.036 A 
HETATM   12  C   UNL     1      56.987  88.877  47.899  1.00  0.00     0.029 A 
HETATM   13  C   UNL     1      56.953  87.527  48.248  1.00  0.00     0.004 A 
HETATM   14  C   UNL     1      57.216  86.551  47.287  1.00  0.00     0.029 A 
BRANCH  11  15
HETATM   15  N   UNL     1      57.315  90.601  46.238  1.00  0.00    -0.327 N 
HETATM   16  C   UNL     1      56.299  91.366  45.659  1.00  0.00     0.226 C 
HETATM   17  O   UNL     1      55.174  91.002  45.343  1.00  0.00    -0.273 OA
HETATM   18  H   UNL     1      58.194  91.077  46.427  1.00  0.00     0.169 HD
BRANCH  16  19
HETATM   19  C   UNL     1      56.679  92.793  45.418  1.00  0.00     0.078 A 
HETATM   20  C   UNL     1      56.114  93.482  44.226  1.00  0.00     0.015 A 
HETATM   21  C   UNL     1      57.565  93.101  44.262  1.00  0.00     0.015 A 
ENDBRANCH  16  19
ENDBRANCH  11  15
ENDBRANCH   7   9
ENDBRANCH   3   7
BRANCH   5  22
HETATM   22  N   UNL     1      57.908  84.445  40.466  1.00  0.00    -0.341 N 
HETATM   23  H   UNL     1      58.804  84.025  40.704  1.00  0.00     0.167 HD
BRANCH  22  24
HETATM   24  C   UNL     1      57.827  84.810  39.106  1.00  0.00     0.034 A 
HETATM   25  C   UNL     1      56.619  85.263  38.574  1.00  0.00     0.045 A 
HETATM   26  C   UNL     1      56.541  85.625  37.230  1.00  0.00     0.050 A 
HETATM   27  C   UNL     1      57.670  85.534  36.416  1.00  0.00     0.016 A 
HETATM   28  C   UNL     1      58.877  85.080  36.946  1.00  0.00     0.003 A 
HETATM   29  C   UNL     1      58.956  84.719  38.291  1.00  0.00     0.029 A 
BRANCH  26  30
HETATM   30  C   UNL     1      55.249  86.109  36.662  1.00  0.00     0.417 C 
HETATM   31  F   UNL     1      54.747  85.305  35.680  1.00  0.00    -0.166 F 
HETATM   32  F   UNL     1      54.249  86.210  37.586  1.00  0.00    -0.166 F 
HETATM   33  F   UNL     1      55.355  87.350  36.100  1.00  0.00    -0.166 F 
ENDBRANCH  26  30
ENDBRANCH  22  24
ENDBRANCH   5  22
TORSDOF 7
ENDMDL
MODEL 5
REMARK VINA RESULT:      -7.1      4.093      7.131
REMARK  7 active torsions:
REMARK  status: ('A' for Active; 'I' for Inactive)
REMARK       I    between atoms: N_5  and  C_13 
REMARK    1  A    between atoms: N_5  and  C_14 
REMARK    2  A    between atoms: N_6  and  C_17 
REMARK    3  A    between atoms: N_6  and  C_20 
REMARK    4  A    between atoms: N_7  and  C_21 
REMARK    5  A    between atoms: N_7  and  C_23 
REMARK    6  A    between atoms: C_10  and  C_13 
REMARK    7  A    between atoms: C_24  and  C_29 
ROOT
HETATM    1  N   UNL     1      55.864  87.117  35.666  1.00  0.00    -0.224 NA
HETATM    2  N   UNL     1      54.936  85.600  37.292  1.00  0.00    -0.224 NA
HETATM    3  C   UNL     1      57.085  86.861  36.180  1.00  0.00     0.133 A 
HETATM    4  C   UNL     1      57.308  85.999  37.235  1.00  0.00     0.100 A 
HETATM    5  C   UNL     1      56.186  85.386  37.763  1.00  0.00     0.133 A 
HETATM    6  C   UNL     1      54.849  86.463  36.262  1.00  0.00     0.237 A 
ENDROOT
BRANCH   3   7
HETATM    7  N   UNL     1      58.212  87.507  35.616  1.00  0.00    -0.341 N 
HETATM    8  H   UNL     1      58.574  88.265  36.188  1.00  0.00     0.167 HD
BRANCH   7   9
HETATM    9  C   UNL     1      58.927  87.297  34.425  1.00  0.00     0.035 A 
HETATM   10  C   UNL     1      59.028  86.014  33.880  1.00  0.00     0.059 A 
HETATM   11  C   UNL     1      59.736  85.808  32.697  1.00  0.00     0.036 A 
HETATM   12  C   UNL     1      60.348  86.883  32.053  1.00  0.00     0.029 A 
HETATM   13  C   UNL     1      60.250  88.166  32.592  1.00  0.00     0.004 A 
HETATM   14  C   UNL     1      59.541  88.372  33.776  1.00  0.00     0.029 A 
BRANCH  11  15
HETATM   15  N   UNL     1      59.834  84.524  32.157  1.00  0.00    -0.327 N 
HETATM   16  C   UNL     1      60.465  83.405  32.704  1.00  0.00     0.226 C 
HETATM   17  O   UNL     1      61.060  83.326  33.771  1.00  0.00    -0.273 OA
HETATM   18  H   UNL     1      59.391  84.402  31.249  1.00  0.00     0.169 HD
BRANCH  16  19
HETATM   19  C   UNL     1      60.375  82.180  31.848  1.00  0.00     0.078 A 
HETATM   20  C   UNL     1      59.073  81.867  31.199  1.00  0.00     0.015 A 
HETATM   21  C   UNL     1      59.568  81.032  32.344  1.00  0.00     0.015 A 
ENDBRANCH  16  19
ENDBRANCH  11  15
ENDBRANCH   7   9
ENDBRANCH   3   7
BRANCH   5  22
HETATM   22  N   UNL     1      56.371  84.498  38.840  1.00  0.00    -0.341 N 
HETATM   23  H   UNL     1      55.732  83.706  38.813  1.00  0.00     0.167 HD
BRANCH  22  24
HETATM   24  C   UNL     1      57.012  84.633  40.089  1.00  0.00     0.034 A 
HETATM   25  C   UNL     1      56.266  84.935  41.228  1.00  0.00     0.045 A 
HETATM   26  C   UNL     1      56.900  85.066  42.463  1.00  0.00     0.050 A 
HETATM   27  C   UNL     1      58.281  84.895  42.559  1.00  0.00     0.016 A 
HETATM   28  C   UNL     1      59.028  84.594  41.421  1.00  0.00     0.003 A 
HETATM   29  C   UNL     1      58.393  84.462  40.185  1.00  0.00     0.029 A 
BRANCH  26  30
HETATM   30  C   UNL     1      56.102  85.389  43.681  1.00  0.00     0.417 C 
HETATM   31  F   UNL     1      56.027  84.360  44.575  1.00  0.00    -0.166 F 
HETATM   32  F   UNL     1      56.597  86.444  44.394  1.00  0.00    -0.166 F 
HETATM   33  F   UNL     1      54.809  85.717  43.391  1.00  0.00    -0.166 F 
ENDBRANCH  26  30
ENDBRANCH  22  24
ENDBRANCH   5  22
TORSDOF 7
ENDMDL
MODEL 6
REMARK VINA RESULT:      -7.0      6.644     10.289
REMARK  7 active torsions:
REMARK  status: ('A' for Active; 'I' for Inactive)
REMARK       I    between atoms: N_5  and  C_13 
REMARK    1  A    between atoms: N_5  and  C_14 
REMARK    2  A    between atoms: N_6  and  C_17 
REMARK    3  A    between atoms: N_6  and  C_20 
REMARK    4  A    between atoms: N_7  and  C_21 
REMARK    5  A    between atoms: N_7  and  C_23 
REMARK    6  A    between atoms: C_10  and  C_13 
REMARK    7  A    between atoms: C_24  and  C_29 
ROOT
HETATM    1  N   UNL     1      60.746  83.018  41.235  1.00  0.00    -0.224 NA
HETATM    2  N   UNL     1      61.073  82.581  38.888  1.00  0.00    -0.224 NA
HETATM    3  C   UNL     1      60.062  84.130  40.895  1.00  0.00     0.133 A 
HETATM    4  C   UNL     1      59.844  84.527  39.591  1.00  0.00     0.100 A 
HETATM    5  C   UNL     1      60.377  83.708  38.612  1.00  0.00     0.133 A 
HETATM    6  C   UNL     1      61.218  82.301  40.197  1.00  0.00     0.237 A 
ENDROOT
BRANCH   3   7
HETATM    7  N   UNL     1      59.531  84.946  41.923  1.00  0.00    -0.341 N 
HETATM    8  H   UNL     1      60.184  85.647  42.262  1.00  0.00     0.167 HD
BRANCH   7   9
HETATM    9  C   UNL     1      58.278  84.976  42.557  1.00  0.00     0.035 A 
HETATM   10  C   UNL     1      58.194  85.103  43.946  1.00  0.00     0.059 A 
HETATM   11  C   UNL     1      56.950  85.134  44.574  1.00  0.00     0.036 A 
HETATM   12  C   UNL     1      55.782  85.039  43.816  1.00  0.00     0.029 A 
HETATM   13  C   UNL     1      55.860  84.913  42.429  1.00  0.00     0.004 A 
HETATM   14  C   UNL     1      57.106  84.881  41.801  1.00  0.00     0.029 A 
BRANCH  11  15
HETATM   15  N   UNL     1      56.871  85.262  45.962  1.00  0.00    -0.327 N 
HETATM   16  C   UNL     1      57.040  86.415  46.732  1.00  0.00     0.226 C 
HETATM   17  O   UNL     1      57.290  87.548  46.342  1.00  0.00    -0.273 OA
HETATM   18  H   UNL     1      56.671  84.400  46.466  1.00  0.00     0.169 HD
BRANCH  16  19
HETATM   19  C   UNL     1      56.885  86.188  48.204  1.00  0.00     0.078 A 
HETATM   20  C   UNL     1      56.695  87.373  49.084  1.00  0.00     0.015 A 
HETATM   21  C   UNL     1      57.991  86.617  49.103  1.00  0.00     0.015 A 
ENDBRANCH  16  19
ENDBRANCH  11  15
ENDBRANCH   7   9
ENDBRANCH   3   7
BRANCH   5  22
HETATM   22  N   UNL     1      60.177  84.078  37.268  1.00  0.00    -0.341 N 
HETATM   23  H   UNL     1      60.778  83.568  36.624  1.00  0.00     0.167 HD
BRANCH  22  24
HETATM   24  C   UNL     1      59.573  85.202  36.667  1.00  0.00     0.034 A 
HETATM   25  C   UNL     1      58.191  85.380  36.750  1.00  0.00     0.045 A 
HETATM   26  C   UNL     1      57.595  86.492  36.157  1.00  0.00     0.050 A 
HETATM   27  C   UNL     1      58.379  87.426  35.480  1.00  0.00     0.016 A 
HETATM   28  C   UNL     1      59.760  87.249  35.397  1.00  0.00     0.003 A 
HETATM   29  C   UNL     1      60.357  86.137  35.991  1.00  0.00     0.029 A 
BRANCH  26  30
HETATM   30  C   UNL     1      56.118  86.682  36.244  1.00  0.00     0.417 C 
HETATM   31  F   UNL     1      55.658  87.742  35.516  1.00  0.00    -0.166 F 
HETATM   32  F   UNL     1      55.401  85.607  35.801  1.00  0.00    -0.166 F 
HETATM   33  F   UNL     1      55.692  86.904  37.523  1.00  0.00    -0.166 F 
ENDBRANCH  26  30
ENDBRANCH  22  24
ENDBRANCH   5  22
TORSDOF 7
ENDMDL
MODEL 7
REMARK VINA RESULT:      -7.0      6.950     10.270
REMARK  7 active torsions:
REMARK  status: ('A' for Active; 'I' for Inactive)
REMARK       I    between atoms: N_5  and  C_13 
REMARK    1  A    between atoms: N_5  and  C_14 
REMARK    2  A    between atoms: N_6  and  C_17 
REMARK    3  A    between atoms: N_6  and  C_20 
REMARK    4  A    between atoms: N_7  and  C_21 
REMARK    5  A    between atoms: N_7  and  C_23 
REMARK    6  A    between atoms: C_10  and  C_13 
REMARK    7  A    between atoms: C_24  and  C_29 
ROOT
HETATM    1  N   UNL     1      55.756  84.317  41.575  1.00  0.00    -0.224 NA
HETATM    2  N   UNL     1      55.873  84.873  43.917  1.00  0.00    -0.224 NA
HETATM    3  C   UNL     1      57.025  84.758  41.445  1.00  0.00     0.133 A 
HETATM    4  C   UNL     1      57.772  85.262  42.491  1.00  0.00     0.100 A 
HETATM    5  C   UNL     1      57.143  85.299  43.722  1.00  0.00     0.133 A 
HETATM    6  C   UNL     1      55.249  84.404  42.820  1.00  0.00     0.237 A 
ENDROOT
BRANCH   3   7
HETATM    7  N   UNL     1      57.639  84.706  40.170  1.00  0.00    -0.341 N 
HETATM    8  H   UNL     1      58.581  84.325  40.189  1.00  0.00     0.167 HD
BRANCH   7   9
HETATM    9  C   UNL     1      57.194  85.071  38.889  1.00  0.00     0.035 A 
HETATM   10  C   UNL     1      58.109  85.229  37.844  1.00  0.00     0.059 A 
HETATM   11  C   UNL     1      57.667  85.590  36.572  1.00  0.00     0.036 A 
HETATM   12  C   UNL     1      56.306  85.796  36.339  1.00  0.00     0.029 A 
HETATM   13  C   UNL     1      55.389  85.639  37.378  1.00  0.00     0.004 A 
HETATM   14  C   UNL     1      55.833  85.278  38.650  1.00  0.00     0.029 A 
BRANCH  11  15
HETATM   15  N   UNL     1      58.584  85.746  35.532  1.00  0.00    -0.327 N 
HETATM   16  C   UNL     1      59.423  86.834  35.279  1.00  0.00     0.226 C 
HETATM   17  O   UNL     1      59.521  87.871  35.922  1.00  0.00    -0.273 OA
HETATM   18  H   UNL     1      58.636  84.967  34.879  1.00  0.00     0.169 HD
BRANCH  16  19
HETATM   19  C   UNL     1      60.285  86.664  34.067  1.00  0.00     0.078 A 
HETATM   20  C   UNL     1      60.180  87.673  32.979  1.00  0.00     0.015 A 
HETATM   21  C   UNL     1      59.631  86.291  32.783  1.00  0.00     0.015 A 
ENDBRANCH  16  19
ENDBRANCH  11  15
ENDBRANCH   7   9
ENDBRANCH   3   7
BRANCH   5  22
HETATM   22  N   UNL     1      57.871  85.806  44.815  1.00  0.00    -0.341 N 
HETATM   23  H   UNL     1      58.659  85.216  45.072  1.00  0.00     0.167 HD
BRANCH  22  24
HETATM   24  C   UNL     1      57.563  86.759  45.808  1.00  0.00     0.034 A 
HETATM   25  C   UNL     1      57.329  88.087  45.453  1.00  0.00     0.045 A 
HETATM   26  C   UNL     1      57.023  89.028  46.435  1.00  0.00     0.050 A 
HETATM   27  C   UNL     1      56.952  88.642  47.773  1.00  0.00     0.016 A 
HETATM   28  C   UNL     1      57.187  87.314  48.129  1.00  0.00     0.003 A 
HETATM   29  C   UNL     1      57.493  86.373  47.146  1.00  0.00     0.029 A 
BRANCH  26  30
HETATM   30  C   UNL     1      56.771  90.449  46.055  1.00  0.00     0.417 C 
HETATM   31  F   UNL     1      55.533  90.663  45.521  1.00  0.00    -0.166 F 
HETATM   32  F   UNL     1      56.862  91.319  47.104  1.00  0.00    -0.166 F 
HETATM   33  F   UNL     1      57.657  90.908  45.122  1.00  0.00    -0.166 F 
ENDBRANCH  26  30
ENDBRANCH  22  24
ENDBRANCH   5  22
TORSDOF 7
ENDMDL
MODEL 8
REMARK VINA RESULT:      -6.9      6.022      9.814
REMARK  7 active torsions:
REMARK  status: ('A' for Active; 'I' for Inactive)
REMARK       I    between atoms: N_5  and  C_13 
REMARK    1  A    between atoms: N_5  and  C_14 
REMARK    2  A    between atoms: N_6  and  C_17 
REMARK    3  A    between atoms: N_6  and  C_20 
REMARK    4  A    between atoms: N_7  and  C_21 
REMARK    5  A    between atoms: N_7  and  C_23 
REMARK    6  A    between atoms: C_10  and  C_13 
REMARK    7  A    between atoms: C_24  and  C_29 
ROOT
HETATM    1  N   UNL     1      55.491  85.986  38.483  1.00  0.00    -0.224 NA
HETATM    2  N   UNL     1      56.770  86.687  36.565  1.00  0.00    -0.224 NA
HETATM    3  C   UNL     1      56.543  85.232  38.863  1.00  0.00     0.133 A 
HETATM    4  C   UNL     1      57.726  85.156  38.157  1.00  0.00     0.100 A 
HETATM    5  C   UNL     1      57.790  85.911  37.000  1.00  0.00     0.133 A 
HETATM    6  C   UNL     1      55.670  86.677  37.341  1.00  0.00     0.237 A 
ENDROOT
BRANCH   3   7
HETATM    7  N   UNL     1      56.442  84.471  40.053  1.00  0.00    -0.341 N 
HETATM    8  H   UNL     1      56.221  83.493  39.891  1.00  0.00     0.167 HD
BRANCH   7   9
HETATM    9  C   UNL     1      56.596  84.806  41.409  1.00  0.00     0.035 A 
HETATM   10  C   UNL     1      57.873  84.917  41.966  1.00  0.00     0.059 A 
HETATM   11  C   UNL     1      58.025  85.251  43.311  1.00  0.00     0.036 A 
HETATM   12  C   UNL     1      56.900  85.476  44.106  1.00  0.00     0.029 A 
HETATM   13  C   UNL     1      55.624  85.366  43.555  1.00  0.00     0.004 A 
HETATM   14  C   UNL     1      55.472  85.031  42.209  1.00  0.00     0.029 A 
BRANCH  11  15
HETATM   15  N   UNL     1      59.302  85.362  43.864  1.00  0.00    -0.327 N 
HETATM   16  C   UNL     1      60.076  86.514  44.018  1.00  0.00     0.226 C 
HETATM   17  O   UNL     1      59.787  87.661  43.700  1.00  0.00    -0.273 OA
HETATM   18  H   UNL     1      59.713  84.488  44.185  1.00  0.00     0.169 HD
BRANCH  16  19
HETATM   19  C   UNL     1      61.408  86.268  44.655  1.00  0.00     0.078 A 
HETATM   20  C   UNL     1      61.669  84.928  45.248  1.00  0.00     0.015 A 
HETATM   21  C   UNL     1      61.465  86.121  46.135  1.00  0.00     0.015 A 
ENDBRANCH  16  19
ENDBRANCH  11  15
ENDBRANCH   7   9
ENDBRANCH   3   7
BRANCH   5  22
HETATM   22  N   UNL     1      58.981  85.861  36.251  1.00  0.00    -0.341 N 
HETATM   23  H   UNL     1      59.652  86.575  36.527  1.00  0.00     0.167 HD
BRANCH  22  24
HETATM   24  C   UNL     1      59.309  85.261  35.017  1.00  0.00     0.034 A 
HETATM   25  C   UNL     1      59.397  83.873  34.917  1.00  0.00     0.045 A 
HETATM   26  C   UNL     1      59.719  83.280  33.697  1.00  0.00     0.050 A 
HETATM   27  C   UNL     1      59.953  84.076  32.575  1.00  0.00     0.016 A 
HETATM   28  C   UNL     1      59.865  85.464  32.674  1.00  0.00     0.003 A 
HETATM   29  C   UNL     1      59.542  86.057  33.896  1.00  0.00     0.029 A 
BRANCH  26  30
HETATM   30  C   UNL     1      59.814  81.795  33.590  1.00  0.00     0.417 C 
HETATM   31  F   UNL     1      60.436  81.208  34.654  1.00  0.00    -0.166 F 
HETATM   32  F   UNL     1      58.601  81.176  33.499  1.00  0.00    -0.166 F 
HETATM   33  F   UNL     1      60.515  81.392  32.489  1.00  0.00    -0.166 F 
ENDBRANCH  26  30
ENDBRANCH  22  24
ENDBRANCH   5  22
TORSDOF 7
ENDMDL
MODEL 9
REMARK VINA RESULT:      -6.8     10.689     15.729
REMARK  7 active torsions:
REMARK  status: ('A' for Active; 'I' for Inactive)
REMARK       I    between atoms: N_5  and  C_13 
REMARK    1  A    between atoms: N_5  and  C_14 
REMARK    2  A    between atoms: N_6  and  C_17 
REMARK    3  A    between atoms: N_6  and  C_20 
REMARK    4  A    between atoms: N_7  and  C_21 
REMARK    5  A    between atoms: N_7  and  C_23 
REMARK    6  A    between atoms: C_10  and  C_13 
REMARK    7  A    between atoms: C_24  and  C_29 
ROOT
HETATM    1  N   UNL     1      56.752  89.229  48.471  1.00  0.00    -0.224 NA
HETATM    2  N   UNL     1      57.465  86.927  48.433  1.00  0.00    -0.224 NA
HETATM    3  C   UNL     1      56.650  89.180  47.126  1.00  0.00     0.133 A 
HETATM    4  C   UNL     1      56.934  88.057  46.376  1.00  0.00     0.100 A 
HETATM    5  C   UNL     1      57.343  86.943  47.085  1.00  0.00     0.133 A 
HETATM    6  C   UNL     1      57.160  88.084  49.051  1.00  0.00     0.237 A 
ENDROOT
BRANCH   3   7
HETATM    7  N   UNL     1      56.229  90.340  46.431  1.00  0.00    -0.341 N 
HETATM    8  H   UNL     1      55.271  90.610  46.637  1.00  0.00     0.167 HD
BRANCH   7   9
HETATM    9  C   UNL     1      56.881  91.190  45.522  1.00  0.00     0.035 A 
HETATM   10  C   UNL     1      56.313  92.419  45.176  1.00  0.00     0.059 A 
HETATM   11  C   UNL     1      56.962  93.262  44.274  1.00  0.00     0.036 A 
HETATM   12  C   UNL     1      58.182  92.880  43.714  1.00  0.00     0.029 A 
HETATM   13  C   UNL     1      58.752  91.654  44.057  1.00  0.00     0.004 A 
HETATM   14  C   UNL     1      58.102  90.810  44.958  1.00  0.00     0.029 A 
BRANCH  11  15
HETATM   15  N   UNL     1      56.392  94.489  43.932  1.00  0.00    -0.327 N 
HETATM   16  C   UNL     1      56.564  95.724  44.561  1.00  0.00     0.226 C 
HETATM   17  O   UNL     1      57.253  95.978  45.541  1.00  0.00    -0.273 OA
HETATM   18  H   UNL     1      55.771  94.469  43.126  1.00  0.00     0.169 HD
BRANCH  16  19
HETATM   19  C   UNL     1      55.797  96.841  43.924  1.00  0.00     0.078 A 
HETATM   20  C   UNL     1      56.557  97.897  43.203  1.00  0.00     0.015 A 
HETATM   21  C   UNL     1      55.905  98.200  44.520  1.00  0.00     0.015 A 
ENDBRANCH  16  19
ENDBRANCH  11  15
ENDBRANCH   7   9
ENDBRANCH   3   7
BRANCH   5  22
HETATM   22  N   UNL     1      57.642  85.776  46.357  1.00  0.00    -0.341 N 
HETATM   23  H   UNL     1      57.990  85.021  46.944  1.00  0.00     0.167 HD
BRANCH  22  24
HETATM   24  C   UNL     1      57.865  85.538  44.984  1.00  0.00     0.034 A 
HETATM   25  C   UNL     1      56.790  85.258  44.140  1.00  0.00     0.045 A 
HETATM   26  C   UNL     1      57.011  85.024  42.784  1.00  0.00     0.050 A 
HETATM   27  C   UNL     1      58.307  85.070  42.270  1.00  0.00     0.016 A 
HETATM   28  C   UNL     1      59.383  85.349  43.113  1.00  0.00     0.003 A 
HETATM   29  C   UNL     1      59.161  85.583  44.471  1.00  0.00     0.029 A 
BRANCH  26  30
HETATM   30  C   UNL     1      55.862  84.725  41.881  1.00  0.00     0.417 C 
HETATM   31  F   UNL     1      54.875  83.993  42.475  1.00  0.00    -0.166 F 
HETATM   32  F   UNL     1      55.239  85.841  41.401  1.00  0.00    -0.166 F 
HETATM   33  F   UNL     1      56.233  84.010  40.777  1.00  0.00    -0.166 F 
ENDBRANCH  26  30
ENDBRANCH  22  24
ENDBRANCH   5  22
TORSDOF 7
ENDMDL
