MODEL 1
REMARK VINA RESULT:      -7.7      0.000      0.000
REMARK  7 active torsions:
REMARK  status: ('A' for Active; 'I' for Inactive)
REMARK       I    between atoms: N_5  and  C_13 
REMARK    1  A    between atoms: N_5  and  C_14 
REMARK    2  A    between atoms: N_6  and  C_17 
REMARK    3  A    between atoms: N_6  and  C_20 
REMARK    4  A    between atoms: N_7  and  C_21 
REMARK    5  A    between atoms: N_7  and  C_23 
REMARK    6  A    between atoms: C_10  and  C_13 
REMARK    7  A    between atoms: C_24  and  C_29 
ROOT
HETATM    1  N   UNL     1      58.703  88.162  33.608  1.00  0.00    -0.224 NA
HETATM    2  N   UNL     1      60.365  86.637  32.760  1.00  0.00    -0.224 NA
HETATM    3  C   UNL     1      58.608  87.387  34.709  1.00  0.00     0.133 A 
HETATM    4  C   UNL     1      59.348  86.239  34.905  1.00  0.00     0.100 A 
HETATM    5  C   UNL     1      60.223  85.903  33.887  1.00  0.00     0.133 A 
HETATM    6  C   UNL     1      59.587  87.734  32.687  1.00  0.00     0.237 A 
ENDROOT
BRANCH   3   7
HETATM    7  N   UNL     1      57.701  87.761  35.731  1.00  0.00    -0.341 N 
HETATM    8  H   UNL     1      57.906  88.667  36.142  1.00  0.00     0.167 HD
BRANCH   7   9
HETATM    9  C   UNL     1      56.574  87.126  36.277  1.00  0.00     0.035 A 
HETATM   10  C   UNL     1      56.434  87.008  37.662  1.00  0.00     0.059 A 
HETATM   11  C   UNL     1      55.313  86.378  38.203  1.00  0.00     0.036 A 
HETATM   12  C   UNL     1      54.327  85.863  37.361  1.00  0.00     0.029 A 
HETATM   13  C   UNL     1      54.462  85.979  35.978  1.00  0.00     0.004 A 
HETATM   14  C   UNL     1      55.584  86.608  35.437  1.00  0.00     0.029 A 
BRANCH  11  15
HETATM   15  N   UNL     1      55.177  86.264  39.587  1.00  0.00    -0.327 N 
HETATM   16  C   UNL     1      55.811  85.360  40.443  1.00  0.00     0.226 C 
HETATM   17  O   UNL     1      56.616  84.486  40.149  1.00  0.00    -0.273 OA
HETATM   18  H   UNL     1      54.529  86.922  40.015  1.00  0.00     0.169 HD
BRANCH  16  19
HETATM   19  C   UNL     1      55.430  85.520  41.882  1.00  0.00     0.078 A 
HETATM   20  C   UNL     1      56.467  85.268  42.919  1.00  0.00     0.015 A 
HETATM   21  C   UNL     1      55.339  84.298  42.727  1.00  0.00     0.015 A 
ENDBRANCH  16  19
ENDBRANCH  11  15
ENDBRANCH   7   9
ENDBRANCH   3   7
BRANCH   5  22
HETATM   22  N   UNL     1      60.998  84.738  34.048  1.00  0.00    -0.341 N 
HETATM   23  H   UNL     1      61.998  84.917  33.987  1.00  0.00     0.167 HD
BRANCH  22  24
HETATM   24  C   UNL     1      60.689  83.365  33.955  1.00  0.00     0.034 A 
HETATM   25  C   UNL     1      59.747  82.923  33.025  1.00  0.00     0.045 A 
HETATM   26  C   UNL     1      59.444  81.565  32.932  1.00  0.00     0.050 A 
HETATM   27  C   UNL     1      60.081  80.649  33.769  1.00  0.00     0.016 A 
HETATM   28  C   UNL     1      61.022  81.090  34.699  1.00  0.00     0.003 A 
HETATM   29  C   UNL     1      61.326  82.449  34.791  1.00  0.00     0.029 A 
BRANCH  26  30
HETATM   30  C   UNL     1      58.437  81.092  31.938  1.00  0.00     0.417 C 
HETATM   31  F   UNL     1      57.386  80.425  32.498  1.00  0.00    -0.166 F 
HETATM   32  F   UNL     1      57.872  82.100  31.210  1.00  0.00    -0.166 F 
HETATM   33  F   UNL     1      58.969  80.232  31.020  1.00  0.00    -0.166 F 
ENDBRANCH  26  30
ENDBRANCH  22  24
ENDBRANCH   5  22
TORSDOF 7
ENDMDL
MODEL 2
REMARK VINA RESULT:      -7.3      4.314      8.761
REMARK  7 active torsions:
REMARK  status: ('A' for Active; 'I' for Inactive)
REMARK       I    between atoms: N_5  and  C_13 
REMARK    1  A    between atoms: N_5  and  C_14 
REMARK    2  A    between atoms: N_6  and  C_17 
REMARK    3  A    between atoms: N_6  and  C_20 
REMARK    4  A    between atoms: N_7  and  C_21 
REMARK    5  A    between atoms: N_7  and  C_23 
REMARK    6  A    between atoms: C_10  and  C_13 
REMARK    7  A    between atoms: C_24  and  C_29 
ROOT
HETATM    1  N   UNL     1      60.768  82.435  32.417  1.00  0.00    -0.224 NA
HETATM    2  N   UNL     1      59.683  84.502  33.013  1.00  0.00    -0.224 NA
HETATM    3  C   UNL     1      61.045  82.246  33.725  1.00  0.00     0.133 A 
HETATM    4  C   UNL     1      60.678  83.128  34.721  1.00  0.00     0.100 A 
HETATM    5  C   UNL     1      59.990  84.255  34.308  1.00  0.00     0.133 A 
HETATM    6  C   UNL     1      60.096  83.567  32.136  1.00  0.00     0.237 A 
ENDROOT
BRANCH   3   7
HETATM    7  N   UNL     1      61.751  81.082  34.112  1.00  0.00    -0.341 N 
HETATM    8  H   UNL     1      62.750  81.134  33.929  1.00  0.00     0.167 HD
BRANCH   7   9
HETATM    9  C   UNL     1      61.340  79.876  34.704  1.00  0.00     0.035 A 
HETATM   10  C   UNL     1      60.680  78.907  33.943  1.00  0.00     0.059 A 
HETATM   11  C   UNL     1      60.273  77.710  34.531  1.00  0.00     0.036 A 
HETATM   12  C   UNL     1      60.524  77.476  35.883  1.00  0.00     0.029 A 
HETATM   13  C   UNL     1      61.182  78.440  36.647  1.00  0.00     0.004 A 
HETATM   14  C   UNL     1      61.588  79.638  36.058  1.00  0.00     0.029 A 
BRANCH  11  15
HETATM   15  N   UNL     1      59.615  76.745  33.767  1.00  0.00    -0.327 N 
HETATM   16  C   UNL     1      58.242  76.598  33.561  1.00  0.00     0.226 C 
HETATM   17  O   UNL     1      57.338  77.289  34.012  1.00  0.00    -0.273 OA
HETATM   18  H   UNL     1      60.221  76.066  33.311  1.00  0.00     0.169 HD
BRANCH  16  19
HETATM   19  C   UNL     1      57.882  75.445  32.677  1.00  0.00     0.078 A 
HETATM   20  C   UNL     1      58.982  74.693  32.016  1.00  0.00     0.015 A 
HETATM   21  C   UNL     1      58.089  75.590  31.211  1.00  0.00     0.015 A 
ENDBRANCH  16  19
ENDBRANCH  11  15
ENDBRANCH   7   9
ENDBRANCH   3   7
BRANCH   5  22
HETATM   22  N   UNL     1      59.597  85.180  35.294  1.00  0.00    -0.341 N 
HETATM   23  H   UNL     1      60.170  85.130  36.133  1.00  0.00     0.167 HD
BRANCH  22  24
HETATM   24  C   UNL     1      58.411  85.918  35.493  1.00  0.00     0.034 A 
HETATM   25  C   UNL     1      57.463  85.480  36.417  1.00  0.00     0.045 A 
HETATM   26  C   UNL     1      56.292  86.211  36.614  1.00  0.00     0.050 A 
HETATM   27  C   UNL     1      56.068  87.380  35.886  1.00  0.00     0.016 A 
HETATM   28  C   UNL     1      57.016  87.818  34.962  1.00  0.00     0.003 A 
HETATM   29  C   UNL     1      58.188  87.087  34.765  1.00  0.00     0.029 A 
BRANCH  26  30
HETATM   30  C   UNL     1      55.277  85.743  37.602  1.00  0.00     0.417 C 
HETATM   31  F   UNL     1      55.557  84.518  38.137  1.00  0.00    -0.166 F 
HETATM   32  F   UNL     1      55.134  86.576  38.675  1.00  0.00    -0.166 F 
HETATM   33  F   UNL     1      54.029  85.628  37.059  1.00  0.00    -0.166 F 
ENDBRANCH  26  30
ENDBRANCH  22  24
ENDBRANCH   5  22
TORSDOF 7
ENDMDL
MODEL 3
REMARK VINA RESULT:      -7.2      4.816      9.150
REMARK  7 active torsions:
REMARK  status: ('A' for Active; 'I' for Inactive)
REMARK       I    between atoms: N_5  and  C_13 
REMARK    1  A    between atoms: N_5  and  C_14 
REMARK    2  A    between atoms: N_6  and  C_17 
REMARK    3  A    between atoms: N_6  and  C_20 
REMARK    4  A    between atoms: N_7  and  C_21 
REMARK    5  A    between atoms: N_7  and  C_23 
REMARK    6  A    between atoms: C_10  and  C_13 
REMARK    7  A    between atoms: C_24  and  C_29 
ROOT
HETATM    1  N   UNL     1      56.849  86.572  36.532  1.00  0.00    -0.224 NA
HETATM    2  N   UNL     1      55.573  85.924  38.470  1.00  0.00    -0.224 NA
HETATM    3  C   UNL     1      57.861  85.806  36.988  1.00  0.00     0.133 A 
HETATM    4  C   UNL     1      57.804  85.079  38.160  1.00  0.00     0.100 A 
HETATM    5  C   UNL     1      56.624  85.174  38.874  1.00  0.00     0.133 A 
HETATM    6  C   UNL     1      55.751  86.587  37.311  1.00  0.00     0.237 A 
ENDROOT
BRANCH   3   7
HETATM    7  N   UNL     1      59.056  85.733  36.232  1.00  0.00    -0.341 N 
HETATM    8  H   UNL     1      59.865  86.114  36.714  1.00  0.00     0.167 HD
BRANCH   7   9
HETATM    9  C   UNL     1      59.338  85.230  34.950  1.00  0.00     0.035 A 
HETATM   10  C   UNL     1      59.379  83.851  34.728  1.00  0.00     0.059 A 
HETATM   11  C   UNL     1      59.657  83.354  33.455  1.00  0.00     0.036 A 
HETATM   12  C   UNL     1      59.896  84.233  32.399  1.00  0.00     0.029 A 
HETATM   13  C   UNL     1      59.856  85.610  32.616  1.00  0.00     0.004 A 
HETATM   14  C   UNL     1      59.578  86.108  33.889  1.00  0.00     0.029 A 
BRANCH  11  15
HETATM   15  N   UNL     1      59.696  81.976  33.238  1.00  0.00    -0.327 N 
HETATM   16  C   UNL     1      58.953  81.227  32.322  1.00  0.00     0.226 C 
HETATM   17  O   UNL     1      58.117  81.632  31.525  1.00  0.00    -0.273 OA
HETATM   18  H   UNL     1      60.346  81.461  33.829  1.00  0.00     0.169 HD
BRANCH  16  19
HETATM   19  C   UNL     1      59.250  79.760  32.357  1.00  0.00     0.078 A 
HETATM   20  C   UNL     1      58.360  78.879  33.159  1.00  0.00     0.015 A 
HETATM   21  C   UNL     1      59.754  79.173  33.628  1.00  0.00     0.015 A 
ENDBRANCH  16  19
ENDBRANCH  11  15
ENDBRANCH   7   9
ENDBRANCH   3   7
BRANCH   5  22
HETATM   22  N   UNL     1      56.525  84.447  40.076  1.00  0.00    -0.341 N 
HETATM   23  H   UNL     1      56.147  83.512  39.942  1.00  0.00     0.167 HD
BRANCH  22  24
HETATM   24  C   UNL     1      56.534  84.837  41.431  1.00  0.00     0.034 A 
HETATM   25  C   UNL     1      57.743  84.956  42.116  1.00  0.00     0.045 A 
HETATM   26  C   UNL     1      57.750  85.344  43.456  1.00  0.00     0.050 A 
HETATM   27  C   UNL     1      56.548  85.612  44.111  1.00  0.00     0.016 A 
HETATM   28  C   UNL     1      55.339  85.492  43.427  1.00  0.00     0.003 A 
HETATM   29  C   UNL     1      55.332  85.105  42.086  1.00  0.00     0.029 A 
BRANCH  26  30
HETATM   30  C   UNL     1      59.043  85.472  44.189  1.00  0.00     0.417 C 
HETATM   31  F   UNL     1      59.631  84.273  44.477  1.00  0.00    -0.166 F 
HETATM   32  F   UNL     1      59.991  86.178  43.505  1.00  0.00    -0.166 F 
HETATM   33  F   UNL     1      58.906  86.110  45.388  1.00  0.00    -0.166 F 
ENDBRANCH  26  30
ENDBRANCH  22  24
ENDBRANCH   5  22
TORSDOF 7
ENDMDL
MODEL 4
REMARK VINA RESULT:      -7.2      5.162      8.694
REMARK  7 active torsions:
REMARK  status: ('A' for Active; 'I' for Inactive)
REMARK       I    between atoms: N_5  and  C_13 
REMARK    1  A    between atoms: N_5  and  C_14 
REMARK    2  A    between atoms: N_6  and  C_17 
REMARK    3  A    between atoms: N_6  and  C_20 
REMARK    4  A    between atoms: N_7  and  C_21 
REMARK    5  A    between atoms: N_7  and  C_23 
REMARK    6  A    between atoms: C_10  and  C_13 
REMARK    7  A    between atoms: C_24  and  C_29 
ROOT
HETATM    1  N   UNL     1      55.586  85.566  43.789  1.00  0.00    -0.224 NA
HETATM    2  N   UNL     1      55.725  84.928  41.469  1.00  0.00    -0.224 NA
HETATM    3  C   UNL     1      56.930  85.466  43.858  1.00  0.00     0.133 A 
HETATM    4  C   UNL     1      57.728  85.108  42.791  1.00  0.00     0.100 A 
HETATM    5  C   UNL     1      57.069  84.846  41.603  1.00  0.00     0.133 A 
HETATM    6  C   UNL     1      55.057  85.286  42.582  1.00  0.00     0.237 A 
ENDROOT
BRANCH   3   7
HETATM    7  N   UNL     1      57.572  85.741  45.091  1.00  0.00    -0.341 N 
HETATM    8  H   UNL     1      58.301  85.073  45.325  1.00  0.00     0.167 HD
BRANCH   7   9
HETATM    9  C   UNL     1      57.399  86.759  46.043  1.00  0.00     0.035 A 
HETATM   10  C   UNL     1      57.473  88.101  45.660  1.00  0.00     0.059 A 
HETATM   11  C   UNL     1      57.300  89.111  46.606  1.00  0.00     0.036 A 
HETATM   12  C   UNL     1      57.051  88.784  47.939  1.00  0.00     0.029 A 
HETATM   13  C   UNL     1      56.976  87.446  48.326  1.00  0.00     0.004 A 
HETATM   14  C   UNL     1      57.150  86.436  47.380  1.00  0.00     0.029 A 
BRANCH  11  15
HETATM   15  N   UNL     1      57.374  90.450  46.219  1.00  0.00    -0.327 N 
HETATM   16  C   UNL     1      56.374  91.237  45.643  1.00  0.00     0.226 C 
HETATM   17  O   UNL     1      55.229  90.909  45.364  1.00  0.00    -0.273 OA
HETATM   18  H   UNL     1      58.276  90.897  46.374  1.00  0.00     0.169 HD
BRANCH  16  19
HETATM   19  C   UNL     1      56.801  92.643  45.354  1.00  0.00     0.078 A 
HETATM   20  C   UNL     1      55.968  93.457  44.429  1.00  0.00     0.015 A 
HETATM   21  C   UNL     1      57.313  92.957  43.992  1.00  0.00     0.015 A 
ENDBRANCH  16  19
ENDBRANCH  11  15
ENDBRANCH   7   9
ENDBRANCH   3   7
BRANCH   5  22
HETATM   22  N   UNL     1      57.848  84.478  40.490  1.00  0.00    -0.341 N 
HETATM   23  H   UNL     1      58.749  84.082  40.751  1.00  0.00     0.167 HD
BRANCH  22  24
HETATM   24  C   UNL     1      57.788  84.827  39.125  1.00  0.00     0.034 A 
HETATM   25  C   UNL     1      56.589  85.279  38.572  1.00  0.00     0.045 A 
HETATM   26  C   UNL     1      56.531  85.625  37.223  1.00  0.00     0.050 A 
HETATM   27  C   UNL     1      57.670  85.520  36.425  1.00  0.00     0.016 A 
HETATM   28  C   UNL     1      58.869  85.068  36.977  1.00  0.00     0.003 A 
HETATM   29  C   UNL     1      58.927  84.721  38.327  1.00  0.00     0.029 A 
BRANCH  26  30
HETATM   30  C   UNL     1      55.249  86.109  36.631  1.00  0.00     0.417 C 
HETATM   31  F   UNL     1      54.232  86.210  37.536  1.00  0.00    -0.166 F 
HETATM   32  F   UNL     1      55.343  87.346  36.061  1.00  0.00    -0.166 F 
HETATM   33  F   UNL     1      54.782  85.286  35.646  1.00  0.00    -0.166 F 
ENDBRANCH  26  30
ENDBRANCH  22  24
ENDBRANCH   5  22
TORSDOF 7
ENDMDL
MODEL 5
REMARK VINA RESULT:      -7.1      4.259      8.487
REMARK  7 active torsions:
REMARK  status: ('A' for Active; 'I' for Inactive)
REMARK       I    between atoms: N_5  and  C_13 
REMARK    1  A    between atoms: N_5  and  C_14 
REMARK    2  A    between atoms: N_6  and  C_17 
REMARK    3  A    between atoms: N_6  and  C_20 
REMARK    4  A    between atoms: N_7  and  C_21 
REMARK    5  A    between atoms: N_7  and  C_23 
REMARK    6  A    between atoms: C_10  and  C_13 
REMARK    7  A    between atoms: C_24  and  C_29 
ROOT
HETATM    1  N   UNL     1      61.573  82.276  37.142  1.00  0.00    -0.224 NA
HETATM    2  N   UNL     1      60.879  84.427  37.979  1.00  0.00    -0.224 NA
HETATM    3  C   UNL     1      61.165  82.663  35.916  1.00  0.00     0.133 A 
HETATM    4  C   UNL     1      60.612  83.899  35.646  1.00  0.00     0.100 A 
HETATM    5  C   UNL     1      60.489  84.755  36.726  1.00  0.00     0.133 A 
HETATM    6  C   UNL     1      61.403  83.193  38.114  1.00  0.00     0.237 A 
ENDROOT
BRANCH   3   7
HETATM    7  N   UNL     1      61.305  81.761  34.834  1.00  0.00    -0.341 N 
HETATM    8  H   UNL     1      62.267  81.478  34.664  1.00  0.00     0.167 HD
BRANCH   7   9
HETATM    9  C   UNL     1      60.374  81.178  33.958  1.00  0.00     0.035 A 
HETATM   10  C   UNL     1      60.225  79.789  33.911  1.00  0.00     0.059 A 
HETATM   11  C   UNL     1      59.299  79.212  33.042  1.00  0.00     0.036 A 
HETATM   12  C   UNL     1      58.517  80.022  32.217  1.00  0.00     0.029 A 
HETATM   13  C   UNL     1      58.662  81.408  32.261  1.00  0.00     0.004 A 
HETATM   14  C   UNL     1      59.589  81.985  33.129  1.00  0.00     0.029 A 
BRANCH  11  15
HETATM   15  N   UNL     1      59.153  77.825  32.999  1.00  0.00    -0.327 N 
HETATM   16  C   UNL     1      58.085  77.056  33.467  1.00  0.00     0.226 C 
HETATM   17  O   UNL     1      57.060  77.448  34.010  1.00  0.00    -0.273 OA
HETATM   18  H   UNL     1      59.929  77.320  32.576  1.00  0.00     0.169 HD
BRANCH  16  19
HETATM   19  C   UNL     1      58.260  75.585  33.256  1.00  0.00     0.078 A 
HETATM   20  C   UNL     1      59.530  75.105  32.647  1.00  0.00     0.015 A 
HETATM   21  C   UNL     1      58.253  75.068  31.860  1.00  0.00     0.015 A 
ENDBRANCH  16  19
ENDBRANCH  11  15
ENDBRANCH   7   9
ENDBRANCH   3   7
BRANCH   5  22
HETATM   22  N   UNL     1      59.930  86.026  36.493  1.00  0.00    -0.341 N 
HETATM   23  H   UNL     1      60.542  86.786  36.784  1.00  0.00     0.167 HD
BRANCH  22  24
HETATM   24  C   UNL     1      58.610  86.459  36.249  1.00  0.00     0.034 A 
HETATM   25  C   UNL     1      57.565  86.000  37.052  1.00  0.00     0.045 A 
HETATM   26  C   UNL     1      56.261  86.430  36.812  1.00  0.00     0.050 A 
HETATM   27  C   UNL     1      56.000  87.318  35.768  1.00  0.00     0.016 A 
HETATM   28  C   UNL     1      57.044  87.777  34.965  1.00  0.00     0.003 A 
HETATM   29  C   UNL     1      58.349  87.347  35.206  1.00  0.00     0.029 A 
BRANCH  26  30
HETATM   30  C   UNL     1      55.143  85.939  37.670  1.00  0.00     0.417 C 
HETATM   31  F   UNL     1      55.323  84.665  38.127  1.00  0.00    -0.166 F 
HETATM   32  F   UNL     1      54.942  86.695  38.789  1.00  0.00    -0.166 F 
HETATM   33  F   UNL     1      53.945  85.928  37.015  1.00  0.00    -0.166 F 
ENDBRANCH  26  30
ENDBRANCH  22  24
ENDBRANCH   5  22
TORSDOF 7
ENDMDL
MODEL 6
REMARK VINA RESULT:      -7.1      4.838      8.565
REMARK  7 active torsions:
REMARK  status: ('A' for Active; 'I' for Inactive)
REMARK       I    between atoms: N_5  and  C_13 
REMARK    1  A    between atoms: N_5  and  C_14 
REMARK    2  A    between atoms: N_6  and  C_17 
REMARK    3  A    between atoms: N_6  and  C_20 
REMARK    4  A    between atoms: N_7  and  C_21 
REMARK    5  A    between atoms: N_7  and  C_23 
REMARK    6  A    between atoms: C_10  and  C_13 
REMARK    7  A    between atoms: C_24  and  C_29 
ROOT
HETATM    1  N   UNL     1      61.874  81.726  39.921  1.00  0.00    -0.224 NA
HETATM    2  N   UNL     1      61.212  82.547  42.087  1.00  0.00    -0.224 NA
HETATM    3  C   UNL     1      61.683  82.969  39.432  1.00  0.00     0.133 A 
HETATM    4  C   UNL     1      61.264  84.038  40.198  1.00  0.00     0.100 A 
HETATM    5  C   UNL     1      61.039  83.771  41.537  1.00  0.00     0.133 A 
HETATM    6  C   UNL     1      61.622  81.587  41.236  1.00  0.00     0.237 A 
ENDROOT
BRANCH   3   7
HETATM    7  N   UNL     1      61.923  83.206  38.056  1.00  0.00    -0.341 N 
HETATM    8  H   UNL     1      62.910  83.239  37.817  1.00  0.00     0.167 HD
BRANCH   7   9
HETATM    9  C   UNL     1      61.062  83.396  36.963  1.00  0.00     0.035 A 
HETATM   10  C   UNL     1      60.084  84.393  37.002  1.00  0.00     0.059 A 
HETATM   11  C   UNL     1      59.230  84.582  35.916  1.00  0.00     0.036 A 
HETATM   12  C   UNL     1      59.351  83.774  34.785  1.00  0.00     0.029 A 
HETATM   13  C   UNL     1      60.325  82.777  34.741  1.00  0.00     0.004 A 
HETATM   14  C   UNL     1      61.179  82.588  35.828  1.00  0.00     0.029 A 
BRANCH  11  15
HETATM   15  N   UNL     1      58.255  85.580  35.959  1.00  0.00    -0.327 N 
HETATM   16  C   UNL     1      56.923  85.466  36.363  1.00  0.00     0.226 C 
HETATM   17  O   UNL     1      56.344  84.465  36.763  1.00  0.00    -0.273 OA
HETATM   18  H   UNL     1      58.562  86.500  35.649  1.00  0.00     0.169 HD
BRANCH  16  19
HETATM   19  C   UNL     1      56.154  86.748  36.282  1.00  0.00     0.078 A 
HETATM   20  C   UNL     1      56.417  87.657  35.134  1.00  0.00     0.015 A 
HETATM   21  C   UNL     1      56.885  88.024  36.512  1.00  0.00     0.015 A 
ENDBRANCH  16  19
ENDBRANCH  11  15
ENDBRANCH   7   9
ENDBRANCH   3   7
BRANCH   5  22
HETATM   22  N   UNL     1      60.610  84.835  42.353  1.00  0.00    -0.341 N 
HETATM   23  H   UNL     1      61.383  85.359  42.758  1.00  0.00     0.167 HD
BRANCH  22  24
HETATM   24  C   UNL     1      59.378  85.126  42.974  1.00  0.00     0.034 A 
HETATM   25  C   UNL     1      58.185  84.970  42.268  1.00  0.00     0.045 A 
HETATM   26  C   UNL     1      56.967  85.256  42.883  1.00  0.00     0.050 A 
HETATM   27  C   UNL     1      56.941  85.699  44.206  1.00  0.00     0.016 A 
HETATM   28  C   UNL     1      58.133  85.856  44.913  1.00  0.00     0.003 A 
HETATM   29  C   UNL     1      59.352  85.569  44.297  1.00  0.00     0.029 A 
BRANCH  26  30
HETATM   30  C   UNL     1      55.692  85.089  42.128  1.00  0.00     0.417 C 
HETATM   31  F   UNL     1      54.873  86.179  42.188  1.00  0.00    -0.166 F 
HETATM   32  F   UNL     1      55.873  84.853  40.795  1.00  0.00    -0.166 F 
HETATM   33  F   UNL     1      54.943  84.043  42.586  1.00  0.00    -0.166 F 
ENDBRANCH  26  30
ENDBRANCH  22  24
ENDBRANCH   5  22
TORSDOF 7
ENDMDL
MODEL 7
REMARK VINA RESULT:      -6.9      6.351     11.167
REMARK  7 active torsions:
REMARK  status: ('A' for Active; 'I' for Inactive)
REMARK       I    between atoms: N_5  and  C_13 
REMARK    1  A    between atoms: N_5  and  C_14 
REMARK    2  A    between atoms: N_6  and  C_17 
REMARK    3  A    between atoms: N_6  and  C_20 
REMARK    4  A    between atoms: N_7  and  C_21 
REMARK    5  A    between atoms: N_7  and  C_23 
REMARK    6  A    between atoms: C_10  and  C_13 
REMARK    7  A    between atoms: C_24  and  C_29 
ROOT
HETATM    1  N   UNL     1      55.807  84.378  41.572  1.00  0.00    -0.224 NA
HETATM    2  N   UNL     1      55.876  84.887  43.926  1.00  0.00    -0.224 NA
HETATM    3  C   UNL     1      57.083  84.807  41.480  1.00  0.00     0.133 A 
HETATM    4  C   UNL     1      57.812  85.282  42.552  1.00  0.00     0.100 A 
HETATM    5  C   UNL     1      57.154  85.302  43.768  1.00  0.00     0.133 A 
HETATM    6  C   UNL     1      55.273  84.446  42.806  1.00  0.00     0.237 A 
ENDROOT
BRANCH   3   7
HETATM    7  N   UNL     1      57.726  84.773  40.218  1.00  0.00    -0.341 N 
HETATM    8  H   UNL     1      58.691  84.459  40.263  1.00  0.00     0.167 HD
BRANCH   7   9
HETATM    9  C   UNL     1      57.284  85.081  38.921  1.00  0.00     0.035 A 
HETATM   10  C   UNL     1      58.186  85.093  37.854  1.00  0.00     0.059 A 
HETATM   11  C   UNL     1      57.746  85.397  36.566  1.00  0.00     0.036 A 
HETATM   12  C   UNL     1      56.401  85.691  36.339  1.00  0.00     0.029 A 
HETATM   13  C   UNL     1      55.496  85.679  37.401  1.00  0.00     0.004 A 
HETATM   14  C   UNL     1      55.937  85.376  38.689  1.00  0.00     0.029 A 
BRANCH  11  15
HETATM   15  N   UNL     1      58.651  85.408  35.503  1.00  0.00    -0.327 N 
HETATM   16  C   UNL     1      59.409  86.480  35.028  1.00  0.00     0.226 C 
HETATM   17  O   UNL     1      59.433  87.628  35.452  1.00  0.00    -0.273 OA
HETATM   18  H   UNL     1      58.759  84.520  35.017  1.00  0.00     0.169 HD
BRANCH  16  19
HETATM   19  C   UNL     1      60.283  86.135  33.863  1.00  0.00     0.078 A 
HETATM   20  C   UNL     1      59.664  86.073  32.511  1.00  0.00     0.015 A 
HETATM   21  C   UNL     1      60.090  84.813  33.206  1.00  0.00     0.015 A 
ENDBRANCH  16  19
ENDBRANCH  11  15
ENDBRANCH   7   9
ENDBRANCH   3   7
BRANCH   5  22
HETATM   22  N   UNL     1      57.863  85.780  44.888  1.00  0.00    -0.341 N 
HETATM   23  H   UNL     1      58.616  85.158  45.173  1.00  0.00     0.167 HD
BRANCH  22  24
HETATM   24  C   UNL     1      57.558  86.745  45.870  1.00  0.00     0.034 A 
HETATM   25  C   UNL     1      57.313  88.067  45.498  1.00  0.00     0.045 A 
HETATM   26  C   UNL     1      57.010  89.020  46.470  1.00  0.00     0.050 A 
HETATM   27  C   UNL     1      56.952  88.652  47.814  1.00  0.00     0.016 A 
HETATM   28  C   UNL     1      57.198  87.330  48.186  1.00  0.00     0.003 A 
HETATM   29  C   UNL     1      57.500  86.377  47.214  1.00  0.00     0.029 A 
BRANCH  26  30
HETATM   30  C   UNL     1      56.748  90.434  46.073  1.00  0.00     0.417 C 
HETATM   31  F   UNL     1      56.829  91.318  47.110  1.00  0.00    -0.166 F 
HETATM   32  F   UNL     1      57.617  90.907  45.132  1.00  0.00    -0.166 F 
HETATM   33  F   UNL     1      55.502  90.608  45.540  1.00  0.00    -0.166 F 
ENDBRANCH  26  30
ENDBRANCH  22  24
ENDBRANCH   5  22
TORSDOF 7
ENDMDL
MODEL 8
REMARK VINA RESULT:      -6.8      6.438     10.937
REMARK  7 active torsions:
REMARK  status: ('A' for Active; 'I' for Inactive)
REMARK       I    between atoms: N_5  and  C_13 
REMARK    1  A    between atoms: N_5  and  C_14 
REMARK    2  A    between atoms: N_6  and  C_17 
REMARK    3  A    between atoms: N_6  and  C_20 
REMARK    4  A    between atoms: N_7  and  C_21 
REMARK    5  A    between atoms: N_7  and  C_23 
REMARK    6  A    between atoms: C_10  and  C_13 
REMARK    7  A    between atoms: C_24  and  C_29 
ROOT
HETATM    1  N   UNL     1      55.142  85.650  40.980  1.00  0.00    -0.224 NA
HETATM    2  N   UNL     1      55.580  85.663  43.349  1.00  0.00    -0.224 NA
HETATM    3  C   UNL     1      56.376  85.138  40.792  1.00  0.00     0.133 A 
HETATM    4  C   UNL     1      57.258  84.866  41.819  1.00  0.00     0.100 A 
HETATM    5  C   UNL     1      56.806  85.150  43.095  1.00  0.00     0.133 A 
HETATM    6  C   UNL     1      54.814  85.885  42.264  1.00  0.00     0.237 A 
ENDROOT
BRANCH   3   7
HETATM    7  N   UNL     1      56.807  84.860  39.472  1.00  0.00    -0.341 N 
HETATM    8  H   UNL     1      57.464  84.087  39.414  1.00  0.00     0.167 HD
BRANCH   7   9
HETATM    9  C   UNL     1      56.495  85.441  38.231  1.00  0.00     0.035 A 
HETATM   10  C   UNL     1      57.508  85.974  37.429  1.00  0.00     0.059 A 
HETATM   11  C   UNL     1      57.198  86.549  36.197  1.00  0.00     0.036 A 
HETATM   12  C   UNL     1      55.873  86.593  35.761  1.00  0.00     0.029 A 
HETATM   13  C   UNL     1      54.859  86.063  36.558  1.00  0.00     0.004 A 
HETATM   14  C   UNL     1      55.169  85.488  37.791  1.00  0.00     0.029 A 
BRANCH  11  15
HETATM   15  N   UNL     1      58.212  87.079  35.399  1.00  0.00    -0.327 N 
HETATM   16  C   UNL     1      59.162  86.389  34.641  1.00  0.00     0.226 C 
HETATM   17  O   UNL     1      59.293  85.178  34.525  1.00  0.00    -0.273 OA
HETATM   18  H   UNL     1      58.261  88.096  35.378  1.00  0.00     0.169 HD
BRANCH  16  19
HETATM   19  C   UNL     1      60.108  87.281  33.900  1.00  0.00     0.078 A 
HETATM   20  C   UNL     1      59.618  88.611  33.449  1.00  0.00     0.015 A 
HETATM   21  C   UNL     1      59.863  87.518  32.451  1.00  0.00     0.015 A 
ENDBRANCH  16  19
ENDBRANCH  11  15
ENDBRANCH   7   9
ENDBRANCH   3   7
BRANCH   5  22
HETATM   22  N   UNL     1      57.675  84.886  44.171  1.00  0.00    -0.341 N 
HETATM   23  H   UNL     1      57.792  83.891  44.349  1.00  0.00     0.167 HD
BRANCH  22  24
HETATM   24  C   UNL     1      58.151  85.684  45.232  1.00  0.00     0.034 A 
HETATM   25  C   UNL     1      57.391  85.830  46.392  1.00  0.00     0.045 A 
HETATM   26  C   UNL     1      57.864  86.618  47.441  1.00  0.00     0.050 A 
HETATM   27  C   UNL     1      59.097  87.261  47.330  1.00  0.00     0.016 A 
HETATM   28  C   UNL     1      59.857  87.116  46.170  1.00  0.00     0.003 A 
HETATM   29  C   UNL     1      59.384  86.328  45.121  1.00  0.00     0.029 A 
BRANCH  26  30
HETATM   30  C   UNL     1      57.051  86.773  48.683  1.00  0.00     0.417 C 
HETATM   31  F   UNL     1      57.794  86.768  49.828  1.00  0.00    -0.166 F 
HETATM   32  F   UNL     1      56.338  87.937  48.726  1.00  0.00    -0.166 F 
HETATM   33  F   UNL     1      56.133  85.775  48.838  1.00  0.00    -0.166 F 
ENDBRANCH  26  30
ENDBRANCH  22  24
ENDBRANCH   5  22
TORSDOF 7
ENDMDL
MODEL 9
REMARK VINA RESULT:      -6.6      4.144      8.451
REMARK  7 active torsions:
REMARK  status: ('A' for Active; 'I' for Inactive)
REMARK       I    between atoms: N_5  and  C_13 
REMARK    1  A    between atoms: N_5  and  C_14 
REMARK    2  A    between atoms: N_6  and  C_17 
REMARK    3  A    between atoms: N_6  and  C_20 
REMARK    4  A    between atoms: N_7  and  C_21 
REMARK    5  A    between atoms: N_7  and  C_23 
REMARK    6  A    between atoms: C_10  and  C_13 
REMARK    7  A    between atoms: C_24  and  C_29 
ROOT
HETATM    1  N   UNL     1      61.561  81.683  37.337  1.00  0.00    -0.224 NA
HETATM    2  N   UNL     1      60.832  83.663  38.502  1.00  0.00    -0.224 NA
HETATM    3  C   UNL     1      61.186  82.271  36.181  1.00  0.00     0.133 A 
HETATM    4  C   UNL     1      60.635  83.535  36.107  1.00  0.00     0.100 A 
HETATM    5  C   UNL     1      60.476  84.197  37.311  1.00  0.00     0.133 A 
HETATM    6  C   UNL     1      61.357  82.424  38.443  1.00  0.00     0.237 A 
ENDROOT
BRANCH   3   7
HETATM    7  N   UNL     1      61.363  81.563  34.967  1.00  0.00    -0.341 N 
HETATM    8  H   UNL     1      62.338  81.409  34.727  1.00  0.00     0.167 HD
BRANCH   7   9
HETATM    9  C   UNL     1      60.452  81.031  34.040  1.00  0.00     0.035 A 
HETATM   10  C   UNL     1      60.249  79.650  33.965  1.00  0.00     0.059 A 
HETATM   11  C   UNL     1      59.344  79.123  33.045  1.00  0.00     0.036 A 
HETATM   12  C   UNL     1      58.637  79.974  32.195  1.00  0.00     0.029 A 
HETATM   13  C   UNL     1      58.835  81.352  32.266  1.00  0.00     0.004 A 
HETATM   14  C   UNL     1      59.742  81.880  33.186  1.00  0.00     0.029 A 
BRANCH  11  15
HETATM   15  N   UNL     1      59.145  77.743  32.974  1.00  0.00    -0.327 N 
HETATM   16  C   UNL     1      58.055  77.005  33.442  1.00  0.00     0.226 C 
HETATM   17  O   UNL     1      57.054  77.424  34.009  1.00  0.00    -0.273 OA
HETATM   18  H   UNL     1      59.895  77.218  32.529  1.00  0.00     0.169 HD
BRANCH  16  19
HETATM   19  C   UNL     1      58.170  75.533  33.197  1.00  0.00     0.078 A 
HETATM   20  C   UNL     1      59.472  74.998  32.714  1.00  0.00     0.015 A 
HETATM   21  C   UNL     1      58.290  75.060  31.791  1.00  0.00     0.015 A 
ENDBRANCH  16  19
ENDBRANCH  11  15
ENDBRANCH   7   9
ENDBRANCH   3   7
BRANCH   5  22
HETATM   22  N   UNL     1      59.918  85.489  37.278  1.00  0.00    -0.341 N 
HETATM   23  H   UNL     1      60.254  86.084  38.033  1.00  0.00     0.167 HD
BRANCH  22  24
HETATM   24  C   UNL     1      58.781  86.022  36.637  1.00  0.00     0.034 A 
HETATM   25  C   UNL     1      58.930  86.855  35.527  1.00  0.00     0.045 A 
HETATM   26  C   UNL     1      57.805  87.379  34.893  1.00  0.00     0.050 A 
HETATM   27  C   UNL     1      56.530  87.073  35.367  1.00  0.00     0.016 A 
HETATM   28  C   UNL     1      56.380  86.241  36.476  1.00  0.00     0.003 A 
HETATM   29  C   UNL     1      57.505  85.715  37.111  1.00  0.00     0.029 A 
BRANCH  26  30
HETATM   30  C   UNL     1      57.965  88.270  33.706  1.00  0.00     0.417 C 
HETATM   31  F   UNL     1      59.190  88.867  33.630  1.00  0.00    -0.166 F 
HETATM   32  F   UNL     1      57.809  87.623  32.514  1.00  0.00    -0.166 F 
HETATM   33  F   UNL     1      57.059  89.291  33.691  1.00  0.00    -0.166 F 
ENDBRANCH  26  30
ENDBRANCH  22  24
ENDBRANCH   5  22
TORSDOF 7
ENDMDL
