MODEL 1
REMARK VINA RESULT:      -7.5      0.000      0.000
REMARK  7 active torsions:
REMARK  status: ('A' for Active; 'I' for Inactive)
REMARK       I    between atoms: N_5  and  C_13 
REMARK    1  A    between atoms: N_5  and  C_14 
REMARK    2  A    between atoms: N_6  and  C_17 
REMARK    3  A    between atoms: N_6  and  C_20 
REMARK    4  A    between atoms: N_7  and  C_21 
REMARK    5  A    between atoms: N_7  and  C_23 
REMARK    6  A    between atoms: C_10  and  C_13 
REMARK    7  A    between atoms: C_24  and  C_29 
ROOT
HETATM    1  N   UNL     1      58.874  87.971  33.428  1.00  0.00    -0.224 NA
HETATM    2  N   UNL     1      60.428  86.473  32.358  1.00  0.00    -0.224 NA
HETATM    3  C   UNL     1      58.905  87.170  34.513  1.00  0.00     0.133 A 
HETATM    4  C   UNL     1      59.664  86.020  34.595  1.00  0.00     0.100 A 
HETATM    5  C   UNL     1      60.417  85.711  33.477  1.00  0.00     0.133 A 
HETATM    6  C   UNL     1      59.647  87.568  32.401  1.00  0.00     0.237 A 
ENDROOT
BRANCH   3   7
HETATM    7  N   UNL     1      58.121  87.516  35.640  1.00  0.00    -0.341 N 
HETATM    8  H   UNL     1      58.365  88.417  36.042  1.00  0.00     0.167 HD
BRANCH   7   9
HETATM    9  C   UNL     1      57.070  86.859  36.302  1.00  0.00     0.035 A 
HETATM   10  C   UNL     1      57.277  86.294  37.563  1.00  0.00     0.059 A 
HETATM   11  C   UNL     1      56.234  85.643  38.220  1.00  0.00     0.036 A 
HETATM   12  C   UNL     1      54.978  85.555  37.619  1.00  0.00     0.029 A 
HETATM   13  C   UNL     1      54.766  86.118  36.361  1.00  0.00     0.004 A 
HETATM   14  C   UNL     1      55.811  86.769  35.703  1.00  0.00     0.029 A 
BRANCH  11  15
HETATM   15  N   UNL     1      56.445  85.080  39.480  1.00  0.00    -0.327 N 
HETATM   16  C   UNL     1      55.788  85.376  40.676  1.00  0.00     0.226 C 
HETATM   17  O   UNL     1      54.892  86.190  40.859  1.00  0.00    -0.273 OA
HETATM   18  H   UNL     1      57.174  84.371  39.521  1.00  0.00     0.169 HD
BRANCH  16  19
HETATM   19  C   UNL     1      56.270  84.575  41.845  1.00  0.00     0.078 A 
HETATM   20  C   UNL     1      55.720  84.890  43.191  1.00  0.00     0.015 A 
HETATM   21  C   UNL     1      57.136  85.248  42.851  1.00  0.00     0.015 A 
ENDBRANCH  16  19
ENDBRANCH  11  15
ENDBRANCH   7   9
ENDBRANCH   3   7
BRANCH   5  22
HETATM   22  N   UNL     1      61.205  84.545  33.520  1.00  0.00    -0.341 N 
HETATM   23  H   UNL     1      62.134  84.681  33.126  1.00  0.00     0.167 HD
BRANCH  22  24
HETATM   24  C   UNL     1      60.886  83.182  33.690  1.00  0.00     0.034 A 
HETATM   25  C   UNL     1      59.861  82.605  32.939  1.00  0.00     0.045 A 
HETATM   26  C   UNL     1      59.547  81.257  33.107  1.00  0.00     0.050 A 
HETATM   27  C   UNL     1      60.257  80.485  34.026  1.00  0.00     0.016 A 
HETATM   28  C   UNL     1      61.281  81.060  34.777  1.00  0.00     0.003 A 
HETATM   29  C   UNL     1      61.596  82.409  34.609  1.00  0.00     0.029 A 
BRANCH  26  30
HETATM   30  C   UNL     1      58.451  80.640  32.304  1.00  0.00     0.417 C 
HETATM   31  F   UNL     1      57.789  81.529  31.507  1.00  0.00    -0.166 F 
HETATM   32  F   UNL     1      58.880  79.656  31.461  1.00  0.00    -0.166 F 
HETATM   33  F   UNL     1      57.490  80.063  33.084  1.00  0.00    -0.166 F 
ENDBRANCH  26  30
ENDBRANCH  22  24
ENDBRANCH   5  22
TORSDOF 7
ENDMDL
MODEL 2
REMARK VINA RESULT:      -7.4      4.347      8.651
REMARK  7 active torsions:
REMARK  status: ('A' for Active; 'I' for Inactive)
REMARK       I    between atoms: N_5  and  C_13 
REMARK    1  A    between atoms: N_5  and  C_14 
REMARK    2  A    between atoms: N_6  and  C_17 
REMARK    3  A    between atoms: N_6  and  C_20 
REMARK    4  A    between atoms: N_7  and  C_21 
REMARK    5  A    between atoms: N_7  and  C_23 
REMARK    6  A    between atoms: C_10  and  C_13 
REMARK    7  A    between atoms: C_24  and  C_29 
ROOT
HETATM    1  N   UNL     1      60.760  82.406  32.407  1.00  0.00    -0.224 NA
HETATM    2  N   UNL     1      59.661  84.478  32.960  1.00  0.00    -0.224 NA
HETATM    3  C   UNL     1      61.058  82.258  33.715  1.00  0.00     0.133 A 
HETATM    4  C   UNL     1      60.696  83.165  34.691  1.00  0.00     0.100 A 
HETATM    5  C   UNL     1      59.991  84.272  34.256  1.00  0.00     0.133 A 
HETATM    6  C   UNL     1      60.071  83.523  32.104  1.00  0.00     0.237 A 
ENDROOT
BRANCH   3   7
HETATM    7  N   UNL     1      61.783  81.112  34.124  1.00  0.00    -0.341 N 
HETATM    8  H   UNL     1      62.784  81.189  33.966  1.00  0.00     0.167 HD
BRANCH   7   9
HETATM    9  C   UNL     1      61.386  79.899  34.710  1.00  0.00     0.035 A 
HETATM   10  C   UNL     1      60.726  78.931  33.948  1.00  0.00     0.059 A 
HETATM   11  C   UNL     1      60.334  77.727  34.530  1.00  0.00     0.036 A 
HETATM   12  C   UNL     1      60.600  77.484  35.878  1.00  0.00     0.029 A 
HETATM   13  C   UNL     1      61.258  78.446  36.643  1.00  0.00     0.004 A 
HETATM   14  C   UNL     1      61.649  79.652  36.060  1.00  0.00     0.029 A 
BRANCH  11  15
HETATM   15  N   UNL     1      59.676  76.763  33.764  1.00  0.00    -0.327 N 
HETATM   16  C   UNL     1      58.301  76.602  33.578  1.00  0.00     0.226 C 
HETATM   17  O   UNL     1      57.396  77.277  34.050  1.00  0.00    -0.273 OA
HETATM   18  H   UNL     1      60.283  76.096  33.292  1.00  0.00     0.169 HD
BRANCH  16  19
HETATM   19  C   UNL     1      57.941  75.455  32.686  1.00  0.00     0.078 A 
HETATM   20  C   UNL     1      59.036  74.753  31.963  1.00  0.00     0.015 A 
HETATM   21  C   UNL     1      58.080  75.636  31.215  1.00  0.00     0.015 A 
ENDBRANCH  16  19
ENDBRANCH  11  15
ENDBRANCH   7   9
ENDBRANCH   3   7
BRANCH   5  22
HETATM   22  N   UNL     1      59.602  85.221  35.221  1.00  0.00    -0.341 N 
HETATM   23  H   UNL     1      60.181  85.193  36.058  1.00  0.00     0.167 HD
BRANCH  22  24
HETATM   24  C   UNL     1      58.417  85.962  35.409  1.00  0.00     0.034 A 
HETATM   25  C   UNL     1      57.451  85.517  36.312  1.00  0.00     0.045 A 
HETATM   26  C   UNL     1      56.280  86.252  36.498  1.00  0.00     0.050 A 
HETATM   27  C   UNL     1      56.075  87.430  35.781  1.00  0.00     0.016 A 
HETATM   28  C   UNL     1      57.040  87.875  34.878  1.00  0.00     0.003 A 
HETATM   29  C   UNL     1      58.212  87.141  34.692  1.00  0.00     0.029 A 
BRANCH  26  30
HETATM   30  C   UNL     1      55.247  85.776  37.463  1.00  0.00     0.417 C 
HETATM   31  F   UNL     1      55.116  86.575  38.563  1.00  0.00    -0.166 F 
HETATM   32  F   UNL     1      53.993  85.699  36.927  1.00  0.00    -0.166 F 
HETATM   33  F   UNL     1      55.515  84.528  37.948  1.00  0.00    -0.166 F 
ENDBRANCH  26  30
ENDBRANCH  22  24
ENDBRANCH   5  22
TORSDOF 7
ENDMDL
MODEL 3
REMARK VINA RESULT:      -7.4      4.402      8.426
REMARK  7 active torsions:
REMARK  status: ('A' for Active; 'I' for Inactive)
REMARK       I    between atoms: N_5  and  C_13 
REMARK    1  A    between atoms: N_5  and  C_14 
REMARK    2  A    between atoms: N_6  and  C_17 
REMARK    3  A    between atoms: N_6  and  C_20 
REMARK    4  A    between atoms: N_7  and  C_21 
REMARK    5  A    between atoms: N_7  and  C_23 
REMARK    6  A    between atoms: C_10  and  C_13 
REMARK    7  A    between atoms: C_24  and  C_29 
ROOT
HETATM    1  N   UNL     1      61.572  82.285  37.180  1.00  0.00    -0.224 NA
HETATM    2  N   UNL     1      60.860  84.451  37.960  1.00  0.00    -0.224 NA
HETATM    3  C   UNL     1      61.185  82.646  35.939  1.00  0.00     0.133 A 
HETATM    4  C   UNL     1      60.635  83.874  35.634  1.00  0.00     0.100 A 
HETATM    5  C   UNL     1      60.491  84.753  36.693  1.00  0.00     0.133 A 
HETATM    6  C   UNL     1      61.383  83.222  38.129  1.00  0.00     0.237 A 
ENDROOT
BRANCH   3   7
HETATM    7  N   UNL     1      61.346  81.721  34.879  1.00  0.00    -0.341 N 
HETATM    8  H   UNL     1      62.314  81.468  34.706  1.00  0.00     0.167 HD
BRANCH   7   9
HETATM    9  C   UNL     1      60.426  81.085  34.028  1.00  0.00     0.035 A 
HETATM   10  C   UNL     1      60.296  79.694  34.046  1.00  0.00     0.059 A 
HETATM   11  C   UNL     1      59.382  79.064  33.202  1.00  0.00     0.036 A 
HETATM   12  C   UNL     1      58.594  79.822  32.336  1.00  0.00     0.029 A 
HETATM   13  C   UNL     1      58.720  81.211  32.315  1.00  0.00     0.004 A 
HETATM   14  C   UNL     1      59.635  81.841  33.158  1.00  0.00     0.029 A 
BRANCH  11  15
HETATM   15  N   UNL     1      59.255  77.674  33.224  1.00  0.00    -0.327 N 
HETATM   16  C   UNL     1      58.151  76.916  33.623  1.00  0.00     0.226 C 
HETATM   17  O   UNL     1      57.071  77.322  34.032  1.00  0.00    -0.273 OA
HETATM   18  H   UNL     1      60.076  77.158  32.915  1.00  0.00     0.169 HD
BRANCH  16  19
HETATM   19  C   UNL     1      58.361  75.438  33.516  1.00  0.00     0.078 A 
HETATM   20  C   UNL     1      59.710  74.893  33.831  1.00  0.00     0.015 A 
HETATM   21  C   UNL     1      59.220  74.926  32.413  1.00  0.00     0.015 A 
ENDBRANCH  16  19
ENDBRANCH  11  15
ENDBRANCH   7   9
ENDBRANCH   3   7
BRANCH   5  22
HETATM   22  N   UNL     1      59.934  86.018  36.424  1.00  0.00    -0.341 N 
HETATM   23  H   UNL     1      60.565  86.783  36.652  1.00  0.00     0.167 HD
BRANCH  22  24
HETATM   24  C   UNL     1      58.609  86.453  36.217  1.00  0.00     0.034 A 
HETATM   25  C   UNL     1      57.584  85.986  37.039  1.00  0.00     0.045 A 
HETATM   26  C   UNL     1      56.274  86.418  36.835  1.00  0.00     0.050 A 
HETATM   27  C   UNL     1      55.989  87.317  35.807  1.00  0.00     0.016 A 
HETATM   28  C   UNL     1      57.013  87.784  34.984  1.00  0.00     0.003 A 
HETATM   29  C   UNL     1      58.324  87.352  35.189  1.00  0.00     0.029 A 
BRANCH  26  30
HETATM   30  C   UNL     1      55.177  85.919  37.714  1.00  0.00     0.417 C 
HETATM   31  F   UNL     1      54.977  86.684  38.828  1.00  0.00    -0.166 F 
HETATM   32  F   UNL     1      53.961  85.867  37.095  1.00  0.00    -0.166 F 
HETATM   33  F   UNL     1      55.408  84.655  38.175  1.00  0.00    -0.166 F 
ENDBRANCH  26  30
ENDBRANCH  22  24
ENDBRANCH   5  22
TORSDOF 7
ENDMDL
MODEL 4
REMARK VINA RESULT:      -7.3      4.785      9.128
REMARK  7 active torsions:
REMARK  status: ('A' for Active; 'I' for Inactive)
REMARK       I    between atoms: N_5  and  C_13 
REMARK    1  A    between atoms: N_5  and  C_14 
REMARK    2  A    between atoms: N_6  and  C_17 
REMARK    3  A    between atoms: N_6  and  C_20 
REMARK    4  A    between atoms: N_7  and  C_21 
REMARK    5  A    between atoms: N_7  and  C_23 
REMARK    6  A    between atoms: C_10  and  C_13 
REMARK    7  A    between atoms: C_24  and  C_29 
ROOT
HETATM    1  N   UNL     1      56.611  86.615  36.499  1.00  0.00    -0.224 NA
HETATM    2  N   UNL     1      55.395  85.872  38.442  1.00  0.00    -0.224 NA
HETATM    3  C   UNL     1      57.677  85.920  36.946  1.00  0.00     0.133 A 
HETATM    4  C   UNL     1      57.679  85.186  38.115  1.00  0.00     0.100 A 
HETATM    5  C   UNL     1      56.499  85.195  38.836  1.00  0.00     0.133 A 
HETATM    6  C   UNL     1      55.520  86.550  37.285  1.00  0.00     0.237 A 
ENDROOT
BRANCH   3   7
HETATM    7  N   UNL     1      58.870  85.934  36.182  1.00  0.00    -0.341 N 
HETATM    8  H   UNL     1      59.593  86.532  36.572  1.00  0.00     0.167 HD
BRANCH   7   9
HETATM    9  C   UNL     1      59.246  85.277  34.999  1.00  0.00     0.035 A 
HETATM   10  C   UNL     1      59.350  83.884  34.969  1.00  0.00     0.059 A 
HETATM   11  C   UNL     1      59.722  83.232  33.794  1.00  0.00     0.036 A 
HETATM   12  C   UNL     1      59.990  83.972  32.641  1.00  0.00     0.029 A 
HETATM   13  C   UNL     1      59.887  85.362  32.665  1.00  0.00     0.004 A 
HETATM   14  C   UNL     1      59.516  86.014  33.842  1.00  0.00     0.029 A 
BRANCH  11  15
HETATM   15  N   UNL     1      59.825  81.841  33.769  1.00  0.00    -0.327 N 
HETATM   16  C   UNL     1      59.100  80.937  32.988  1.00  0.00     0.226 C 
HETATM   17  O   UNL     1      58.228  81.187  32.166  1.00  0.00    -0.273 OA
HETATM   18  H   UNL     1      60.512  81.445  34.407  1.00  0.00     0.169 HD
BRANCH  16  19
HETATM   19  C   UNL     1      59.471  79.505  33.218  1.00  0.00     0.078 A 
HETATM   20  C   UNL     1      59.384  78.562  32.071  1.00  0.00     0.015 A 
HETATM   21  C   UNL     1      58.388  78.485  33.190  1.00  0.00     0.015 A 
ENDBRANCH  16  19
ENDBRANCH  11  15
ENDBRANCH   7   9
ENDBRANCH   3   7
BRANCH   5  22
HETATM   22  N   UNL     1      56.459  84.458  40.035  1.00  0.00    -0.341 N 
HETATM   23  H   UNL     1      56.095  83.517  39.908  1.00  0.00     0.167 HD
BRANCH  22  24
HETATM   24  C   UNL     1      56.508  84.839  41.392  1.00  0.00     0.034 A 
HETATM   25  C   UNL     1      57.737  84.946  42.044  1.00  0.00     0.045 A 
HETATM   26  C   UNL     1      57.785  85.325  43.385  1.00  0.00     0.050 A 
HETATM   27  C   UNL     1      56.604  85.597  44.075  1.00  0.00     0.016 A 
HETATM   28  C   UNL     1      55.375  85.490  43.425  1.00  0.00     0.003 A 
HETATM   29  C   UNL     1      55.327  85.112  42.083  1.00  0.00     0.029 A 
BRANCH  26  30
HETATM   30  C   UNL     1      59.099  85.439  44.082  1.00  0.00     0.417 C 
HETATM   31  F   UNL     1      60.076  86.011  43.319  1.00  0.00    -0.166 F 
HETATM   32  F   UNL     1      59.050  86.190  45.221  1.00  0.00    -0.166 F 
HETATM   33  F   UNL     1      59.598  84.226  44.464  1.00  0.00    -0.166 F 
ENDBRANCH  26  30
ENDBRANCH  22  24
ENDBRANCH   5  22
TORSDOF 7
ENDMDL
MODEL 5
REMARK VINA RESULT:      -7.2      5.067      8.778
REMARK  7 active torsions:
REMARK  status: ('A' for Active; 'I' for Inactive)
REMARK       I    between atoms: N_5  and  C_13 
REMARK    1  A    between atoms: N_5  and  C_14 
REMARK    2  A    between atoms: N_6  and  C_17 
REMARK    3  A    between atoms: N_6  and  C_20 
REMARK    4  A    between atoms: N_7  and  C_21 
REMARK    5  A    between atoms: N_7  and  C_23 
REMARK    6  A    between atoms: C_10  and  C_13 
REMARK    7  A    between atoms: C_24  and  C_29 
ROOT
HETATM    1  N   UNL     1      55.544  85.722  43.831  1.00  0.00    -0.224 NA
HETATM    2  N   UNL     1      55.625  85.024  41.526  1.00  0.00    -0.224 NA
HETATM    3  C   UNL     1      56.883  85.562  43.887  1.00  0.00     0.133 A 
HETATM    4  C   UNL     1      57.651  85.143  42.819  1.00  0.00     0.100 A 
HETATM    5  C   UNL     1      56.965  84.883  41.646  1.00  0.00     0.133 A 
HETATM    6  C   UNL     1      54.988  85.438  42.637  1.00  0.00     0.237 A 
ENDROOT
BRANCH   3   7
HETATM    7  N   UNL     1      57.552  85.837  45.105  1.00  0.00    -0.341 N 
HETATM    8  H   UNL     1      58.300  85.181  45.312  1.00  0.00     0.167 HD
BRANCH   7   9
HETATM    9  C   UNL     1      57.385  86.841  46.073  1.00  0.00     0.035 A 
HETATM   10  C   UNL     1      57.433  88.188  45.705  1.00  0.00     0.059 A 
HETATM   11  C   UNL     1      57.265  89.184  46.666  1.00  0.00     0.036 A 
HETATM   12  C   UNL     1      57.049  88.837  48.000  1.00  0.00     0.029 A 
HETATM   13  C   UNL     1      57.000  87.494  48.372  1.00  0.00     0.004 A 
HETATM   14  C   UNL     1      57.168  86.498  47.410  1.00  0.00     0.029 A 
BRANCH  11  15
HETATM   15  N   UNL     1      57.313  90.529  46.295  1.00  0.00    -0.327 N 
HETATM   16  C   UNL     1      56.319  91.285  45.670  1.00  0.00     0.226 C 
HETATM   17  O   UNL     1      55.204  90.919  45.323  1.00  0.00    -0.273 OA
HETATM   18  H   UNL     1      58.187  91.006  46.504  1.00  0.00     0.169 HD
BRANCH  16  19
HETATM   19  C   UNL     1      56.711  92.708  45.416  1.00  0.00     0.078 A 
HETATM   20  C   UNL     1      55.811  93.549  44.581  1.00  0.00     0.015 A 
HETATM   21  C   UNL     1      57.132  93.087  44.040  1.00  0.00     0.015 A 
ENDBRANCH  16  19
ENDBRANCH  11  15
ENDBRANCH   7   9
ENDBRANCH   3   7
BRANCH   5  22
HETATM   22  N   UNL     1      57.713  84.454  40.533  1.00  0.00    -0.341 N 
HETATM   23  H   UNL     1      58.569  83.970  40.795  1.00  0.00     0.167 HD
BRANCH  22  24
HETATM   24  C   UNL     1      57.695  84.822  39.172  1.00  0.00     0.034 A 
HETATM   25  C   UNL     1      56.510  85.263  38.583  1.00  0.00     0.045 A 
HETATM   26  C   UNL     1      56.493  85.628  37.237  1.00  0.00     0.050 A 
HETATM   27  C   UNL     1      57.662  85.552  36.479  1.00  0.00     0.016 A 
HETATM   28  C   UNL     1      58.847  85.111  37.067  1.00  0.00     0.003 A 
HETATM   29  C   UNL     1      58.863  84.745  38.414  1.00  0.00     0.029 A 
BRANCH  26  30
HETATM   30  C   UNL     1      55.226  86.100  36.607  1.00  0.00     0.417 C 
HETATM   31  F   UNL     1      55.333  87.324  36.012  1.00  0.00    -0.166 F 
HETATM   32  F   UNL     1      54.760  85.268  35.630  1.00  0.00    -0.166 F 
HETATM   33  F   UNL     1      54.205  86.218  37.506  1.00  0.00    -0.166 F 
ENDBRANCH  26  30
ENDBRANCH  22  24
ENDBRANCH   5  22
TORSDOF 7
ENDMDL
MODEL 6
REMARK VINA RESULT:      -7.1      4.851      9.215
REMARK  7 active torsions:
REMARK  status: ('A' for Active; 'I' for Inactive)
REMARK       I    between atoms: N_5  and  C_13 
REMARK    1  A    between atoms: N_5  and  C_14 
REMARK    2  A    between atoms: N_6  and  C_17 
REMARK    3  A    between atoms: N_6  and  C_20 
REMARK    4  A    between atoms: N_7  and  C_21 
REMARK    5  A    between atoms: N_7  and  C_23 
REMARK    6  A    between atoms: C_10  and  C_13 
REMARK    7  A    between atoms: C_24  and  C_29 
ROOT
HETATM    1  N   UNL     1      60.689  83.053  32.004  1.00  0.00    -0.224 NA
HETATM    2  N   UNL     1      60.845  85.185  33.118  1.00  0.00    -0.224 NA
HETATM    3  C   UNL     1      59.783  82.677  32.931  1.00  0.00     0.133 A 
HETATM    4  C   UNL     1      59.363  83.488  33.966  1.00  0.00     0.100 A 
HETATM    5  C   UNL     1      59.932  84.748  34.016  1.00  0.00     0.133 A 
HETATM    6  C   UNL     1      61.173  84.301  32.156  1.00  0.00     0.237 A 
ENDROOT
BRANCH   3   7
HETATM    7  N   UNL     1      59.222  81.379  32.850  1.00  0.00    -0.341 N 
HETATM    8  H   UNL     1      58.335  81.352  32.356  1.00  0.00     0.167 HD
BRANCH   7   9
HETATM    9  C   UNL     1      59.659  80.127  33.313  1.00  0.00     0.035 A 
HETATM   10  C   UNL     1      59.206  78.954  32.704  1.00  0.00     0.059 A 
HETATM   11  C   UNL     1      59.641  77.712  33.164  1.00  0.00     0.036 A 
HETATM   12  C   UNL     1      60.531  77.637  34.236  1.00  0.00     0.029 A 
HETATM   13  C   UNL     1      60.986  78.805  34.847  1.00  0.00     0.004 A 
HETATM   14  C   UNL     1      60.549  80.048  34.388  1.00  0.00     0.029 A 
BRANCH  11  15
HETATM   15  N   UNL     1      59.188  76.542  32.551  1.00  0.00    -0.327 N 
HETATM   16  C   UNL     1      59.755  75.859  31.473  1.00  0.00     0.226 C 
HETATM   17  O   UNL     1      60.767  76.150  30.850  1.00  0.00    -0.273 OA
HETATM   18  H   UNL     1      58.334  76.151  32.943  1.00  0.00     0.169 HD
BRANCH  16  19
HETATM   19  C   UNL     1      59.001  74.630  31.071  1.00  0.00     0.078 A 
HETATM   20  C   UNL     1      58.861  74.332  29.620  1.00  0.00     0.015 A 
HETATM   21  C   UNL     1      57.677  74.801  30.412  1.00  0.00     0.015 A 
ENDBRANCH  16  19
ENDBRANCH  11  15
ENDBRANCH   7   9
ENDBRANCH   3   7
BRANCH   5  22
HETATM   22  N   UNL     1      59.530  85.607  35.057  1.00  0.00    -0.341 N 
HETATM   23  H   UNL     1      60.153  85.572  35.861  1.00  0.00     0.167 HD
BRANCH  22  24
HETATM   24  C   UNL     1      58.307  86.246  35.349  1.00  0.00     0.034 A 
HETATM   25  C   UNL     1      57.439  85.696  36.292  1.00  0.00     0.045 A 
HETATM   26  C   UNL     1      56.231  86.329  36.582  1.00  0.00     0.050 A 
HETATM   27  C   UNL     1      55.890  87.513  35.928  1.00  0.00     0.016 A 
HETATM   28  C   UNL     1      56.757  88.064  34.985  1.00  0.00     0.003 A 
HETATM   29  C   UNL     1      57.966  87.430  34.695  1.00  0.00     0.029 A 
BRANCH  26  30
HETATM   30  C   UNL     1      55.302  85.740  37.590  1.00  0.00     0.417 C 
HETATM   31  F   UNL     1      55.219  86.463  38.746  1.00  0.00    -0.166 F 
HETATM   32  F   UNL     1      54.015  85.628  37.147  1.00  0.00    -0.166 F 
HETATM   33  F   UNL     1      55.670  84.482  37.971  1.00  0.00    -0.166 F 
ENDBRANCH  26  30
ENDBRANCH  22  24
ENDBRANCH   5  22
TORSDOF 7
ENDMDL
MODEL 7
REMARK VINA RESULT:      -7.0      6.267     11.270
REMARK  7 active torsions:
REMARK  status: ('A' for Active; 'I' for Inactive)
REMARK       I    between atoms: N_5  and  C_13 
REMARK    1  A    between atoms: N_5  and  C_14 
REMARK    2  A    between atoms: N_6  and  C_17 
REMARK    3  A    between atoms: N_6  and  C_20 
REMARK    4  A    between atoms: N_7  and  C_21 
REMARK    5  A    between atoms: N_7  and  C_23 
REMARK    6  A    between atoms: C_10  and  C_13 
REMARK    7  A    between atoms: C_24  and  C_29 
ROOT
HETATM    1  N   UNL     1      55.790  84.401  41.598  1.00  0.00    -0.224 NA
HETATM    2  N   UNL     1      55.843  84.932  43.948  1.00  0.00    -0.224 NA
HETATM    3  C   UNL     1      57.074  84.809  41.515  1.00  0.00     0.133 A 
HETATM    4  C   UNL     1      57.798  85.284  42.589  1.00  0.00     0.100 A 
HETATM    5  C   UNL     1      57.129  85.326  43.799  1.00  0.00     0.133 A 
HETATM    6  C   UNL     1      55.244  84.489  42.826  1.00  0.00     0.237 A 
ENDROOT
BRANCH   3   7
HETATM    7  N   UNL     1      57.728  84.753  40.260  1.00  0.00    -0.341 N 
HETATM    8  H   UNL     1      58.695  84.448  40.321  1.00  0.00     0.167 HD
BRANCH   7   9
HETATM    9  C   UNL     1      57.296  85.030  38.952  1.00  0.00     0.035 A 
HETATM   10  C   UNL     1      58.214  85.062  37.899  1.00  0.00     0.059 A 
HETATM   11  C   UNL     1      57.783  85.335  36.601  1.00  0.00     0.036 A 
HETATM   12  C   UNL     1      56.433  85.578  36.350  1.00  0.00     0.029 A 
HETATM   13  C   UNL     1      55.512  85.546  37.398  1.00  0.00     0.004 A 
HETATM   14  C   UNL     1      55.943  85.274  38.697  1.00  0.00     0.029 A 
BRANCH  11  15
HETATM   15  N   UNL     1      58.704  85.366  35.553  1.00  0.00    -0.327 N 
HETATM   16  C   UNL     1      59.286  86.483  34.950  1.00  0.00     0.226 C 
HETATM   17  O   UNL     1      59.106  87.662  35.223  1.00  0.00    -0.273 OA
HETATM   18  H   UNL     1      58.973  84.455  35.185  1.00  0.00     0.169 HD
BRANCH  16  19
HETATM   19  C   UNL     1      60.239  86.147  33.845  1.00  0.00     0.078 A 
HETATM   20  C   UNL     1      59.763  86.275  32.441  1.00  0.00     0.015 A 
HETATM   21  C   UNL     1      59.983  84.919  33.043  1.00  0.00     0.015 A 
ENDBRANCH  16  19
ENDBRANCH  11  15
ENDBRANCH   7   9
ENDBRANCH   3   7
BRANCH   5  22
HETATM   22  N   UNL     1      57.834  85.804  44.921  1.00  0.00    -0.341 N 
HETATM   23  H   UNL     1      58.585  85.182  45.209  1.00  0.00     0.167 HD
BRANCH  22  24
HETATM   24  C   UNL     1      57.526  86.770  45.901  1.00  0.00     0.034 A 
HETATM   25  C   UNL     1      57.306  88.096  45.530  1.00  0.00     0.045 A 
HETATM   26  C   UNL     1      57.000  89.051  46.500  1.00  0.00     0.050 A 
HETATM   27  C   UNL     1      56.915  88.679  47.842  1.00  0.00     0.016 A 
HETATM   28  C   UNL     1      57.135  87.353  48.213  1.00  0.00     0.003 A 
HETATM   29  C   UNL     1      57.440  86.398  47.243  1.00  0.00     0.029 A 
BRANCH  26  30
HETATM   30  C   UNL     1      56.766  90.470  46.103  1.00  0.00     0.417 C 
HETATM   31  F   UNL     1      57.679  90.946  45.208  1.00  0.00    -0.166 F 
HETATM   32  F   UNL     1      55.550  90.679  45.518  1.00  0.00    -0.166 F 
HETATM   33  F   UNL     1      56.813  91.326  47.166  1.00  0.00    -0.166 F 
ENDBRANCH  26  30
ENDBRANCH  22  24
ENDBRANCH   5  22
TORSDOF 7
ENDMDL
MODEL 8
REMARK VINA RESULT:      -7.0      3.081      5.144
REMARK  7 active torsions:
REMARK  status: ('A' for Active; 'I' for Inactive)
REMARK       I    between atoms: N_5  and  C_13 
REMARK    1  A    between atoms: N_5  and  C_14 
REMARK    2  A    between atoms: N_6  and  C_17 
REMARK    3  A    between atoms: N_6  and  C_20 
REMARK    4  A    between atoms: N_7  and  C_21 
REMARK    5  A    between atoms: N_7  and  C_23 
REMARK    6  A    between atoms: C_10  and  C_13 
REMARK    7  A    between atoms: C_24  and  C_29 
ROOT
HETATM    1  N   UNL     1      58.906  82.525  31.590  1.00  0.00    -0.224 NA
HETATM    2  N   UNL     1      58.922  80.355  32.636  1.00  0.00    -0.224 NA
HETATM    3  C   UNL     1      59.854  82.914  32.468  1.00  0.00     0.133 A 
HETATM    4  C   UNL     1      60.379  82.091  33.444  1.00  0.00     0.100 A 
HETATM    5  C   UNL     1      59.873  80.805  33.487  1.00  0.00     0.133 A 
HETATM    6  C   UNL     1      58.490  81.252  31.729  1.00  0.00     0.237 A 
ENDROOT
BRANCH   3   7
HETATM    7  N   UNL     1      60.349  84.239  32.395  1.00  0.00    -0.341 N 
HETATM    8  H   UNL     1      61.206  84.322  31.855  1.00  0.00     0.167 HD
BRANCH   7   9
HETATM    9  C   UNL     1      59.882  85.456  32.918  1.00  0.00     0.035 A 
HETATM   10  C   UNL     1      59.227  85.486  34.153  1.00  0.00     0.059 A 
HETATM   11  C   UNL     1      58.765  86.695  34.672  1.00  0.00     0.036 A 
HETATM   12  C   UNL     1      58.954  87.879  33.959  1.00  0.00     0.029 A 
HETATM   13  C   UNL     1      59.607  87.854  32.727  1.00  0.00     0.004 A 
HETATM   14  C   UNL     1      60.069  86.644  32.207  1.00  0.00     0.029 A 
BRANCH  11  15
HETATM   15  N   UNL     1      58.113  86.721  35.906  1.00  0.00    -0.327 N 
HETATM   16  C   UNL     1      56.740  86.787  36.153  1.00  0.00     0.226 C 
HETATM   17  O   UNL     1      55.831  86.835  35.334  1.00  0.00    -0.273 OA
HETATM   18  H   UNL     1      58.723  86.693  36.720  1.00  0.00     0.169 HD
BRANCH  16  19
HETATM   19  C   UNL     1      56.386  86.797  37.608  1.00  0.00     0.078 A 
HETATM   20  C   UNL     1      56.430  85.510  38.353  1.00  0.00     0.015 A 
HETATM   21  C   UNL     1      55.113  86.150  38.028  1.00  0.00     0.015 A 
ENDBRANCH  16  19
ENDBRANCH  11  15
ENDBRANCH   7   9
ENDBRANCH   3   7
BRANCH   5  22
HETATM   22  N   UNL     1      60.382  79.933  34.469  1.00  0.00    -0.341 N 
HETATM   23  H   UNL     1      60.958  80.410  35.159  1.00  0.00     0.167 HD
BRANCH  22  24
HETATM   24  C   UNL     1      60.529  78.532  34.517  1.00  0.00     0.034 A 
HETATM   25  C   UNL     1      59.566  77.707  33.935  1.00  0.00     0.045 A 
HETATM   26  C   UNL     1      59.714  76.322  33.982  1.00  0.00     0.050 A 
HETATM   27  C   UNL     1      60.824  75.759  34.612  1.00  0.00     0.016 A 
HETATM   28  C   UNL     1      61.787  76.583  35.195  1.00  0.00     0.003 A 
HETATM   29  C   UNL     1      61.639  77.969  35.148  1.00  0.00     0.029 A 
BRANCH  26  30
HETATM   30  C   UNL     1      58.684  75.440  33.359  1.00  0.00     0.417 C 
HETATM   31  F   UNL     1      57.471  76.045  33.196  1.00  0.00    -0.166 F 
HETATM   32  F   UNL     1      59.029  74.991  32.116  1.00  0.00    -0.166 F 
HETATM   33  F   UNL     1      58.437  74.318  34.098  1.00  0.00    -0.166 F 
ENDBRANCH  26  30
ENDBRANCH  22  24
ENDBRANCH   5  22
TORSDOF 7
ENDMDL
MODEL 9
REMARK VINA RESULT:      -7.0      4.627      8.614
REMARK  7 active torsions:
REMARK  status: ('A' for Active; 'I' for Inactive)
REMARK       I    between atoms: N_5  and  C_13 
REMARK    1  A    between atoms: N_5  and  C_14 
REMARK    2  A    between atoms: N_6  and  C_17 
REMARK    3  A    between atoms: N_6  and  C_20 
REMARK    4  A    between atoms: N_7  and  C_21 
REMARK    5  A    between atoms: N_7  and  C_23 
REMARK    6  A    between atoms: C_10  and  C_13 
REMARK    7  A    between atoms: C_24  and  C_29 
ROOT
HETATM    1  N   UNL     1      61.854  81.840  39.928  1.00  0.00    -0.224 NA
HETATM    2  N   UNL     1      61.219  82.446  42.172  1.00  0.00    -0.224 NA
HETATM    3  C   UNL     1      61.708  83.134  39.577  1.00  0.00     0.133 A 
HETATM    4  C   UNL     1      61.327  84.129  40.455  1.00  0.00     0.100 A 
HETATM    5  C   UNL     1      61.091  83.728  41.757  1.00  0.00     0.133 A 
HETATM    6  C   UNL     1      61.596  81.569  41.222  1.00  0.00     0.237 A 
ENDROOT
BRANCH   3   7
HETATM    7  N   UNL     1      61.958  83.510  38.234  1.00  0.00    -0.341 N 
HETATM    8  H   UNL     1      62.924  83.770  38.060  1.00  0.00     0.167 HD
BRANCH   7   9
HETATM    9  C   UNL     1      61.131  83.583  37.101  1.00  0.00     0.035 A 
HETATM   10  C   UNL     1      60.136  84.561  37.018  1.00  0.00     0.059 A 
HETATM   11  C   UNL     1      59.317  84.635  35.892  1.00  0.00     0.036 A 
HETATM   12  C   UNL     1      59.488  83.730  34.844  1.00  0.00     0.029 A 
HETATM   13  C   UNL     1      60.480  82.753  34.922  1.00  0.00     0.004 A 
HETATM   14  C   UNL     1      61.299  82.679  36.049  1.00  0.00     0.029 A 
BRANCH  11  15
HETATM   15  N   UNL     1      58.325  85.614  35.813  1.00  0.00    -0.327 N 
HETATM   16  C   UNL     1      56.993  85.525  36.222  1.00  0.00     0.226 C 
HETATM   17  O   UNL     1      56.428  84.568  36.735  1.00  0.00    -0.273 OA
HETATM   18  H   UNL     1      58.619  86.496  35.398  1.00  0.00     0.169 HD
BRANCH  16  19
HETATM   19  C   UNL     1      56.203  86.775  35.987  1.00  0.00     0.078 A 
HETATM   20  C   UNL     1      56.723  87.764  35.005  1.00  0.00     0.015 A 
HETATM   21  C   UNL     1      56.763  88.064  36.474  1.00  0.00     0.015 A 
ENDBRANCH  16  19
ENDBRANCH  11  15
ENDBRANCH   7   9
ENDBRANCH   3   7
BRANCH   5  22
HETATM   22  N   UNL     1      60.700  84.712  42.685  1.00  0.00    -0.341 N 
HETATM   23  H   UNL     1      61.477  85.060  43.243  1.00  0.00     0.167 HD
BRANCH  22  24
HETATM   24  C   UNL     1      59.447  85.078  43.218  1.00  0.00     0.034 A 
HETATM   25  C   UNL     1      58.294  84.949  42.444  1.00  0.00     0.045 A 
HETATM   26  C   UNL     1      57.055  85.309  42.973  1.00  0.00     0.050 A 
HETATM   27  C   UNL     1      56.968  85.799  44.276  1.00  0.00     0.016 A 
HETATM   28  C   UNL     1      58.121  85.928  45.051  1.00  0.00     0.003 A 
HETATM   29  C   UNL     1      59.360  85.567  44.522  1.00  0.00     0.029 A 
BRANCH  26  30
HETATM   30  C   UNL     1      55.821  85.172  42.145  1.00  0.00     0.417 C 
HETATM   31  F   UNL     1      54.868  86.110  42.422  1.00  0.00    -0.166 F 
HETATM   32  F   UNL     1      56.049  85.282  40.803  1.00  0.00    -0.166 F 
HETATM   33  F   UNL     1      55.207  83.964  42.314  1.00  0.00    -0.166 F 
ENDBRANCH  26  30
ENDBRANCH  22  24
ENDBRANCH   5  22
TORSDOF 7
ENDMDL
