MODEL 1
REMARK VINA RESULT:      -7.4      0.000      0.000
REMARK  7 active torsions:
REMARK  status: ('A' for Active; 'I' for Inactive)
REMARK       I    between atoms: N_5  and  C_13 
REMARK    1  A    between atoms: N_5  and  C_14 
REMARK    2  A    between atoms: N_6  and  C_17 
REMARK    3  A    between atoms: N_6  and  C_20 
REMARK    4  A    between atoms: N_7  and  C_21 
REMARK    5  A    between atoms: N_7  and  C_23 
REMARK    6  A    between atoms: C_10  and  C_13 
REMARK    7  A    between atoms: C_24  and  C_29 
ROOT
HETATM    1  N   UNL     1      60.779  82.493  32.417  1.00  0.00    -0.224 NA
HETATM    2  N   UNL     1      59.683  84.554  33.014  1.00  0.00    -0.224 NA
HETATM    3  C   UNL     1      61.046  82.299  33.725  1.00  0.00     0.133 A 
HETATM    4  C   UNL     1      60.668  83.175  34.723  1.00  0.00     0.100 A 
HETATM    5  C   UNL     1      59.981  84.302  34.310  1.00  0.00     0.133 A 
HETATM    6  C   UNL     1      60.105  83.625  32.136  1.00  0.00     0.237 A 
ENDROOT
BRANCH   3   7
HETATM    7  N   UNL     1      61.752  81.134  34.112  1.00  0.00    -0.341 N 
HETATM    8  H   UNL     1      62.751  81.189  33.933  1.00  0.00     0.167 HD
BRANCH   7   9
HETATM    9  C   UNL     1      61.340  79.926  34.699  1.00  0.00     0.035 A 
HETATM   10  C   UNL     1      60.684  78.959  33.932  1.00  0.00     0.059 A 
HETATM   11  C   UNL     1      60.277  77.760  34.516  1.00  0.00     0.036 A 
HETATM   12  C   UNL     1      60.524  77.522  35.868  1.00  0.00     0.029 A 
HETATM   13  C   UNL     1      61.178  78.484  36.637  1.00  0.00     0.004 A 
HETATM   14  C   UNL     1      61.585  79.684  36.053  1.00  0.00     0.029 A 
BRANCH  11  15
HETATM   15  N   UNL     1      59.623  76.796  33.746  1.00  0.00    -0.327 N 
HETATM   16  C   UNL     1      58.249  76.639  33.549  1.00  0.00     0.226 C 
HETATM   17  O   UNL     1      57.342  77.318  34.012  1.00  0.00    -0.273 OA
HETATM   18  H   UNL     1      60.232  76.127  33.281  1.00  0.00     0.169 HD
BRANCH  16  19
HETATM   19  C   UNL     1      57.893  75.491  32.656  1.00  0.00     0.078 A 
HETATM   20  C   UNL     1      58.998  74.692  32.060  1.00  0.00     0.015 A 
HETATM   21  C   UNL     1      58.183  75.614  31.201  1.00  0.00     0.015 A 
ENDBRANCH  16  19
ENDBRANCH  11  15
ENDBRANCH   7   9
ENDBRANCH   3   7
BRANCH   5  22
HETATM   22  N   UNL     1      59.578  85.221  35.298  1.00  0.00    -0.341 N 
HETATM   23  H   UNL     1      60.151  85.177  36.137  1.00  0.00     0.167 HD
BRANCH  22  24
HETATM   24  C   UNL     1      58.384  85.945  35.498  1.00  0.00     0.034 A 
HETATM   25  C   UNL     1      57.434  85.486  36.411  1.00  0.00     0.045 A 
HETATM   26  C   UNL     1      56.255  86.204  36.609  1.00  0.00     0.050 A 
HETATM   27  C   UNL     1      56.024  87.379  35.895  1.00  0.00     0.016 A 
HETATM   28  C   UNL     1      56.973  87.838  34.982  1.00  0.00     0.003 A 
HETATM   29  C   UNL     1      58.154  87.121  34.784  1.00  0.00     0.029 A 
BRANCH  26  30
HETATM   30  C   UNL     1      55.238  85.713  37.586  1.00  0.00     0.417 C 
HETATM   31  F   UNL     1      55.069  86.538  38.661  1.00  0.00    -0.166 F 
HETATM   32  F   UNL     1      53.991  85.568  37.049  1.00  0.00    -0.166 F 
HETATM   33  F   UNL     1      55.557  84.492  38.108  1.00  0.00    -0.166 F 
ENDBRANCH  26  30
ENDBRANCH  22  24
ENDBRANCH   5  22
TORSDOF 7
ENDMDL
MODEL 2
REMARK VINA RESULT:      -7.3      1.560      2.500
REMARK  7 active torsions:
REMARK  status: ('A' for Active; 'I' for Inactive)
REMARK       I    between atoms: N_5  and  C_13 
REMARK    1  A    between atoms: N_5  and  C_14 
REMARK    2  A    between atoms: N_6  and  C_17 
REMARK    3  A    between atoms: N_6  and  C_20 
REMARK    4  A    between atoms: N_7  and  C_21 
REMARK    5  A    between atoms: N_7  and  C_23 
REMARK    6  A    between atoms: C_10  and  C_13 
REMARK    7  A    between atoms: C_24  and  C_29 
ROOT
HETATM    1  N   UNL     1      61.758  82.532  36.977  1.00  0.00    -0.224 NA
HETATM    2  N   UNL     1      61.027  84.700  37.734  1.00  0.00    -0.224 NA
HETATM    3  C   UNL     1      61.262  82.831  35.758  1.00  0.00     0.133 A 
HETATM    4  C   UNL     1      60.644  84.028  35.455  1.00  0.00     0.100 A 
HETATM    5  C   UNL     1      60.550  84.940  36.491  1.00  0.00     0.133 A 
HETATM    6  C   UNL     1      61.608  83.497  37.904  1.00  0.00     0.237 A 
ENDROOT
BRANCH   3   7
HETATM    7  N   UNL     1      61.374  81.873  34.721  1.00  0.00    -0.341 N 
HETATM    8  H   UNL     1      62.335  81.627  34.500  1.00  0.00     0.167 HD
BRANCH   7   9
HETATM    9  C   UNL     1      60.417  81.196  33.948  1.00  0.00     0.035 A 
HETATM   10  C   UNL     1      60.325  79.803  34.002  1.00  0.00     0.059 A 
HETATM   11  C   UNL     1      59.373  79.132  33.236  1.00  0.00     0.036 A 
HETATM   12  C   UNL     1      58.508  79.852  32.411  1.00  0.00     0.029 A 
HETATM   13  C   UNL     1      58.595  81.242  32.354  1.00  0.00     0.004 A 
HETATM   14  C   UNL     1      59.548  81.913  33.120  1.00  0.00     0.029 A 
BRANCH  11  15
HETATM   15  N   UNL     1      59.285  77.740  33.293  1.00  0.00    -0.327 N 
HETATM   16  C   UNL     1      58.185  76.962  33.659  1.00  0.00     0.226 C 
HETATM   17  O   UNL     1      57.074  77.346  34.002  1.00  0.00    -0.273 OA
HETATM   18  H   UNL     1      60.135  77.241  33.041  1.00  0.00     0.169 HD
BRANCH  16  19
HETATM   19  C   UNL     1      58.442  75.488  33.608  1.00  0.00     0.078 A 
HETATM   20  C   UNL     1      59.812  75.000  33.924  1.00  0.00     0.015 A 
HETATM   21  C   UNL     1      59.302  74.960  32.514  1.00  0.00     0.015 A 
ENDBRANCH  16  19
ENDBRANCH  11  15
ENDBRANCH   7   9
ENDBRANCH   3   7
BRANCH   5  22
HETATM   22  N   UNL     1      59.927  86.174  36.222  1.00  0.00    -0.341 N 
HETATM   23  H   UNL     1      60.535  86.970  36.401  1.00  0.00     0.167 HD
BRANCH  22  24
HETATM   24  C   UNL     1      58.575  86.548  36.073  1.00  0.00     0.034 A 
HETATM   25  C   UNL     1      57.601  85.995  36.905  1.00  0.00     0.045 A 
HETATM   26  C   UNL     1      56.266  86.367  36.758  1.00  0.00     0.050 A 
HETATM   27  C   UNL     1      55.903  87.293  35.779  1.00  0.00     0.016 A 
HETATM   28  C   UNL     1      56.876  87.846  34.948  1.00  0.00     0.003 A 
HETATM   29  C   UNL     1      58.213  87.474  35.095  1.00  0.00     0.029 A 
BRANCH  26  30
HETATM   30  C   UNL     1      55.224  85.775  37.647  1.00  0.00     0.417 C 
HETATM   31  F   UNL     1      55.047  86.460  38.814  1.00  0.00    -0.166 F 
HETATM   32  F   UNL     1      53.985  85.720  37.074  1.00  0.00    -0.166 F 
HETATM   33  F   UNL     1      55.515  84.493  38.015  1.00  0.00    -0.166 F 
ENDBRANCH  26  30
ENDBRANCH  22  24
ENDBRANCH   5  22
TORSDOF 7
ENDMDL
MODEL 3
REMARK VINA RESULT:      -7.3      7.968     12.684
REMARK  7 active torsions:
REMARK  status: ('A' for Active; 'I' for Inactive)
REMARK       I    between atoms: N_5  and  C_13 
REMARK    1  A    between atoms: N_5  and  C_14 
REMARK    2  A    between atoms: N_6  and  C_17 
REMARK    3  A    between atoms: N_6  and  C_20 
REMARK    4  A    between atoms: N_7  and  C_21 
REMARK    5  A    between atoms: N_7  and  C_23 
REMARK    6  A    between atoms: C_10  and  C_13 
REMARK    7  A    between atoms: C_24  and  C_29 
ROOT
HETATM    1  N   UNL     1      55.571  85.611  43.807  1.00  0.00    -0.224 NA
HETATM    2  N   UNL     1      55.668  84.940  41.495  1.00  0.00    -0.224 NA
HETATM    3  C   UNL     1      56.914  85.492  43.859  1.00  0.00     0.133 A 
HETATM    4  C   UNL     1      57.692  85.108  42.786  1.00  0.00     0.100 A 
HETATM    5  C   UNL     1      57.012  84.839  41.611  1.00  0.00     0.133 A 
HETATM    6  C   UNL     1      55.021  85.323  42.612  1.00  0.00     0.237 A 
ENDROOT
BRANCH   3   7
HETATM    7  N   UNL     1      57.578  85.774  45.078  1.00  0.00    -0.341 N 
HETATM    8  H   UNL     1      58.332  85.126  45.288  1.00  0.00     0.167 HD
BRANCH   7   9
HETATM    9  C   UNL     1      57.398  86.777  46.045  1.00  0.00     0.035 A 
HETATM   10  C   UNL     1      57.452  88.125  45.680  1.00  0.00     0.059 A 
HETATM   11  C   UNL     1      57.272  89.120  46.640  1.00  0.00     0.036 A 
HETATM   12  C   UNL     1      57.038  88.771  47.971  1.00  0.00     0.029 A 
HETATM   13  C   UNL     1      56.983  87.428  48.340  1.00  0.00     0.004 A 
HETATM   14  C   UNL     1      57.164  86.432  47.379  1.00  0.00     0.029 A 
BRANCH  11  15
HETATM   15  N   UNL     1      57.325  90.464  46.271  1.00  0.00    -0.327 N 
HETATM   16  C   UNL     1      56.328  91.231  45.664  1.00  0.00     0.226 C 
HETATM   17  O   UNL     1      55.204  90.876  45.336  1.00  0.00    -0.273 OA
HETATM   18  H   UNL     1      58.207  90.933  46.466  1.00  0.00     0.169 HD
BRANCH  16  19
HETATM   19  C   UNL     1      56.728  92.651  45.407  1.00  0.00     0.078 A 
HETATM   20  C   UNL     1      55.873  93.472  44.508  1.00  0.00     0.015 A 
HETATM   21  C   UNL     1      57.224  93.008  44.050  1.00  0.00     0.015 A 
ENDBRANCH  16  19
ENDBRANCH  11  15
ENDBRANCH   7   9
ENDBRANCH   3   7
BRANCH   5  22
HETATM   22  N   UNL     1      57.770  84.445  40.492  1.00  0.00    -0.341 N 
HETATM   23  H   UNL     1      58.642  83.986  40.746  1.00  0.00     0.167 HD
BRANCH  22  24
HETATM   24  C   UNL     1      57.737  84.826  39.134  1.00  0.00     0.034 A 
HETATM   25  C   UNL     1      56.546  85.273  38.563  1.00  0.00     0.045 A 
HETATM   26  C   UNL     1      56.514  85.652  37.221  1.00  0.00     0.050 A 
HETATM   27  C   UNL     1      57.675  85.583  36.450  1.00  0.00     0.016 A 
HETATM   28  C   UNL     1      58.866  85.136  37.021  1.00  0.00     0.003 A 
HETATM   29  C   UNL     1      58.897  84.758  38.363  1.00  0.00     0.029 A 
BRANCH  26  30
HETATM   30  C   UNL     1      55.240  86.129  36.609  1.00  0.00     0.417 C 
HETATM   31  F   UNL     1      54.197  86.182  37.488  1.00  0.00    -0.166 F 
HETATM   32  F   UNL     1      55.326  87.386  36.082  1.00  0.00    -0.166 F 
HETATM   33  F   UNL     1      54.817  85.330  35.586  1.00  0.00    -0.166 F 
ENDBRANCH  26  30
ENDBRANCH  22  24
ENDBRANCH   5  22
TORSDOF 7
ENDMDL
MODEL 4
REMARK VINA RESULT:      -7.3      4.173      6.461
REMARK  7 active torsions:
REMARK  status: ('A' for Active; 'I' for Inactive)
REMARK       I    between atoms: N_5  and  C_13 
REMARK    1  A    between atoms: N_5  and  C_14 
REMARK    2  A    between atoms: N_6  and  C_17 
REMARK    3  A    between atoms: N_6  and  C_20 
REMARK    4  A    between atoms: N_7  and  C_21 
REMARK    5  A    between atoms: N_7  and  C_23 
REMARK    6  A    between atoms: C_10  and  C_13 
REMARK    7  A    between atoms: C_24  and  C_29 
ROOT
HETATM    1  N   UNL     1      56.675  86.622  36.402  1.00  0.00    -0.224 NA
HETATM    2  N   UNL     1      55.414  85.900  38.324  1.00  0.00    -0.224 NA
HETATM    3  C   UNL     1      57.719  85.904  36.863  1.00  0.00     0.133 A 
HETATM    4  C   UNL     1      57.688  85.168  38.030  1.00  0.00     0.100 A 
HETATM    5  C   UNL     1      56.497  85.199  38.733  1.00  0.00     0.133 A 
HETATM    6  C   UNL     1      55.570  86.577  37.171  1.00  0.00     0.237 A 
ENDROOT
BRANCH   3   7
HETATM    7  N   UNL     1      58.924  85.896  36.118  1.00  0.00    -0.341 N 
HETATM    8  H   UNL     1      59.643  86.500  36.505  1.00  0.00     0.167 HD
BRANCH   7   9
HETATM    9  C   UNL     1      59.315  85.210  34.956  1.00  0.00     0.035 A 
HETATM   10  C   UNL     1      59.226  83.816  34.897  1.00  0.00     0.059 A 
HETATM   11  C   UNL     1      59.613  83.137  33.743  1.00  0.00     0.036 A 
HETATM   12  C   UNL     1      60.091  83.848  32.642  1.00  0.00     0.029 A 
HETATM   13  C   UNL     1      60.181  85.238  32.695  1.00  0.00     0.004 A 
HETATM   14  C   UNL     1      59.795  85.918  33.851  1.00  0.00     0.029 A 
BRANCH  11  15
HETATM   15  N   UNL     1      59.521  81.745  33.688  1.00  0.00    -0.327 N 
HETATM   16  C   UNL     1      58.808  80.964  32.776  1.00  0.00     0.226 C 
HETATM   17  O   UNL     1      58.119  81.346  31.839  1.00  0.00    -0.273 OA
HETATM   18  H   UNL     1      60.038  81.248  34.411  1.00  0.00     0.169 HD
BRANCH  16  19
HETATM   19  C   UNL     1      58.933  79.491  33.013  1.00  0.00     0.078 A 
HETATM   20  C   UNL     1      60.096  78.999  33.800  1.00  0.00     0.015 A 
HETATM   21  C   UNL     1      60.027  78.757  32.321  1.00  0.00     0.015 A 
ENDBRANCH  16  19
ENDBRANCH  11  15
ENDBRANCH   7   9
ENDBRANCH   3   7
BRANCH   5  22
HETATM   22  N   UNL     1      56.423  84.460  39.930  1.00  0.00    -0.341 N 
HETATM   23  H   UNL     1      56.008  83.541  39.801  1.00  0.00     0.167 HD
BRANCH  22  24
HETATM   24  C   UNL     1      56.501  84.832  41.288  1.00  0.00     0.034 A 
HETATM   25  C   UNL     1      57.744  84.943  41.912  1.00  0.00     0.045 A 
HETATM   26  C   UNL     1      57.820  85.312  43.254  1.00  0.00     0.050 A 
HETATM   27  C   UNL     1      56.653  85.572  43.973  1.00  0.00     0.016 A 
HETATM   28  C   UNL     1      55.410  85.461  43.350  1.00  0.00     0.003 A 
HETATM   29  C   UNL     1      55.335  85.092  42.007  1.00  0.00     0.029 A 
BRANCH  26  30
HETATM   30  C   UNL     1      59.149  85.430  43.922  1.00  0.00     0.417 C 
HETATM   31  F   UNL     1      59.247  86.503  44.760  1.00  0.00    -0.166 F 
HETATM   32  F   UNL     1      59.473  84.348  44.689  1.00  0.00    -0.166 F 
HETATM   33  F   UNL     1      60.174  85.567  43.030  1.00  0.00    -0.166 F 
ENDBRANCH  26  30
ENDBRANCH  22  24
ENDBRANCH   5  22
TORSDOF 7
ENDMDL
MODEL 5
REMARK VINA RESULT:      -7.1      4.342      9.286
REMARK  7 active torsions:
REMARK  status: ('A' for Active; 'I' for Inactive)
REMARK       I    between atoms: N_5  and  C_13 
REMARK    1  A    between atoms: N_5  and  C_14 
REMARK    2  A    between atoms: N_6  and  C_17 
REMARK    3  A    between atoms: N_6  and  C_20 
REMARK    4  A    between atoms: N_7  and  C_21 
REMARK    5  A    between atoms: N_7  and  C_23 
REMARK    6  A    between atoms: C_10  and  C_13 
REMARK    7  A    between atoms: C_24  and  C_29 
ROOT
HETATM    1  N   UNL     1      58.808  82.630  31.432  1.00  0.00    -0.224 NA
HETATM    2  N   UNL     1      58.723  80.436  32.424  1.00  0.00    -0.224 NA
HETATM    3  C   UNL     1      59.782  82.949  32.309  1.00  0.00     0.133 A 
HETATM    4  C   UNL     1      60.273  82.077  33.260  1.00  0.00     0.100 A 
HETATM    5  C   UNL     1      59.703  80.817  33.277  1.00  0.00     0.133 A 
HETATM    6  C   UNL     1      58.330  81.376  31.544  1.00  0.00     0.237 A 
ENDROOT
BRANCH   3   7
HETATM    7  N   UNL     1      60.343  84.249  32.264  1.00  0.00    -0.341 N 
HETATM    8  H   UNL     1      61.204  84.300  31.726  1.00  0.00     0.167 HD
BRANCH   7   9
HETATM    9  C   UNL     1      59.936  85.477  32.811  1.00  0.00     0.035 A 
HETATM   10  C   UNL     1      59.263  85.513  34.036  1.00  0.00     0.059 A 
HETATM   11  C   UNL     1      58.861  86.732  34.579  1.00  0.00     0.036 A 
HETATM   12  C   UNL     1      59.129  87.922  33.900  1.00  0.00     0.029 A 
HETATM   13  C   UNL     1      59.800  87.890  32.678  1.00  0.00     0.004 A 
HETATM   14  C   UNL     1      60.202  86.670  32.134  1.00  0.00     0.029 A 
BRANCH  11  15
HETATM   15  N   UNL     1      58.190  86.764  35.803  1.00  0.00    -0.327 N 
HETATM   16  C   UNL     1      56.825  86.955  36.032  1.00  0.00     0.226 C 
HETATM   17  O   UNL     1      55.943  87.132  35.203  1.00  0.00    -0.273 OA
HETATM   18  H   UNL     1      58.778  86.637  36.623  1.00  0.00     0.169 HD
BRANCH  16  19
HETATM   19  C   UNL     1      56.446  86.930  37.480  1.00  0.00     0.078 A 
HETATM   20  C   UNL     1      56.624  85.660  38.234  1.00  0.00     0.015 A 
HETATM   21  C   UNL     1      55.248  86.143  37.881  1.00  0.00     0.015 A 
ENDBRANCH  16  19
ENDBRANCH  11  15
ENDBRANCH   7   9
ENDBRANCH   3   7
BRANCH   5  22
HETATM   22  N   UNL     1      60.176  79.897  34.232  1.00  0.00    -0.341 N 
HETATM   23  H   UNL     1      60.824  80.315  34.897  1.00  0.00     0.167 HD
BRANCH  22  24
HETATM   24  C   UNL     1      60.199  78.487  34.270  1.00  0.00     0.034 A 
HETATM   25  C   UNL     1      59.328  77.752  33.467  1.00  0.00     0.045 A 
HETATM   26  C   UNL     1      59.352  76.359  33.504  1.00  0.00     0.050 A 
HETATM   27  C   UNL     1      60.249  75.699  34.346  1.00  0.00     0.016 A 
HETATM   28  C   UNL     1      61.120  76.433  35.150  1.00  0.00     0.003 A 
HETATM   29  C   UNL     1      61.096  77.828  35.112  1.00  0.00     0.029 A 
BRANCH  26  30
HETATM   30  C   UNL     1      58.420  75.572  32.645  1.00  0.00     0.417 C 
HETATM   31  F   UNL     1      57.974  76.257  31.552  1.00  0.00    -0.166 F 
HETATM   32  F   UNL     1      58.972  74.426  32.148  1.00  0.00    -0.166 F 
HETATM   33  F   UNL     1      57.297  75.177  33.314  1.00  0.00    -0.166 F 
ENDBRANCH  26  30
ENDBRANCH  22  24
ENDBRANCH   5  22
TORSDOF 7
ENDMDL
MODEL 6
REMARK VINA RESULT:      -7.0      6.878     10.053
REMARK  7 active torsions:
REMARK  status: ('A' for Active; 'I' for Inactive)
REMARK       I    between atoms: N_5  and  C_13 
REMARK    1  A    between atoms: N_5  and  C_14 
REMARK    2  A    between atoms: N_6  and  C_17 
REMARK    3  A    between atoms: N_6  and  C_20 
REMARK    4  A    between atoms: N_7  and  C_21 
REMARK    5  A    between atoms: N_7  and  C_23 
REMARK    6  A    between atoms: C_10  and  C_13 
REMARK    7  A    between atoms: C_24  and  C_29 
ROOT
HETATM    1  N   UNL     1      55.784  84.396  41.519  1.00  0.00    -0.224 NA
HETATM    2  N   UNL     1      55.833  84.881  43.879  1.00  0.00    -0.224 NA
HETATM    3  C   UNL     1      57.066  84.811  41.445  1.00  0.00     0.133 A 
HETATM    4  C   UNL     1      57.788  85.268  42.529  1.00  0.00     0.100 A 
HETATM    5  C   UNL     1      57.118  85.284  43.739  1.00  0.00     0.133 A 
HETATM    6  C   UNL     1      55.237  84.458  42.748  1.00  0.00     0.237 A 
ENDROOT
BRANCH   3   7
HETATM    7  N   UNL     1      57.721  84.781  40.190  1.00  0.00    -0.341 N 
HETATM    8  H   UNL     1      58.692  84.488  40.247  1.00  0.00     0.167 HD
BRANCH   7   9
HETATM    9  C   UNL     1      57.286  85.073  38.886  1.00  0.00     0.035 A 
HETATM   10  C   UNL     1      58.196  85.083  37.826  1.00  0.00     0.059 A 
HETATM   11  C   UNL     1      57.763  85.370  36.532  1.00  0.00     0.036 A 
HETATM   12  C   UNL     1      56.417  85.649  36.293  1.00  0.00     0.029 A 
HETATM   13  C   UNL     1      55.505  85.641  37.348  1.00  0.00     0.004 A 
HETATM   14  C   UNL     1      55.939  85.354  38.642  1.00  0.00     0.029 A 
BRANCH  11  15
HETATM   15  N   UNL     1      58.675  85.378  35.476  1.00  0.00    -0.327 N 
HETATM   16  C   UNL     1      59.405  86.459  34.976  1.00  0.00     0.226 C 
HETATM   17  O   UNL     1      59.390  87.619  35.367  1.00  0.00    -0.273 OA
HETATM   18  H   UNL     1      58.814  84.481  35.016  1.00  0.00     0.169 HD
BRANCH  16  19
HETATM   19  C   UNL     1      60.298  86.108  33.827  1.00  0.00     0.078 A 
HETATM   20  C   UNL     1      59.744  86.199  32.449  1.00  0.00     0.015 A 
HETATM   21  C   UNL     1      60.011  84.859  33.069  1.00  0.00     0.015 A 
ENDBRANCH  16  19
ENDBRANCH  11  15
ENDBRANCH   7   9
ENDBRANCH   3   7
BRANCH   5  22
HETATM   22  N   UNL     1      57.819  85.743  44.870  1.00  0.00    -0.341 N 
HETATM   23  H   UNL     1      58.564  85.112  45.156  1.00  0.00     0.167 HD
BRANCH  22  24
HETATM   24  C   UNL     1      57.514  86.700  45.860  1.00  0.00     0.034 A 
HETATM   25  C   UNL     1      57.285  88.028  45.500  1.00  0.00     0.045 A 
HETATM   26  C   UNL     1      56.981  88.974  46.479  1.00  0.00     0.050 A 
HETATM   27  C   UNL     1      56.906  88.591  47.818  1.00  0.00     0.016 A 
HETATM   28  C   UNL     1      57.136  87.264  48.179  1.00  0.00     0.003 A 
HETATM   29  C   UNL     1      57.439  86.318  47.199  1.00  0.00     0.029 A 
BRANCH  26  30
HETATM   30  C   UNL     1      56.736  90.394  46.095  1.00  0.00     0.417 C 
HETATM   31  F   UNL     1      55.489  90.617  45.585  1.00  0.00    -0.166 F 
HETATM   32  F   UNL     1      56.858  91.270  47.135  1.00  0.00    -0.166 F 
HETATM   33  F   UNL     1      57.606  90.837  45.140  1.00  0.00    -0.166 F 
ENDBRANCH  26  30
ENDBRANCH  22  24
ENDBRANCH   5  22
TORSDOF 7
ENDMDL
MODEL 7
REMARK VINA RESULT:      -7.0      6.444     10.178
REMARK  7 active torsions:
REMARK  status: ('A' for Active; 'I' for Inactive)
REMARK       I    between atoms: N_5  and  C_13 
REMARK    1  A    between atoms: N_5  and  C_14 
REMARK    2  A    between atoms: N_6  and  C_17 
REMARK    3  A    between atoms: N_6  and  C_20 
REMARK    4  A    between atoms: N_7  and  C_21 
REMARK    5  A    between atoms: N_7  and  C_23 
REMARK    6  A    between atoms: C_10  and  C_13 
REMARK    7  A    between atoms: C_24  and  C_29 
ROOT
HETATM    1  N   UNL     1      60.783  82.986  41.273  1.00  0.00    -0.224 NA
HETATM    2  N   UNL     1      61.103  82.510  38.933  1.00  0.00    -0.224 NA
HETATM    3  C   UNL     1      60.067  84.072  40.917  1.00  0.00     0.133 A 
HETATM    4  C   UNL     1      59.829  84.437  39.607  1.00  0.00     0.100 A 
HETATM    5  C   UNL     1      60.376  83.613  38.640  1.00  0.00     0.133 A 
HETATM    6  C   UNL     1      61.265  82.261  40.246  1.00  0.00     0.237 A 
ENDROOT
BRANCH   3   7
HETATM    7  N   UNL     1      59.523  84.894  41.933  1.00  0.00    -0.341 N 
HETATM    8  H   UNL     1      60.203  85.517  42.358  1.00  0.00     0.167 HD
BRANCH   7   9
HETATM    9  C   UNL     1      58.226  85.018  42.459  1.00  0.00     0.035 A 
HETATM   10  C   UNL     1      58.040  85.345  43.805  1.00  0.00     0.059 A 
HETATM   11  C   UNL     1      56.753  85.468  44.326  1.00  0.00     0.036 A 
HETATM   12  C   UNL     1      55.644  85.266  43.503  1.00  0.00     0.029 A 
HETATM   13  C   UNL     1      55.824  84.939  42.159  1.00  0.00     0.004 A 
HETATM   14  C   UNL     1      57.113  84.815  41.638  1.00  0.00     0.029 A 
BRANCH  11  15
HETATM   15  N   UNL     1      56.572  85.796  45.670  1.00  0.00    -0.327 N 
HETATM   16  C   UNL     1      57.113  86.874  46.375  1.00  0.00     0.226 C 
HETATM   17  O   UNL     1      57.855  87.750  45.951  1.00  0.00    -0.273 OA
HETATM   18  H   UNL     1      55.975  85.161  46.195  1.00  0.00     0.169 HD
BRANCH  16  19
HETATM   19  C   UNL     1      56.707  86.922  47.814  1.00  0.00     0.078 A 
HETATM   20  C   UNL     1      57.734  86.624  48.848  1.00  0.00     0.015 A 
HETATM   21  C   UNL     1      56.636  85.642  48.569  1.00  0.00     0.015 A 
ENDBRANCH  16  19
ENDBRANCH  11  15
ENDBRANCH   7   9
ENDBRANCH   3   7
BRANCH   5  22
HETATM   22  N   UNL     1      60.155  83.951  37.291  1.00  0.00    -0.341 N 
HETATM   23  H   UNL     1      60.796  83.480  36.656  1.00  0.00     0.167 HD
BRANCH  22  24
HETATM   24  C   UNL     1      59.471  85.018  36.673  1.00  0.00     0.034 A 
HETATM   25  C   UNL     1      58.079  85.084  36.734  1.00  0.00     0.045 A 
HETATM   26  C   UNL     1      57.403  86.141  36.125  1.00  0.00     0.050 A 
HETATM   27  C   UNL     1      58.119  87.132  35.454  1.00  0.00     0.016 A 
HETATM   28  C   UNL     1      59.511  87.067  35.393  1.00  0.00     0.003 A 
HETATM   29  C   UNL     1      60.187  86.010  36.003  1.00  0.00     0.029 A 
BRANCH  26  30
HETATM   30  C   UNL     1      55.914  86.211  36.189  1.00  0.00     0.417 C 
HETATM   31  F   UNL     1      55.301  85.003  36.015  1.00  0.00    -0.166 F 
HETATM   32  F   UNL     1      55.441  86.683  37.380  1.00  0.00    -0.166 F 
HETATM   33  F   UNL     1      55.385  87.031  35.234  1.00  0.00    -0.166 F 
ENDBRANCH  26  30
ENDBRANCH  22  24
ENDBRANCH   5  22
TORSDOF 7
ENDMDL
MODEL 8
REMARK VINA RESULT:      -6.9      5.895      9.799
REMARK  7 active torsions:
REMARK  status: ('A' for Active; 'I' for Inactive)
REMARK       I    between atoms: N_5  and  C_13 
REMARK    1  A    between atoms: N_5  and  C_14 
REMARK    2  A    between atoms: N_6  and  C_17 
REMARK    3  A    between atoms: N_6  and  C_20 
REMARK    4  A    between atoms: N_7  and  C_21 
REMARK    5  A    between atoms: N_7  and  C_23 
REMARK    6  A    between atoms: C_10  and  C_13 
REMARK    7  A    between atoms: C_24  and  C_29 
ROOT
HETATM    1  N   UNL     1      55.510  85.857  38.583  1.00  0.00    -0.224 NA
HETATM    2  N   UNL     1      56.719  86.600  36.636  1.00  0.00    -0.224 NA
HETATM    3  C   UNL     1      56.604  85.157  38.949  1.00  0.00     0.133 A 
HETATM    4  C   UNL     1      57.777  85.131  38.221  1.00  0.00     0.100 A 
HETATM    5  C   UNL     1      57.783  85.878  37.057  1.00  0.00     0.133 A 
HETATM    6  C   UNL     1      55.634  86.545  37.432  1.00  0.00     0.237 A 
ENDROOT
BRANCH   3   7
HETATM    7  N   UNL     1      56.563  84.402  40.147  1.00  0.00    -0.341 N 
HETATM    8  H   UNL     1      56.462  83.403  39.993  1.00  0.00     0.167 HD
BRANCH   7   9
HETATM    9  C   UNL     1      56.641  84.768  41.501  1.00  0.00     0.035 A 
HETATM   10  C   UNL     1      57.873  85.096  42.073  1.00  0.00     0.059 A 
HETATM   11  C   UNL     1      57.949  85.460  43.416  1.00  0.00     0.036 A 
HETATM   12  C   UNL     1      56.792  85.499  44.195  1.00  0.00     0.029 A 
HETATM   13  C   UNL     1      55.560  85.173  43.630  1.00  0.00     0.004 A 
HETATM   14  C   UNL     1      55.484  84.808  42.286  1.00  0.00     0.029 A 
BRANCH  11  15
HETATM   15  N   UNL     1      59.182  85.787  43.983  1.00  0.00    -0.327 N 
HETATM   16  C   UNL     1      60.172  84.920  44.450  1.00  0.00     0.226 C 
HETATM   17  O   UNL     1      60.156  83.696  44.456  1.00  0.00    -0.273 OA
HETATM   18  H   UNL     1      59.371  86.784  44.065  1.00  0.00     0.169 HD
BRANCH  16  19
HETATM   19  C   UNL     1      61.378  85.617  44.999  1.00  0.00     0.078 A 
HETATM   20  C   UNL     1      61.246  86.345  46.290  1.00  0.00     0.015 A 
HETATM   21  C   UNL     1      61.389  87.106  45.005  1.00  0.00     0.015 A 
ENDBRANCH  16  19
ENDBRANCH  11  15
ENDBRANCH   7   9
ENDBRANCH   3   7
BRANCH   5  22
HETATM   22  N   UNL     1      58.960  85.878  36.285  1.00  0.00    -0.341 N 
HETATM   23  H   UNL     1      59.604  86.621  36.546  1.00  0.00     0.167 HD
BRANCH  22  24
HETATM   24  C   UNL     1      59.290  85.288  35.047  1.00  0.00     0.034 A 
HETATM   25  C   UNL     1      59.384  83.901  34.936  1.00  0.00     0.045 A 
HETATM   26  C   UNL     1      59.708  83.320  33.711  1.00  0.00     0.050 A 
HETATM   27  C   UNL     1      59.939  84.125  32.596  1.00  0.00     0.016 A 
HETATM   28  C   UNL     1      59.846  85.512  32.706  1.00  0.00     0.003 A 
HETATM   29  C   UNL     1      59.521  86.094  33.932  1.00  0.00     0.029 A 
BRANCH  26  30
HETATM   30  C   UNL     1      59.809  81.836  33.592  1.00  0.00     0.417 C 
HETATM   31  F   UNL     1      60.483  81.420  32.480  1.00  0.00    -0.166 F 
HETATM   32  F   UNL     1      60.456  81.247  34.641  1.00  0.00    -0.166 F 
HETATM   33  F   UNL     1      58.587  81.230  33.529  1.00  0.00    -0.166 F 
ENDBRANCH  26  30
ENDBRANCH  22  24
ENDBRANCH   5  22
TORSDOF 7
ENDMDL
MODEL 9
REMARK VINA RESULT:      -6.8      2.892      4.382
REMARK  7 active torsions:
REMARK  status: ('A' for Active; 'I' for Inactive)
REMARK       I    between atoms: N_5  and  C_13 
REMARK    1  A    between atoms: N_5  and  C_14 
REMARK    2  A    between atoms: N_6  and  C_17 
REMARK    3  A    between atoms: N_6  and  C_20 
REMARK    4  A    between atoms: N_7  and  C_21 
REMARK    5  A    between atoms: N_7  and  C_23 
REMARK    6  A    between atoms: C_10  and  C_13 
REMARK    7  A    between atoms: C_24  and  C_29 
ROOT
HETATM    1  N   UNL     1      59.633  86.001  33.771  1.00  0.00    -0.224 NA
HETATM    2  N   UNL     1      58.140  87.068  35.333  1.00  0.00    -0.224 NA
HETATM    3  C   UNL     1      59.395  84.831  34.401  1.00  0.00     0.133 A 
HETATM    4  C   UNL     1      58.554  84.703  35.488  1.00  0.00     0.100 A 
HETATM    5  C   UNL     1      57.943  85.865  35.921  1.00  0.00     0.133 A 
HETATM    6  C   UNL     1      58.982  87.064  34.282  1.00  0.00     0.237 A 
ENDROOT
BRANCH   3   7
HETATM    7  N   UNL     1      60.039  83.660  33.931  1.00  0.00    -0.341 N 
HETATM    8  H   UNL     1      60.985  83.549  34.284  1.00  0.00     0.167 HD
BRANCH   7   9
HETATM    9  C   UNL     1      59.619  82.625  33.080  1.00  0.00     0.035 A 
HETATM   10  C   UNL     1      59.501  81.319  33.565  1.00  0.00     0.059 A 
HETATM   11  C   UNL     1      59.083  80.292  32.720  1.00  0.00     0.036 A 
HETATM   12  C   UNL     1      58.780  80.565  31.386  1.00  0.00     0.029 A 
HETATM   13  C   UNL     1      58.896  81.867  30.897  1.00  0.00     0.004 A 
HETATM   14  C   UNL     1      59.315  82.894  31.743  1.00  0.00     0.029 A 
BRANCH  11  15
HETATM   15  N   UNL     1      58.966  78.990  33.209  1.00  0.00    -0.327 N 
HETATM   16  C   UNL     1      57.799  78.285  33.511  1.00  0.00     0.226 C 
HETATM   17  O   UNL     1      56.642  78.670  33.406  1.00  0.00    -0.273 OA
HETATM   18  H   UNL     1      59.847  78.505  33.366  1.00  0.00     0.169 HD
BRANCH  16  19
HETATM   19  C   UNL     1      58.043  76.898  34.018  1.00  0.00     0.078 A 
HETATM   20  C   UNL     1      59.286  76.199  33.591  1.00  0.00     0.015 A 
HETATM   21  C   UNL     1      57.953  75.769  33.053  1.00  0.00     0.015 A 
ENDBRANCH  16  19
ENDBRANCH  11  15
ENDBRANCH   7   9
ENDBRANCH   3   7
BRANCH   5  22
HETATM   22  N   UNL     1      57.077  85.777  37.027  1.00  0.00    -0.341 N 
HETATM   23  H   UNL     1      56.269  86.391  36.947  1.00  0.00     0.167 HD
BRANCH  22  24
HETATM   24  C   UNL     1      57.246  85.277  38.335  1.00  0.00     0.034 A 
HETATM   25  C   UNL     1      58.492  84.802  38.745  1.00  0.00     0.045 A 
HETATM   26  C   UNL     1      58.659  84.309  40.039  1.00  0.00     0.050 A 
HETATM   27  C   UNL     1      57.580  84.290  40.923  1.00  0.00     0.016 A 
HETATM   28  C   UNL     1      56.334  84.764  40.513  1.00  0.00     0.003 A 
HETATM   29  C   UNL     1      56.167  85.258  39.219  1.00  0.00     0.029 A 
BRANCH  26  30
HETATM   30  C   UNL     1      59.991  83.801  40.478  1.00  0.00     0.417 C 
HETATM   31  F   UNL     1      61.023  84.211  39.684  1.00  0.00    -0.166 F 
HETATM   32  F   UNL     1      60.336  84.193  41.740  1.00  0.00    -0.166 F 
HETATM   33  F   UNL     1      60.055  82.437  40.488  1.00  0.00    -0.166 F 
ENDBRANCH  26  30
ENDBRANCH  22  24
ENDBRANCH   5  22
TORSDOF 7
ENDMDL
