MODEL 1
REMARK VINA RESULT:      -7.5      0.000      0.000
REMARK  7 active torsions:
REMARK  status: ('A' for Active; 'I' for Inactive)
REMARK       I    between atoms: N_5  and  C_13 
REMARK    1  A    between atoms: N_5  and  C_14 
REMARK    2  A    between atoms: N_6  and  C_17 
REMARK    3  A    between atoms: N_6  and  C_20 
REMARK    4  A    between atoms: N_7  and  C_21 
REMARK    5  A    between atoms: N_7  and  C_23 
REMARK    6  A    between atoms: C_10  and  C_13 
REMARK    7  A    between atoms: C_24  and  C_29 
ROOT
HETATM    1  N   UNL     1      60.737  82.413  32.402  1.00  0.00    -0.224 NA
HETATM    2  N   UNL     1      59.632  84.472  32.990  1.00  0.00    -0.224 NA
HETATM    3  C   UNL     1      61.056  82.256  33.703  1.00  0.00     0.133 A 
HETATM    4  C   UNL     1      60.703  83.150  34.693  1.00  0.00     0.100 A 
HETATM    5  C   UNL     1      59.982  84.257  34.280  1.00  0.00     0.133 A 
HETATM    6  C   UNL     1      60.036  83.528  32.119  1.00  0.00     0.237 A 
ENDROOT
BRANCH   3   7
HETATM    7  N   UNL     1      61.795  81.111  34.091  1.00  0.00    -0.341 N 
HETATM    8  H   UNL     1      62.791  81.190  33.904  1.00  0.00     0.167 HD
BRANCH   7   9
HETATM    9  C   UNL     1      61.418  79.897  34.689  1.00  0.00     0.035 A 
HETATM   10  C   UNL     1      60.750  78.923  33.943  1.00  0.00     0.059 A 
HETATM   11  C   UNL     1      60.378  77.718  34.537  1.00  0.00     0.036 A 
HETATM   12  C   UNL     1      60.673  77.481  35.880  1.00  0.00     0.029 A 
HETATM   13  C   UNL     1      61.340  78.450  36.628  1.00  0.00     0.004 A 
HETATM   14  C   UNL     1      61.711  79.656  36.034  1.00  0.00     0.029 A 
BRANCH  11  15
HETATM   15  N   UNL     1      59.711  76.747  33.788  1.00  0.00    -0.327 N 
HETATM   16  C   UNL     1      58.335  76.596  33.602  1.00  0.00     0.226 C 
HETATM   17  O   UNL     1      57.436  77.289  34.061  1.00  0.00    -0.273 OA
HETATM   18  H   UNL     1      60.311  76.065  33.328  1.00  0.00     0.169 HD
BRANCH  16  19
HETATM   19  C   UNL     1      57.964  75.437  32.731  1.00  0.00     0.078 A 
HETATM   20  C   UNL     1      59.046  74.744  31.981  1.00  0.00     0.015 A 
HETATM   21  C   UNL     1      58.057  75.608  31.255  1.00  0.00     0.015 A 
ENDBRANCH  16  19
ENDBRANCH  11  15
ENDBRANCH   7   9
ENDBRANCH   3   7
BRANCH   5  22
HETATM   22  N   UNL     1      59.602  85.194  35.259  1.00  0.00    -0.341 N 
HETATM   23  H   UNL     1      60.175  85.142  36.098  1.00  0.00     0.167 HD
BRANCH  22  24
HETATM   24  C   UNL     1      58.426  85.948  35.454  1.00  0.00     0.034 A 
HETATM   25  C   UNL     1      57.472  85.527  36.380  1.00  0.00     0.045 A 
HETATM   26  C   UNL     1      56.310  86.274  36.573  1.00  0.00     0.050 A 
HETATM   27  C   UNL     1      56.102  87.442  35.839  1.00  0.00     0.016 A 
HETATM   28  C   UNL     1      57.055  87.862  34.912  1.00  0.00     0.003 A 
HETATM   29  C   UNL     1      58.217  87.115  34.719  1.00  0.00     0.029 A 
BRANCH  26  30
HETATM   30  C   UNL     1      55.290  85.825  37.564  1.00  0.00     0.417 C 
HETATM   31  F   UNL     1      55.139  86.677  38.620  1.00  0.00    -0.166 F 
HETATM   32  F   UNL     1      54.038  85.689  37.036  1.00  0.00    -0.166 F 
HETATM   33  F   UNL     1      55.590  84.611  38.113  1.00  0.00    -0.166 F 
ENDBRANCH  26  30
ENDBRANCH  22  24
ENDBRANCH   5  22
TORSDOF 7
ENDMDL
MODEL 2
REMARK VINA RESULT:      -7.4      1.591      2.652
REMARK  7 active torsions:
REMARK  status: ('A' for Active; 'I' for Inactive)
REMARK       I    between atoms: N_5  and  C_13 
REMARK    1  A    between atoms: N_5  and  C_14 
REMARK    2  A    between atoms: N_6  and  C_17 
REMARK    3  A    between atoms: N_6  and  C_20 
REMARK    4  A    between atoms: N_7  and  C_21 
REMARK    5  A    between atoms: N_7  and  C_23 
REMARK    6  A    between atoms: C_10  and  C_13 
REMARK    7  A    between atoms: C_24  and  C_29 
ROOT
HETATM    1  N   UNL     1      61.605  82.315  36.902  1.00  0.00    -0.224 NA
HETATM    2  N   UNL     1      60.916  84.427  37.836  1.00  0.00    -0.224 NA
HETATM    3  C   UNL     1      61.166  82.745  35.701  1.00  0.00     0.133 A 
HETATM    4  C   UNL     1      60.599  83.985  35.491  1.00  0.00     0.100 A 
HETATM    5  C   UNL     1      60.495  84.799  36.605  1.00  0.00     0.133 A 
HETATM    6  C   UNL     1      61.451  83.193  37.911  1.00  0.00     0.237 A 
ENDROOT
BRANCH   3   7
HETATM    7  N   UNL     1      61.288  81.885  34.582  1.00  0.00    -0.341 N 
HETATM    8  H   UNL     1      62.248  81.745  34.282  1.00  0.00     0.167 HD
BRANCH   7   9
HETATM    9  C   UNL     1      60.340  81.185  33.817  1.00  0.00     0.035 A 
HETATM   10  C   UNL     1      60.263  79.792  33.893  1.00  0.00     0.059 A 
HETATM   11  C   UNL     1      59.322  79.099  33.133  1.00  0.00     0.036 A 
HETATM   12  C   UNL     1      58.451  79.796  32.295  1.00  0.00     0.029 A 
HETATM   13  C   UNL     1      58.524  81.186  32.216  1.00  0.00     0.004 A 
HETATM   14  C   UNL     1      59.467  81.880  32.975  1.00  0.00     0.029 A 
BRANCH  11  15
HETATM   15  N   UNL     1      59.248  77.707  33.213  1.00  0.00    -0.327 N 
HETATM   16  C   UNL     1      58.169  76.924  33.630  1.00  0.00     0.226 C 
HETATM   17  O   UNL     1      57.069  77.304  34.009  1.00  0.00    -0.273 OA
HETATM   18  H   UNL     1      60.093  77.212  32.935  1.00  0.00     0.169 HD
BRANCH  16  19
HETATM   19  C   UNL     1      58.438  75.452  33.589  1.00  0.00     0.078 A 
HETATM   20  C   UNL     1      59.825  74.981  33.846  1.00  0.00     0.015 A 
HETATM   21  C   UNL     1      59.250  74.916  32.462  1.00  0.00     0.015 A 
ENDBRANCH  16  19
ENDBRANCH  11  15
ENDBRANCH   7   9
ENDBRANCH   3   7
BRANCH   5  22
HETATM   22  N   UNL     1      59.922  86.074  36.433  1.00  0.00    -0.341 N 
HETATM   23  H   UNL     1      60.524  86.825  36.762  1.00  0.00     0.167 HD
BRANCH  22  24
HETATM   24  C   UNL     1      58.597  86.503  36.207  1.00  0.00     0.034 A 
HETATM   25  C   UNL     1      57.566  86.049  37.028  1.00  0.00     0.045 A 
HETATM   26  C   UNL     1      56.257  86.475  36.805  1.00  0.00     0.050 A 
HETATM   27  C   UNL     1      55.979  87.355  35.760  1.00  0.00     0.016 A 
HETATM   28  C   UNL     1      57.010  87.810  34.937  1.00  0.00     0.003 A 
HETATM   29  C   UNL     1      58.319  87.383  35.161  1.00  0.00     0.029 A 
BRANCH  26  30
HETATM   30  C   UNL     1      55.154  85.989  37.684  1.00  0.00     0.417 C 
HETATM   31  F   UNL     1      55.325  84.706  38.120  1.00  0.00    -0.166 F 
HETATM   32  F   UNL     1      54.992  86.732  38.818  1.00  0.00    -0.166 F 
HETATM   33  F   UNL     1      53.939  86.004  37.059  1.00  0.00    -0.166 F 
ENDBRANCH  26  30
ENDBRANCH  22  24
ENDBRANCH   5  22
TORSDOF 7
ENDMDL
MODEL 3
REMARK VINA RESULT:      -7.4      4.258      6.688
REMARK  7 active torsions:
REMARK  status: ('A' for Active; 'I' for Inactive)
REMARK       I    between atoms: N_5  and  C_13 
REMARK    1  A    between atoms: N_5  and  C_14 
REMARK    2  A    between atoms: N_6  and  C_17 
REMARK    3  A    between atoms: N_6  and  C_20 
REMARK    4  A    between atoms: N_7  and  C_21 
REMARK    5  A    between atoms: N_7  and  C_23 
REMARK    6  A    between atoms: C_10  and  C_13 
REMARK    7  A    between atoms: C_24  and  C_29 
ROOT
HETATM    1  N   UNL     1      56.713  86.621  36.510  1.00  0.00    -0.224 NA
HETATM    2  N   UNL     1      55.354  85.937  38.379  1.00  0.00    -0.224 NA
HETATM    3  C   UNL     1      57.718  85.877  37.017  1.00  0.00     0.133 A 
HETATM    4  C   UNL     1      57.619  85.146  38.183  1.00  0.00     0.100 A 
HETATM    5  C   UNL     1      56.401  85.211  38.836  1.00  0.00     0.133 A 
HETATM    6  C   UNL     1      55.576  86.607  37.232  1.00  0.00     0.237 A 
ENDROOT
BRANCH   3   7
HETATM    7  N   UNL     1      58.953  85.835  36.323  1.00  0.00    -0.341 N 
HETATM    8  H   UNL     1      59.731  86.209  36.859  1.00  0.00     0.167 HD
BRANCH   7   9
HETATM    9  C   UNL     1      59.306  85.371  35.045  1.00  0.00     0.035 A 
HETATM   10  C   UNL     1      59.335  84.000  34.777  1.00  0.00     0.059 A 
HETATM   11  C   UNL     1      59.685  83.540  33.508  1.00  0.00     0.036 A 
HETATM   12  C   UNL     1      60.007  84.450  32.501  1.00  0.00     0.029 A 
HETATM   13  C   UNL     1      59.980  85.819  32.763  1.00  0.00     0.004 A 
HETATM   14  C   UNL     1      59.631  86.279  34.034  1.00  0.00     0.029 A 
BRANCH  11  15
HETATM   15  N   UNL     1      59.711  82.170  33.245  1.00  0.00    -0.327 N 
HETATM   16  C   UNL     1      58.995  81.465  32.274  1.00  0.00     0.226 C 
HETATM   17  O   UNL     1      58.200  81.911  31.457  1.00  0.00    -0.273 OA
HETATM   18  H   UNL     1      60.327  81.624  33.844  1.00  0.00     0.169 HD
BRANCH  16  19
HETATM   19  C   UNL     1      59.268  79.993  32.270  1.00  0.00     0.078 A 
HETATM   20  C   UNL     1      58.407  79.114  33.106  1.00  0.00     0.015 A 
HETATM   21  C   UNL     1      59.829  79.378  33.503  1.00  0.00     0.015 A 
ENDBRANCH  16  19
ENDBRANCH  11  15
ENDBRANCH   7   9
ENDBRANCH   3   7
BRANCH   5  22
HETATM   22  N   UNL     1      56.258  84.478  40.030  1.00  0.00    -0.341 N 
HETATM   23  H   UNL     1      55.713  83.627  39.909  1.00  0.00     0.167 HD
BRANCH  22  24
HETATM   24  C   UNL     1      56.426  84.823  41.387  1.00  0.00     0.034 A 
HETATM   25  C   UNL     1      57.708  84.937  41.925  1.00  0.00     0.045 A 
HETATM   26  C   UNL     1      57.873  85.279  43.267  1.00  0.00     0.050 A 
HETATM   27  C   UNL     1      56.757  85.507  44.071  1.00  0.00     0.016 A 
HETATM   28  C   UNL     1      55.475  85.393  43.534  1.00  0.00     0.003 A 
HETATM   29  C   UNL     1      55.310  85.051  42.191  1.00  0.00     0.029 A 
BRANCH  26  30
HETATM   30  C   UNL     1      59.244  85.401  43.843  1.00  0.00     0.417 C 
HETATM   31  F   UNL     1      59.352  86.368  44.800  1.00  0.00    -0.166 F 
HETATM   32  F   UNL     1      59.689  84.256  44.441  1.00  0.00    -0.166 F 
HETATM   33  F   UNL     1      60.184  85.711  42.901  1.00  0.00    -0.166 F 
ENDBRANCH  26  30
ENDBRANCH  22  24
ENDBRANCH   5  22
TORSDOF 7
ENDMDL
MODEL 4
REMARK VINA RESULT:      -7.2      7.918     12.649
REMARK  7 active torsions:
REMARK  status: ('A' for Active; 'I' for Inactive)
REMARK       I    between atoms: N_5  and  C_13 
REMARK    1  A    between atoms: N_5  and  C_14 
REMARK    2  A    between atoms: N_6  and  C_17 
REMARK    3  A    between atoms: N_6  and  C_20 
REMARK    4  A    between atoms: N_7  and  C_21 
REMARK    5  A    between atoms: N_7  and  C_23 
REMARK    6  A    between atoms: C_10  and  C_13 
REMARK    7  A    between atoms: C_24  and  C_29 
ROOT
HETATM    1  N   UNL     1      55.758  85.370  43.766  1.00  0.00    -0.224 NA
HETATM    2  N   UNL     1      55.899  84.711  41.452  1.00  0.00    -0.224 NA
HETATM    3  C   UNL     1      57.107  85.404  43.800  1.00  0.00     0.133 A 
HETATM    4  C   UNL     1      57.909  85.109  42.716  1.00  0.00     0.100 A 
HETATM    5  C   UNL     1      57.248  84.764  41.551  1.00  0.00     0.133 A 
HETATM    6  C   UNL     1      55.229  85.020  42.578  1.00  0.00     0.237 A 
ENDROOT
BRANCH   3   7
HETATM    7  N   UNL     1      57.750  85.761  45.010  1.00  0.00    -0.341 N 
HETATM    8  H   UNL     1      58.558  85.184  45.225  1.00  0.00     0.167 HD
BRANCH   7   9
HETATM    9  C   UNL     1      57.491  86.761  45.962  1.00  0.00     0.035 A 
HETATM   10  C   UNL     1      57.553  88.110  45.602  1.00  0.00     0.059 A 
HETATM   11  C   UNL     1      57.294  89.101  46.548  1.00  0.00     0.036 A 
HETATM   12  C   UNL     1      56.971  88.748  47.859  1.00  0.00     0.029 A 
HETATM   13  C   UNL     1      56.907  87.403  48.223  1.00  0.00     0.004 A 
HETATM   14  C   UNL     1      57.168  86.412  47.277  1.00  0.00     0.029 A 
BRANCH  11  15
HETATM   15  N   UNL     1      57.356  90.447  46.184  1.00  0.00    -0.327 N 
HETATM   16  C   UNL     1      56.345  91.238  45.633  1.00  0.00     0.226 C 
HETATM   17  O   UNL     1      55.198  90.907  45.361  1.00  0.00    -0.273 OA
HETATM   18  H   UNL     1      58.256  90.896  46.338  1.00  0.00     0.169 HD
BRANCH  16  19
HETATM   19  C   UNL     1      56.760  92.651  45.364  1.00  0.00     0.078 A 
HETATM   20  C   UNL     1      55.930  93.465  44.437  1.00  0.00     0.015 A 
HETATM   21  C   UNL     1      57.287  92.985  44.013  1.00  0.00     0.015 A 
ENDBRANCH  16  19
ENDBRANCH  11  15
ENDBRANCH   7   9
ENDBRANCH   3   7
BRANCH   5  22
HETATM   22  N   UNL     1      58.030  84.455  40.421  1.00  0.00    -0.341 N 
HETATM   23  H   UNL     1      58.956  84.111  40.664  1.00  0.00     0.167 HD
BRANCH  22  24
HETATM   24  C   UNL     1      57.928  84.817  39.062  1.00  0.00     0.034 A 
HETATM   25  C   UNL     1      56.713  85.272  38.549  1.00  0.00     0.045 A 
HETATM   26  C   UNL     1      56.614  85.631  37.206  1.00  0.00     0.050 A 
HETATM   27  C   UNL     1      57.729  85.534  36.373  1.00  0.00     0.016 A 
HETATM   28  C   UNL     1      58.944  85.078  36.885  1.00  0.00     0.003 A 
HETATM   29  C   UNL     1      59.044  84.720  38.230  1.00  0.00     0.029 A 
BRANCH  26  30
HETATM   30  C   UNL     1      55.315  86.118  36.657  1.00  0.00     0.417 C 
HETATM   31  F   UNL     1      54.812  85.331  35.661  1.00  0.00    -0.166 F 
HETATM   32  F   UNL     1      54.321  86.190  37.590  1.00  0.00    -0.166 F 
HETATM   33  F   UNL     1      55.407  87.371  36.122  1.00  0.00    -0.166 F 
ENDBRANCH  26  30
ENDBRANCH  22  24
ENDBRANCH   5  22
TORSDOF 7
ENDMDL
MODEL 5
REMARK VINA RESULT:      -7.2      4.880      7.847
REMARK  7 active torsions:
REMARK  status: ('A' for Active; 'I' for Inactive)
REMARK       I    between atoms: N_5  and  C_13 
REMARK    1  A    between atoms: N_5  and  C_14 
REMARK    2  A    between atoms: N_6  and  C_17 
REMARK    3  A    between atoms: N_6  and  C_20 
REMARK    4  A    between atoms: N_7  and  C_21 
REMARK    5  A    between atoms: N_7  and  C_23 
REMARK    6  A    between atoms: C_10  and  C_13 
REMARK    7  A    between atoms: C_24  and  C_29 
ROOT
HETATM    1  N   UNL     1      61.875  81.819  39.915  1.00  0.00    -0.224 NA
HETATM    2  N   UNL     1      61.188  82.602  42.088  1.00  0.00    -0.224 NA
HETATM    3  C   UNL     1      61.673  83.067  39.443  1.00  0.00     0.133 A 
HETATM    4  C   UNL     1      61.237  84.120  40.221  1.00  0.00     0.100 A 
HETATM    5  C   UNL     1      61.004  83.832  41.554  1.00  0.00     0.133 A 
HETATM    6  C   UNL     1      61.615  81.659  41.227  1.00  0.00     0.237 A 
ENDROOT
BRANCH   3   7
HETATM    7  N   UNL     1      61.920  83.326  38.072  1.00  0.00    -0.341 N 
HETATM    8  H   UNL     1      62.907  83.404  37.847  1.00  0.00     0.167 HD
BRANCH   7   9
HETATM    9  C   UNL     1      61.065  83.489  36.970  1.00  0.00     0.035 A 
HETATM   10  C   UNL     1      60.069  84.469  36.990  1.00  0.00     0.059 A 
HETATM   11  C   UNL     1      59.222  84.630  35.894  1.00  0.00     0.036 A 
HETATM   12  C   UNL     1      59.367  83.813  34.772  1.00  0.00     0.029 A 
HETATM   13  C   UNL     1      60.360  82.834  34.747  1.00  0.00     0.004 A 
HETATM   14  C   UNL     1      61.207  82.672  35.844  1.00  0.00     0.029 A 
BRANCH  11  15
HETATM   15  N   UNL     1      58.228  85.610  35.918  1.00  0.00    -0.327 N 
HETATM   16  C   UNL     1      56.903  85.483  36.338  1.00  0.00     0.226 C 
HETATM   17  O   UNL     1      56.346  84.483  36.772  1.00  0.00    -0.273 OA
HETATM   18  H   UNL     1      58.515  86.526  35.579  1.00  0.00     0.169 HD
BRANCH  16  19
HETATM   19  C   UNL     1      56.108  86.747  36.228  1.00  0.00     0.078 A 
HETATM   20  C   UNL     1      56.406  87.671  35.100  1.00  0.00     0.015 A 
HETATM   21  C   UNL     1      56.797  88.038  36.501  1.00  0.00     0.015 A 
ENDBRANCH  16  19
ENDBRANCH  11  15
ENDBRANCH   7   9
ENDBRANCH   3   7
BRANCH   5  22
HETATM   22  N   UNL     1      60.558  84.879  42.382  1.00  0.00    -0.341 N 
HETATM   23  H   UNL     1      61.322  85.413  42.790  1.00  0.00     0.167 HD
BRANCH  22  24
HETATM   24  C   UNL     1      59.322  85.140  43.009  1.00  0.00     0.034 A 
HETATM   25  C   UNL     1      58.131  84.973  42.302  1.00  0.00     0.045 A 
HETATM   26  C   UNL     1      56.910  85.230  42.924  1.00  0.00     0.050 A 
HETATM   27  C   UNL     1      56.878  85.653  44.252  1.00  0.00     0.016 A 
HETATM   28  C   UNL     1      58.069  85.821  44.960  1.00  0.00     0.003 A 
HETATM   29  C   UNL     1      59.291  85.564  44.338  1.00  0.00     0.029 A 
BRANCH  26  30
HETATM   30  C   UNL     1      55.636  85.051  42.168  1.00  0.00     0.417 C 
HETATM   31  F   UNL     1      54.834  86.157  42.178  1.00  0.00    -0.166 F 
HETATM   32  F   UNL     1      55.821  84.757  40.848  1.00  0.00    -0.166 F 
HETATM   33  F   UNL     1      54.868  84.038  42.665  1.00  0.00    -0.166 F 
ENDBRANCH  26  30
ENDBRANCH  22  24
ENDBRANCH   5  22
TORSDOF 7
ENDMDL
MODEL 6
REMARK VINA RESULT:      -7.2      4.197      7.050
REMARK  7 active torsions:
REMARK  status: ('A' for Active; 'I' for Inactive)
REMARK       I    between atoms: N_5  and  C_13 
REMARK    1  A    between atoms: N_5  and  C_14 
REMARK    2  A    between atoms: N_6  and  C_17 
REMARK    3  A    between atoms: N_6  and  C_20 
REMARK    4  A    between atoms: N_7  and  C_21 
REMARK    5  A    between atoms: N_7  and  C_23 
REMARK    6  A    between atoms: C_10  and  C_13 
REMARK    7  A    between atoms: C_24  and  C_29 
ROOT
HETATM    1  N   UNL     1      55.949  87.031  35.770  1.00  0.00    -0.224 NA
HETATM    2  N   UNL     1      54.911  85.571  37.382  1.00  0.00    -0.224 NA
HETATM    3  C   UNL     1      57.125  86.829  36.400  1.00  0.00     0.133 A 
HETATM    4  C   UNL     1      57.272  86.024  37.511  1.00  0.00     0.100 A 
HETATM    5  C   UNL     1      56.120  85.410  37.969  1.00  0.00     0.133 A 
HETATM    6  C   UNL     1      54.899  86.381  36.307  1.00  0.00     0.237 A 
ENDROOT
BRANCH   3   7
HETATM    7  N   UNL     1      58.284  87.475  35.904  1.00  0.00    -0.341 N 
HETATM    8  H   UNL     1      58.555  88.291  36.444  1.00  0.00     0.167 HD
BRANCH   7   9
HETATM    9  C   UNL     1      59.131  87.199  34.817  1.00  0.00     0.035 A 
HETATM   10  C   UNL     1      59.049  85.972  34.154  1.00  0.00     0.059 A 
HETATM   11  C   UNL     1      59.889  85.700  33.075  1.00  0.00     0.036 A 
HETATM   12  C   UNL     1      60.815  86.655  32.653  1.00  0.00     0.029 A 
HETATM   13  C   UNL     1      60.900  87.882  33.311  1.00  0.00     0.004 A 
HETATM   14  C   UNL     1      60.060  88.153  34.392  1.00  0.00     0.029 A 
BRANCH  11  15
HETATM   15  N   UNL     1      59.803  84.473  32.415  1.00  0.00    -0.327 N 
HETATM   16  C   UNL     1      60.038  83.198  32.934  1.00  0.00     0.226 C 
HETATM   17  O   UNL     1      60.366  82.901  34.075  1.00  0.00    -0.273 OA
HETATM   18  H   UNL     1      59.542  84.527  31.433  1.00  0.00     0.169 HD
BRANCH  16  19
HETATM   19  C   UNL     1      59.852  82.096  31.938  1.00  0.00     0.078 A 
HETATM   20  C   UNL     1      58.660  82.141  31.050  1.00  0.00     0.015 A 
HETATM   21  C   UNL     1      58.741  81.130  32.156  1.00  0.00     0.015 A 
ENDBRANCH  16  19
ENDBRANCH  11  15
ENDBRANCH   7   9
ENDBRANCH   3   7
BRANCH   5  22
HETATM   22  N   UNL     1      56.227  84.579  39.101  1.00  0.00    -0.341 N 
HETATM   23  H   UNL     1      55.466  83.907  39.171  1.00  0.00     0.167 HD
BRANCH  22  24
HETATM   24  C   UNL     1      56.963  84.687  40.299  1.00  0.00     0.034 A 
HETATM   25  C   UNL     1      56.312  84.996  41.494  1.00  0.00     0.045 A 
HETATM   26  C   UNL     1      57.041  85.102  42.678  1.00  0.00     0.050 A 
HETATM   27  C   UNL     1      58.421  84.898  42.668  1.00  0.00     0.016 A 
HETATM   28  C   UNL     1      59.072  84.590  41.474  1.00  0.00     0.003 A 
HETATM   29  C   UNL     1      58.343  84.484  40.290  1.00  0.00     0.029 A 
BRANCH  26  30
HETATM   30  C   UNL     1      56.345  85.432  43.955  1.00  0.00     0.417 C 
HETATM   31  F   UNL     1      56.791  86.582  44.541  1.00  0.00    -0.166 F 
HETATM   32  F   UNL     1      54.998  85.604  43.815  1.00  0.00    -0.166 F 
HETATM   33  F   UNL     1      56.493  84.459  44.901  1.00  0.00    -0.166 F 
ENDBRANCH  26  30
ENDBRANCH  22  24
ENDBRANCH   5  22
TORSDOF 7
ENDMDL
MODEL 7
REMARK VINA RESULT:      -7.0      6.456     10.182
REMARK  7 active torsions:
REMARK  status: ('A' for Active; 'I' for Inactive)
REMARK       I    between atoms: N_5  and  C_13 
REMARK    1  A    between atoms: N_5  and  C_14 
REMARK    2  A    between atoms: N_6  and  C_17 
REMARK    3  A    between atoms: N_6  and  C_20 
REMARK    4  A    between atoms: N_7  and  C_21 
REMARK    5  A    between atoms: N_7  and  C_23 
REMARK    6  A    between atoms: C_10  and  C_13 
REMARK    7  A    between atoms: C_24  and  C_29 
ROOT
HETATM    1  N   UNL     1      60.802  82.953  41.208  1.00  0.00    -0.224 NA
HETATM    2  N   UNL     1      61.084  82.576  38.845  1.00  0.00    -0.224 NA
HETATM    3  C   UNL     1      60.083  84.055  40.908  1.00  0.00     0.133 A 
HETATM    4  C   UNL     1      59.825  84.475  39.619  1.00  0.00     0.100 A 
HETATM    5  C   UNL     1      60.355  83.691  38.610  1.00  0.00     0.133 A 
HETATM    6  C   UNL     1      61.266  82.271  40.143  1.00  0.00     0.237 A 
ENDROOT
BRANCH   3   7
HETATM    7  N   UNL     1      59.556  84.834  41.967  1.00  0.00    -0.341 N 
HETATM    8  H   UNL     1      60.255  85.402  42.438  1.00  0.00     0.167 HD
BRANCH   7   9
HETATM    9  C   UNL     1      58.257  84.978  42.483  1.00  0.00     0.035 A 
HETATM   10  C   UNL     1      58.067  85.311  43.827  1.00  0.00     0.059 A 
HETATM   11  C   UNL     1      56.777  85.454  44.338  1.00  0.00     0.036 A 
HETATM   12  C   UNL     1      55.672  85.266  43.507  1.00  0.00     0.029 A 
HETATM   13  C   UNL     1      55.857  84.934  42.165  1.00  0.00     0.004 A 
HETATM   14  C   UNL     1      57.148  84.790  41.654  1.00  0.00     0.029 A 
BRANCH  11  15
HETATM   15  N   UNL     1      56.591  85.787  45.680  1.00  0.00    -0.327 N 
HETATM   16  C   UNL     1      57.110  86.882  46.376  1.00  0.00     0.226 C 
HETATM   17  O   UNL     1      57.832  87.771  45.945  1.00  0.00    -0.273 OA
HETATM   18  H   UNL     1      56.009  85.142  46.210  1.00  0.00     0.169 HD
BRANCH  16  19
HETATM   19  C   UNL     1      56.704  86.931  47.816  1.00  0.00     0.078 A 
HETATM   20  C   UNL     1      57.725  86.602  48.848  1.00  0.00     0.015 A 
HETATM   21  C   UNL     1      56.602  85.648  48.563  1.00  0.00     0.015 A 
ENDBRANCH  16  19
ENDBRANCH  11  15
ENDBRANCH   7   9
ENDBRANCH   3   7
BRANCH   5  22
HETATM   22  N   UNL     1      60.115  84.086  37.280  1.00  0.00    -0.341 N 
HETATM   23  H   UNL     1      60.712  83.605  36.611  1.00  0.00     0.167 HD
BRANCH  22  24
HETATM   24  C   UNL     1      59.469  85.207  36.718  1.00  0.00     0.034 A 
HETATM   25  C   UNL     1      58.077  85.291  36.732  1.00  0.00     0.045 A 
HETATM   26  C   UNL     1      57.439  86.400  36.178  1.00  0.00     0.050 A 
HETATM   27  C   UNL     1      58.194  87.427  35.610  1.00  0.00     0.016 A 
HETATM   28  C   UNL     1      59.586  87.343  35.595  1.00  0.00     0.003 A 
HETATM   29  C   UNL     1      60.224  86.233  36.149  1.00  0.00     0.029 A 
BRANCH  26  30
HETATM   30  C   UNL     1      55.950  86.490  36.193  1.00  0.00     0.417 C 
HETATM   31  F   UNL     1      55.327  85.317  35.878  1.00  0.00    -0.166 F 
HETATM   32  F   UNL     1      55.437  86.852  37.406  1.00  0.00    -0.166 F 
HETATM   33  F   UNL     1      55.471  87.410  35.304  1.00  0.00    -0.166 F 
ENDBRANCH  26  30
ENDBRANCH  22  24
ENDBRANCH   5  22
TORSDOF 7
ENDMDL
MODEL 8
REMARK VINA RESULT:      -6.8      2.715      3.789
REMARK  7 active torsions:
REMARK  status: ('A' for Active; 'I' for Inactive)
REMARK       I    between atoms: N_5  and  C_13 
REMARK    1  A    between atoms: N_5  and  C_14 
REMARK    2  A    between atoms: N_6  and  C_17 
REMARK    3  A    between atoms: N_6  and  C_20 
REMARK    4  A    between atoms: N_7  and  C_21 
REMARK    5  A    between atoms: N_7  and  C_23 
REMARK    6  A    between atoms: C_10  and  C_13 
REMARK    7  A    between atoms: C_24  and  C_29 
ROOT
HETATM    1  N   UNL     1      61.829  82.667  37.389  1.00  0.00    -0.224 NA
HETATM    2  N   UNL     1      60.483  84.011  38.868  1.00  0.00    -0.224 NA
HETATM    3  C   UNL     1      61.050  83.079  36.367  1.00  0.00     0.133 A 
HETATM    4  C   UNL     1      59.985  83.944  36.515  1.00  0.00     0.100 A 
HETATM    5  C   UNL     1      59.740  84.387  37.802  1.00  0.00     0.133 A 
HETATM    6  C   UNL     1      61.493  83.164  38.595  1.00  0.00     0.237 A 
ENDROOT
BRANCH   3   7
HETATM    7  N   UNL     1      61.330  82.605  35.062  1.00  0.00    -0.341 N 
HETATM    8  H   UNL     1      62.247  82.878  34.720  1.00  0.00     0.167 HD
BRANCH   7   9
HETATM    9  C   UNL     1      60.589  81.827  34.157  1.00  0.00     0.035 A 
HETATM   10  C   UNL     1      60.790  80.446  34.085  1.00  0.00     0.059 A 
HETATM   11  C   UNL     1      60.053  79.675  33.187  1.00  0.00     0.036 A 
HETATM   12  C   UNL     1      59.110  80.281  32.357  1.00  0.00     0.029 A 
HETATM   13  C   UNL     1      58.905  81.659  32.425  1.00  0.00     0.004 A 
HETATM   14  C   UNL     1      59.643  82.431  33.322  1.00  0.00     0.029 A 
BRANCH  11  15
HETATM   15  N   UNL     1      60.257  78.296  33.120  1.00  0.00    -0.327 N 
HETATM   16  C   UNL     1      59.318  77.277  33.293  1.00  0.00     0.226 C 
HETATM   17  O   UNL     1      58.125  77.390  33.540  1.00  0.00    -0.273 OA
HETATM   18  H   UNL     1      61.214  78.008  32.924  1.00  0.00     0.169 HD
BRANCH  16  19
HETATM   19  C   UNL     1      59.886  75.899  33.150  1.00  0.00     0.078 A 
HETATM   20  C   UNL     1      59.138  74.762  33.751  1.00  0.00     0.015 A 
HETATM   21  C   UNL     1      60.424  75.229  34.366  1.00  0.00     0.015 A 
ENDBRANCH  16  19
ENDBRANCH  11  15
ENDBRANCH   7   9
ENDBRANCH   3   7
BRANCH   5  22
HETATM   22  N   UNL     1      58.662  85.272  37.995  1.00  0.00    -0.341 N 
HETATM   23  H   UNL     1      58.312  85.266  38.951  1.00  0.00     0.167 HD
BRANCH  22  24
HETATM   24  C   UNL     1      57.776  85.907  37.101  1.00  0.00     0.034 A 
HETATM   25  C   UNL     1      58.276  86.645  36.028  1.00  0.00     0.045 A 
HETATM   26  C   UNL     1      57.399  87.271  35.143  1.00  0.00     0.050 A 
HETATM   27  C   UNL     1      56.021  87.161  35.331  1.00  0.00     0.016 A 
HETATM   28  C   UNL     1      55.520  86.424  36.404  1.00  0.00     0.003 A 
HETATM   29  C   UNL     1      56.398  85.797  37.289  1.00  0.00     0.029 A 
BRANCH  26  30
HETATM   30  C   UNL     1      57.934  88.060  33.995  1.00  0.00     0.417 C 
HETATM   31  F   UNL     1      57.927  87.379  32.812  1.00  0.00    -0.166 F 
HETATM   32  F   UNL     1      57.237  89.208  33.750  1.00  0.00    -0.166 F 
HETATM   33  F   UNL     1      59.229  88.451  34.185  1.00  0.00    -0.166 F 
ENDBRANCH  26  30
ENDBRANCH  22  24
ENDBRANCH   5  22
TORSDOF 7
ENDMDL
MODEL 9
REMARK VINA RESULT:      -6.7      5.951      9.884
REMARK  7 active torsions:
REMARK  status: ('A' for Active; 'I' for Inactive)
REMARK       I    between atoms: N_5  and  C_13 
REMARK    1  A    between atoms: N_5  and  C_14 
REMARK    2  A    between atoms: N_6  and  C_17 
REMARK    3  A    between atoms: N_6  and  C_20 
REMARK    4  A    between atoms: N_7  and  C_21 
REMARK    5  A    between atoms: N_7  and  C_23 
REMARK    6  A    between atoms: C_10  and  C_13 
REMARK    7  A    between atoms: C_24  and  C_29 
ROOT
HETATM    1  N   UNL     1      55.665  86.123  38.474  1.00  0.00    -0.224 NA
HETATM    2  N   UNL     1      57.087  86.626  36.596  1.00  0.00    -0.224 NA
HETATM    3  C   UNL     1      56.597  85.245  38.898  1.00  0.00     0.133 A 
HETATM    4  C   UNL     1      57.784  85.007  38.234  1.00  0.00     0.100 A 
HETATM    5  C   UNL     1      57.983  85.731  37.073  1.00  0.00     0.133 A 
HETATM    6  C   UNL     1      55.969  86.769  37.333  1.00  0.00     0.237 A 
ENDROOT
BRANCH   3   7
HETATM    7  N   UNL     1      56.360  84.519  40.091  1.00  0.00    -0.341 N 
HETATM    8  H   UNL     1      56.121  83.544  39.931  1.00  0.00     0.167 HD
BRANCH   7   9
HETATM    9  C   UNL     1      56.398  84.885  41.446  1.00  0.00     0.035 A 
HETATM   10  C   UNL     1      57.610  84.889  42.141  1.00  0.00     0.059 A 
HETATM   11  C   UNL     1      57.647  85.253  43.486  1.00  0.00     0.036 A 
HETATM   12  C   UNL     1      56.471  85.616  44.144  1.00  0.00     0.029 A 
HETATM   13  C   UNL     1      55.258  85.613  43.455  1.00  0.00     0.004 A 
HETATM   14  C   UNL     1      55.222  85.248  42.109  1.00  0.00     0.029 A 
BRANCH  11  15
HETATM   15  N   UNL     1      58.861  85.257  44.176  1.00  0.00    -0.327 N 
HETATM   16  C   UNL     1      59.802  86.286  44.258  1.00  0.00     0.226 C 
HETATM   17  O   UNL     1      59.749  87.394  43.740  1.00  0.00    -0.273 OA
HETATM   18  H   UNL     1      59.080  84.396  44.672  1.00  0.00     0.169 HD
BRANCH  16  19
HETATM   19  C   UNL     1      60.999  85.947  45.090  1.00  0.00     0.078 A 
HETATM   20  C   UNL     1      62.306  85.765  44.404  1.00  0.00     0.015 A 
HETATM   21  C   UNL     1      61.578  84.581  44.967  1.00  0.00     0.015 A 
ENDBRANCH  16  19
ENDBRANCH  11  15
ENDBRANCH   7   9
ENDBRANCH   3   7
BRANCH   5  22
HETATM   22  N   UNL     1      59.182  85.518  36.365  1.00  0.00    -0.341 N 
HETATM   23  H   UNL     1      59.539  86.364  35.928  1.00  0.00     0.167 HD
BRANCH  22  24
HETATM   24  C   UNL     1      59.806  84.352  35.874  1.00  0.00     0.034 A 
HETATM   25  C   UNL     1      59.335  83.745  34.710  1.00  0.00     0.045 A 
HETATM   26  C   UNL     1      59.954  82.594  34.225  1.00  0.00     0.050 A 
HETATM   27  C   UNL     1      61.044  82.049  34.903  1.00  0.00     0.016 A 
HETATM   28  C   UNL     1      61.515  82.655  36.067  1.00  0.00     0.003 A 
HETATM   29  C   UNL     1      60.896  83.807  36.553  1.00  0.00     0.029 A 
BRANCH  26  30
HETATM   30  C   UNL     1      59.450  81.944  32.980  1.00  0.00     0.417 C 
HETATM   31  F   UNL     1      58.499  80.990  33.206  1.00  0.00    -0.166 F 
HETATM   32  F   UNL     1      58.876  82.818  32.102  1.00  0.00    -0.166 F 
HETATM   33  F   UNL     1      60.439  81.316  32.278  1.00  0.00    -0.166 F 
ENDBRANCH  26  30
ENDBRANCH  22  24
ENDBRANCH   5  22
TORSDOF 7
ENDMDL
