MODEL 1
REMARK VINA RESULT:      -7.5      0.000      0.000
REMARK  7 active torsions:
REMARK  status: ('A' for Active; 'I' for Inactive)
REMARK       I    between atoms: N_5  and  C_13 
REMARK    1  A    between atoms: N_5  and  C_14 
REMARK    2  A    between atoms: N_6  and  C_17 
REMARK    3  A    between atoms: N_6  and  C_20 
REMARK    4  A    between atoms: N_7  and  C_21 
REMARK    5  A    between atoms: N_7  and  C_23 
REMARK    6  A    between atoms: C_10  and  C_13 
REMARK    7  A    between atoms: C_24  and  C_29 
ROOT
HETATM    1  N   UNL     1      60.762  82.483  32.388  1.00  0.00    -0.224 NA
HETATM    2  N   UNL     1      59.656  84.541  32.978  1.00  0.00    -0.224 NA
HETATM    3  C   UNL     1      61.060  82.312  33.692  1.00  0.00     0.133 A 
HETATM    4  C   UNL     1      60.695  83.199  34.685  1.00  0.00     0.100 A 
HETATM    5  C   UNL     1      59.985  84.312  34.271  1.00  0.00     0.133 A 
HETATM    6  C   UNL     1      60.069  83.603  32.105  1.00  0.00     0.237 A 
ENDROOT
BRANCH   3   7
HETATM    7  N   UNL     1      61.789  81.162  34.081  1.00  0.00    -0.341 N 
HETATM    8  H   UNL     1      62.786  81.234  33.901  1.00  0.00     0.167 HD
BRANCH   7   9
HETATM    9  C   UNL     1      61.400  79.948  34.671  1.00  0.00     0.035 A 
HETATM   10  C   UNL     1      60.737  78.978  33.915  1.00  0.00     0.059 A 
HETATM   11  C   UNL     1      60.352  77.773  34.502  1.00  0.00     0.036 A 
HETATM   12  C   UNL     1      60.629  77.532  35.848  1.00  0.00     0.029 A 
HETATM   13  C   UNL     1      61.291  78.497  36.607  1.00  0.00     0.004 A 
HETATM   14  C   UNL     1      61.675  79.703  36.020  1.00  0.00     0.029 A 
BRANCH  11  15
HETATM   15  N   UNL     1      59.691  76.806  33.742  1.00  0.00    -0.327 N 
HETATM   16  C   UNL     1      58.315  76.626  33.587  1.00  0.00     0.226 C 
HETATM   17  O   UNL     1      57.411  77.283  34.088  1.00  0.00    -0.273 OA
HETATM   18  H   UNL     1      60.296  76.153  33.249  1.00  0.00     0.169 HD
BRANCH  16  19
HETATM   19  C   UNL     1      57.951  75.482  32.693  1.00  0.00     0.078 A 
HETATM   20  C   UNL     1      59.043  74.781  31.964  1.00  0.00     0.015 A 
HETATM   21  C   UNL     1      58.086  75.667  31.222  1.00  0.00     0.015 A 
ENDBRANCH  16  19
ENDBRANCH  11  15
ENDBRANCH   7   9
ENDBRANCH   3   7
BRANCH   5  22
HETATM   22  N   UNL     1      59.593  85.242  35.253  1.00  0.00    -0.341 N 
HETATM   23  H   UNL     1      60.172  85.200  36.089  1.00  0.00     0.167 HD
BRANCH  22  24
HETATM   24  C   UNL     1      58.405  85.975  35.454  1.00  0.00     0.034 A 
HETATM   25  C   UNL     1      57.462  85.535  36.382  1.00  0.00     0.045 A 
HETATM   26  C   UNL     1      56.288  86.261  36.582  1.00  0.00     0.050 A 
HETATM   27  C   UNL     1      56.057  87.427  35.852  1.00  0.00     0.016 A 
HETATM   28  C   UNL     1      57.000  87.868  34.923  1.00  0.00     0.003 A 
HETATM   29  C   UNL     1      58.174  87.141  34.724  1.00  0.00     0.029 A 
BRANCH  26  30
HETATM   30  C   UNL     1      55.279  85.791  37.575  1.00  0.00     0.417 C 
HETATM   31  F   UNL     1      55.109  86.642  38.628  1.00  0.00    -0.166 F 
HETATM   32  F   UNL     1      54.031  85.624  37.047  1.00  0.00    -0.166 F 
HETATM   33  F   UNL     1      55.607  84.586  38.127  1.00  0.00    -0.166 F 
ENDBRANCH  26  30
ENDBRANCH  22  24
ENDBRANCH   5  22
TORSDOF 7
ENDMDL
MODEL 2
REMARK VINA RESULT:      -7.3      4.284      6.682
REMARK  7 active torsions:
REMARK  status: ('A' for Active; 'I' for Inactive)
REMARK       I    between atoms: N_5  and  C_13 
REMARK    1  A    between atoms: N_5  and  C_14 
REMARK    2  A    between atoms: N_6  and  C_17 
REMARK    3  A    between atoms: N_6  and  C_20 
REMARK    4  A    between atoms: N_7  and  C_21 
REMARK    5  A    between atoms: N_7  and  C_23 
REMARK    6  A    between atoms: C_10  and  C_13 
REMARK    7  A    between atoms: C_24  and  C_29 
ROOT
HETATM    1  N   UNL     1      56.735  86.594  36.517  1.00  0.00    -0.224 NA
HETATM    2  N   UNL     1      55.466  85.873  38.433  1.00  0.00    -0.224 NA
HETATM    3  C   UNL     1      57.782  85.889  36.991  1.00  0.00     0.133 A 
HETATM    4  C   UNL     1      57.748  85.160  38.163  1.00  0.00     0.100 A 
HETATM    5  C   UNL     1      56.552  85.185  38.856  1.00  0.00     0.133 A 
HETATM    6  C   UNL     1      55.625  86.544  37.277  1.00  0.00     0.237 A 
ENDROOT
BRANCH   3   7
HETATM    7  N   UNL     1      58.993  85.886  36.256  1.00  0.00    -0.341 N 
HETATM    8  H   UNL     1      59.770  86.313  36.753  1.00  0.00     0.167 HD
BRANCH   7   9
HETATM    9  C   UNL     1      59.326  85.403  34.979  1.00  0.00     0.035 A 
HETATM   10  C   UNL     1      59.363  84.028  34.735  1.00  0.00     0.059 A 
HETATM   11  C   UNL     1      59.691  83.549  33.467  1.00  0.00     0.036 A 
HETATM   12  C   UNL     1      59.985  84.444  32.438  1.00  0.00     0.029 A 
HETATM   13  C   UNL     1      59.949  85.818  32.677  1.00  0.00     0.004 A 
HETATM   14  C   UNL     1      59.621  86.296  33.946  1.00  0.00     0.029 A 
BRANCH  11  15
HETATM   15  N   UNL     1      59.726  82.175  33.227  1.00  0.00    -0.327 N 
HETATM   16  C   UNL     1      59.011  81.449  32.272  1.00  0.00     0.226 C 
HETATM   17  O   UNL     1      58.209  81.875  31.451  1.00  0.00    -0.273 OA
HETATM   18  H   UNL     1      60.349  81.644  33.833  1.00  0.00     0.169 HD
BRANCH  16  19
HETATM   19  C   UNL     1      59.294  79.979  32.292  1.00  0.00     0.078 A 
HETATM   20  C   UNL     1      58.401  79.099  33.093  1.00  0.00     0.015 A 
HETATM   21  C   UNL     1      59.801  79.376  33.555  1.00  0.00     0.015 A 
ENDBRANCH  16  19
ENDBRANCH  11  15
ENDBRANCH   7   9
ENDBRANCH   3   7
BRANCH   5  22
HETATM   22  N   UNL     1      56.475  84.454  40.057  1.00  0.00    -0.341 N 
HETATM   23  H   UNL     1      56.095  83.519  39.927  1.00  0.00     0.167 HD
BRANCH  22  24
HETATM   24  C   UNL     1      56.508  84.839  41.413  1.00  0.00     0.034 A 
HETATM   25  C   UNL     1      57.728  84.924  42.086  1.00  0.00     0.045 A 
HETATM   26  C   UNL     1      57.759  85.307  43.426  1.00  0.00     0.050 A 
HETATM   27  C   UNL     1      56.572  85.604  44.095  1.00  0.00     0.016 A 
HETATM   28  C   UNL     1      55.353  85.519  43.424  1.00  0.00     0.003 A 
HETATM   29  C   UNL     1      55.321  85.136  42.082  1.00  0.00     0.029 A 
BRANCH  26  30
HETATM   30  C   UNL     1      59.063  85.398  44.146  1.00  0.00     0.417 C 
HETATM   31  F   UNL     1      60.054  85.985  43.412  1.00  0.00    -0.166 F 
HETATM   32  F   UNL     1      58.999  86.123  45.302  1.00  0.00    -0.166 F 
HETATM   33  F   UNL     1      59.550  84.175  44.507  1.00  0.00    -0.166 F 
ENDBRANCH  26  30
ENDBRANCH  22  24
ENDBRANCH   5  22
TORSDOF 7
ENDMDL
MODEL 3
REMARK VINA RESULT:      -7.1      1.648      2.774
REMARK  7 active torsions:
REMARK  status: ('A' for Active; 'I' for Inactive)
REMARK       I    between atoms: N_5  and  C_13 
REMARK    1  A    between atoms: N_5  and  C_14 
REMARK    2  A    between atoms: N_6  and  C_17 
REMARK    3  A    between atoms: N_6  and  C_20 
REMARK    4  A    between atoms: N_7  and  C_21 
REMARK    5  A    between atoms: N_7  and  C_23 
REMARK    6  A    between atoms: C_10  and  C_13 
REMARK    7  A    between atoms: C_24  and  C_29 
ROOT
HETATM    1  N   UNL     1      61.773  82.447  36.024  1.00  0.00    -0.224 NA
HETATM    2  N   UNL     1      61.028  84.337  37.321  1.00  0.00    -0.224 NA
HETATM    3  C   UNL     1      61.276  83.053  34.925  1.00  0.00     0.133 A 
HETATM    4  C   UNL     1      60.652  84.284  34.944  1.00  0.00     0.100 A 
HETATM    5  C   UNL     1      60.551  84.892  36.182  1.00  0.00     0.133 A 
HETATM    6  C   UNL     1      61.616  83.135  37.171  1.00  0.00     0.237 A 
ENDROOT
BRANCH   3   7
HETATM    7  N   UNL     1      61.396  82.401  33.673  1.00  0.00    -0.341 N 
HETATM    8  H   UNL     1      62.333  82.442  33.284  1.00  0.00     0.167 HD
BRANCH   7   9
HETATM    9  C   UNL     1      60.473  81.706  32.874  1.00  0.00     0.035 A 
HETATM   10  C   UNL     1      60.172  80.369  33.147  1.00  0.00     0.059 A 
HETATM   11  C   UNL     1      59.254  79.681  32.355  1.00  0.00     0.036 A 
HETATM   12  C   UNL     1      58.633  80.327  31.285  1.00  0.00     0.029 A 
HETATM   13  C   UNL     1      58.930  81.661  31.009  1.00  0.00     0.004 A 
HETATM   14  C   UNL     1      59.849  82.349  31.801  1.00  0.00     0.029 A 
BRANCH  11  15
HETATM   15  N   UNL     1      58.956  78.346  32.631  1.00  0.00    -0.327 N 
HETATM   16  C   UNL     1      57.807  77.827  33.232  1.00  0.00     0.226 C 
HETATM   17  O   UNL     1      56.828  78.442  33.636  1.00  0.00    -0.273 OA
HETATM   18  H   UNL     1      59.674  77.676  32.363  1.00  0.00     0.169 HD
BRANCH  16  19
HETATM   19  C   UNL     1      57.819  76.337  33.376  1.00  0.00     0.078 A 
HETATM   20  C   UNL     1      59.120  75.664  33.637  1.00  0.00     0.015 A 
HETATM   21  C   UNL     1      58.456  75.531  32.299  1.00  0.00     0.015 A 
ENDBRANCH  16  19
ENDBRANCH  11  15
ENDBRANCH   7   9
ENDBRANCH   3   7
BRANCH   5  22
HETATM   22  N   UNL     1      59.920  86.149  36.245  1.00  0.00    -0.341 N 
HETATM   23  H   UNL     1      60.489  86.854  36.710  1.00  0.00     0.167 HD
BRANCH  22  24
HETATM   24  C   UNL     1      58.577  86.552  36.096  1.00  0.00     0.034 A 
HETATM   25  C   UNL     1      57.601  86.064  36.964  1.00  0.00     0.045 A 
HETATM   26  C   UNL     1      56.273  86.464  36.817  1.00  0.00     0.050 A 
HETATM   27  C   UNL     1      55.921  87.353  35.801  1.00  0.00     0.016 A 
HETATM   28  C   UNL     1      56.896  87.841  34.933  1.00  0.00     0.003 A 
HETATM   29  C   UNL     1      58.225  87.441  35.080  1.00  0.00     0.029 A 
BRANCH  26  30
HETATM   30  C   UNL     1      55.228  85.942  37.746  1.00  0.00     0.417 C 
HETATM   31  F   UNL     1      53.973  85.937  37.210  1.00  0.00    -0.166 F 
HETATM   32  F   UNL     1      55.449  84.656  38.148  1.00  0.00    -0.166 F 
HETATM   33  F   UNL     1      55.134  86.674  38.895  1.00  0.00    -0.166 F 
ENDBRANCH  26  30
ENDBRANCH  22  24
ENDBRANCH   5  22
TORSDOF 7
ENDMDL
MODEL 4
REMARK VINA RESULT:      -7.1      8.044     12.809
REMARK  7 active torsions:
REMARK  status: ('A' for Active; 'I' for Inactive)
REMARK       I    between atoms: N_5  and  C_13 
REMARK    1  A    between atoms: N_5  and  C_14 
REMARK    2  A    between atoms: N_6  and  C_17 
REMARK    3  A    between atoms: N_6  and  C_20 
REMARK    4  A    between atoms: N_7  and  C_21 
REMARK    5  A    between atoms: N_7  and  C_23 
REMARK    6  A    between atoms: C_10  and  C_13 
REMARK    7  A    between atoms: C_24  and  C_29 
ROOT
HETATM    1  N   UNL     1      55.786  85.504  43.850  1.00  0.00    -0.224 NA
HETATM    2  N   UNL     1      55.829  84.719  41.572  1.00  0.00    -0.224 NA
HETATM    3  C   UNL     1      57.134  85.532  43.827  1.00  0.00     0.133 A 
HETATM    4  C   UNL     1      57.890  85.173  42.729  1.00  0.00     0.100 A 
HETATM    5  C   UNL     1      57.180  84.768  41.612  1.00  0.00     0.133 A 
HETATM    6  C   UNL     1      55.206  85.093  42.706  1.00  0.00     0.237 A 
ENDROOT
BRANCH   3   7
HETATM    7  N   UNL     1      57.829  85.950  44.988  1.00  0.00    -0.341 N 
HETATM    8  H   UNL     1      58.710  85.465  45.130  1.00  0.00     0.167 HD
BRANCH   7   9
HETATM    9  C   UNL     1      57.537  86.909  45.973  1.00  0.00     0.035 A 
HETATM   10  C   UNL     1      57.538  88.269  45.654  1.00  0.00     0.059 A 
HETATM   11  C   UNL     1      57.247  89.219  46.632  1.00  0.00     0.036 A 
HETATM   12  C   UNL     1      56.953  88.813  47.934  1.00  0.00     0.029 A 
HETATM   13  C   UNL     1      56.951  87.457  48.258  1.00  0.00     0.004 A 
HETATM   14  C   UNL     1      57.243  86.506  47.279  1.00  0.00     0.029 A 
BRANCH  11  15
HETATM   15  N   UNL     1      57.248  90.577  46.309  1.00  0.00    -0.327 N 
HETATM   16  C   UNL     1      56.234  91.318  45.699  1.00  0.00     0.226 C 
HETATM   17  O   UNL     1      55.137  90.924  45.326  1.00  0.00    -0.273 OA
HETATM   18  H   UNL     1      58.102  91.078  46.546  1.00  0.00     0.169 HD
BRANCH  16  19
HETATM   19  C   UNL     1      56.575  92.762  45.500  1.00  0.00     0.078 A 
HETATM   20  C   UNL     1      55.573  93.786  45.905  1.00  0.00     0.015 A 
HETATM   21  C   UNL     1      55.839  93.522  44.452  1.00  0.00     0.015 A 
ENDBRANCH  16  19
ENDBRANCH  11  15
ENDBRANCH   7   9
ENDBRANCH   3   7
BRANCH   5  22
HETATM   22  N   UNL     1      57.914  84.394  40.470  1.00  0.00    -0.341 N 
HETATM   23  H   UNL     1      58.796  83.940  40.699  1.00  0.00     0.167 HD
BRANCH  22  24
HETATM   24  C   UNL     1      57.845  84.791  39.119  1.00  0.00     0.034 A 
HETATM   25  C   UNL     1      56.638  85.240  38.583  1.00  0.00     0.045 A 
HETATM   26  C   UNL     1      56.571  85.634  37.248  1.00  0.00     0.050 A 
HETATM   27  C   UNL     1      57.712  85.578  36.446  1.00  0.00     0.016 A 
HETATM   28  C   UNL     1      58.919  85.128  36.981  1.00  0.00     0.003 A 
HETATM   29  C   UNL     1      58.986  84.735  38.318  1.00  0.00     0.029 A 
BRANCH  26  30
HETATM   30  C   UNL     1      55.281  86.115  36.674  1.00  0.00     0.417 C 
HETATM   31  F   UNL     1      55.374  87.329  36.058  1.00  0.00    -0.166 F 
HETATM   32  F   UNL     1      54.756  85.277  35.733  1.00  0.00    -0.166 F 
HETATM   33  F   UNL     1      54.307  86.258  37.621  1.00  0.00    -0.166 F 
ENDBRANCH  26  30
ENDBRANCH  22  24
ENDBRANCH   5  22
TORSDOF 7
ENDMDL
MODEL 5
REMARK VINA RESULT:      -7.0      4.220      9.197
REMARK  7 active torsions:
REMARK  status: ('A' for Active; 'I' for Inactive)
REMARK       I    between atoms: N_5  and  C_13 
REMARK    1  A    between atoms: N_5  and  C_14 
REMARK    2  A    between atoms: N_6  and  C_17 
REMARK    3  A    between atoms: N_6  and  C_20 
REMARK    4  A    between atoms: N_7  and  C_21 
REMARK    5  A    between atoms: N_7  and  C_23 
REMARK    6  A    between atoms: C_10  and  C_13 
REMARK    7  A    between atoms: C_24  and  C_29 
ROOT
HETATM    1  N   UNL     1      58.931  82.542  31.475  1.00  0.00    -0.224 NA
HETATM    2  N   UNL     1      58.976  80.397  32.571  1.00  0.00    -0.224 NA
HETATM    3  C   UNL     1      59.897  82.954  32.321  1.00  0.00     0.133 A 
HETATM    4  C   UNL     1      60.446  82.155  33.305  1.00  0.00     0.100 A 
HETATM    5  C   UNL     1      59.944  80.869  33.390  1.00  0.00     0.133 A 
HETATM    6  C   UNL     1      58.522  81.272  31.654  1.00  0.00     0.237 A 
ENDROOT
BRANCH   3   7
HETATM    7  N   UNL     1      60.387  84.277  32.207  1.00  0.00    -0.341 N 
HETATM    8  H   UNL     1      61.167  84.366  31.561  1.00  0.00     0.167 HD
BRANCH   7   9
HETATM    9  C   UNL     1      60.000  85.487  32.806  1.00  0.00     0.035 A 
HETATM   10  C   UNL     1      59.331  85.482  34.034  1.00  0.00     0.059 A 
HETATM   11  C   UNL     1      58.948  86.683  34.629  1.00  0.00     0.036 A 
HETATM   12  C   UNL     1      59.232  87.896  33.999  1.00  0.00     0.029 A 
HETATM   13  C   UNL     1      59.899  87.906  32.775  1.00  0.00     0.004 A 
HETATM   14  C   UNL     1      60.281  86.704  32.179  1.00  0.00     0.029 A 
BRANCH  11  15
HETATM   15  N   UNL     1      58.281  86.674  35.855  1.00  0.00    -0.327 N 
HETATM   16  C   UNL     1      56.916  86.843  36.094  1.00  0.00     0.226 C 
HETATM   17  O   UNL     1      56.028  87.033  35.273  1.00  0.00    -0.273 OA
HETATM   18  H   UNL     1      58.874  86.531  36.670  1.00  0.00     0.169 HD
BRANCH  16  19
HETATM   19  C   UNL     1      56.541  86.774  37.542  1.00  0.00     0.078 A 
HETATM   20  C   UNL     1      56.451  85.435  38.184  1.00  0.00     0.015 A 
HETATM   21  C   UNL     1      55.206  86.221  37.898  1.00  0.00     0.015 A 
ENDBRANCH  16  19
ENDBRANCH  11  15
ENDBRANCH   7   9
ENDBRANCH   3   7
BRANCH   5  22
HETATM   22  N   UNL     1      60.478  80.022  34.380  1.00  0.00    -0.341 N 
HETATM   23  H   UNL     1      61.110  80.505  35.014  1.00  0.00     0.167 HD
BRANCH  22  24
HETATM   24  C   UNL     1      60.578  78.619  34.484  1.00  0.00     0.034 A 
HETATM   25  C   UNL     1      59.591  77.806  33.926  1.00  0.00     0.045 A 
HETATM   26  C   UNL     1      59.691  76.419  34.028  1.00  0.00     0.050 A 
HETATM   27  C   UNL     1      60.778  75.844  34.688  1.00  0.00     0.016 A 
HETATM   28  C   UNL     1      61.764  76.657  35.247  1.00  0.00     0.003 A 
HETATM   29  C   UNL     1      61.664  78.045  35.144  1.00  0.00     0.029 A 
BRANCH  26  30
HETATM   30  C   UNL     1      58.636  75.548  33.431  1.00  0.00     0.417 C 
HETATM   31  F   UNL     1      57.377  76.065  33.534  1.00  0.00    -0.166 F 
HETATM   32  F   UNL     1      58.816  75.308  32.099  1.00  0.00    -0.166 F 
HETATM   33  F   UNL     1      58.576  74.318  34.021  1.00  0.00    -0.166 F 
ENDBRANCH  26  30
ENDBRANCH  22  24
ENDBRANCH   5  22
TORSDOF 7
ENDMDL
MODEL 6
REMARK VINA RESULT:      -7.0      5.235      8.067
REMARK  7 active torsions:
REMARK  status: ('A' for Active; 'I' for Inactive)
REMARK       I    between atoms: N_5  and  C_13 
REMARK    1  A    between atoms: N_5  and  C_14 
REMARK    2  A    between atoms: N_6  and  C_17 
REMARK    3  A    between atoms: N_6  and  C_20 
REMARK    4  A    between atoms: N_7  and  C_21 
REMARK    5  A    between atoms: N_7  and  C_23 
REMARK    6  A    between atoms: C_10  and  C_13 
REMARK    7  A    between atoms: C_24  and  C_29 
ROOT
HETATM    1  N   UNL     1      62.033  82.102  40.191  1.00  0.00    -0.224 NA
HETATM    2  N   UNL     1      61.314  82.729  42.404  1.00  0.00    -0.224 NA
HETATM    3  C   UNL     1      61.740  83.354  39.782  1.00  0.00     0.133 A 
HETATM    4  C   UNL     1      61.238  84.335  40.613  1.00  0.00     0.100 A 
HETATM    5  C   UNL     1      61.039  83.967  41.931  1.00  0.00     0.133 A 
HETATM    6  C   UNL     1      61.798  81.862  41.495  1.00  0.00     0.237 A 
ENDROOT
BRANCH   3   7
HETATM    7  N   UNL     1      61.954  83.696  38.424  1.00  0.00    -0.341 N 
HETATM    8  H   UNL     1      62.922  83.924  38.212  1.00  0.00     0.167 HD
BRANCH   7   9
HETATM    9  C   UNL     1      61.092  83.773  37.318  1.00  0.00     0.035 A 
HETATM   10  C   UNL     1      59.876  84.455  37.420  1.00  0.00     0.059 A 
HETATM   11  C   UNL     1      59.021  84.532  36.321  1.00  0.00     0.036 A 
HETATM   12  C   UNL     1      59.378  83.928  35.115  1.00  0.00     0.029 A 
HETATM   13  C   UNL     1      60.590  83.246  35.009  1.00  0.00     0.004 A 
HETATM   14  C   UNL     1      61.445  83.168  36.108  1.00  0.00     0.029 A 
BRANCH  11  15
HETATM   15  N   UNL     1      57.809  85.215  36.426  1.00  0.00    -0.327 N 
HETATM   16  C   UNL     1      57.599  86.595  36.471  1.00  0.00     0.226 C 
HETATM   17  O   UNL     1      58.439  87.484  36.426  1.00  0.00    -0.273 OA
HETATM   18  H   UNL     1      56.982  84.625  36.483  1.00  0.00     0.169 HD
BRANCH  16  19
HETATM   19  C   UNL     1      56.158  86.985  36.587  1.00  0.00     0.078 A 
HETATM   20  C   UNL     1      55.291  86.213  37.517  1.00  0.00     0.015 A 
HETATM   21  C   UNL     1      55.131  86.061  36.033  1.00  0.00     0.015 A 
ENDBRANCH  16  19
ENDBRANCH  11  15
ENDBRANCH   7   9
ENDBRANCH   3   7
BRANCH   5  22
HETATM   22  N   UNL     1      60.528  84.939  42.813  1.00  0.00    -0.341 N 
HETATM   23  H   UNL     1      61.258  85.439  43.315  1.00  0.00     0.167 HD
BRANCH  22  24
HETATM   24  C   UNL     1      59.251  85.142  43.374  1.00  0.00     0.034 A 
HETATM   25  C   UNL     1      58.113  85.059  42.570  1.00  0.00     0.045 A 
HETATM   26  C   UNL     1      56.850  85.258  43.126  1.00  0.00     0.050 A 
HETATM   27  C   UNL     1      56.724  85.541  44.486  1.00  0.00     0.016 A 
HETATM   28  C   UNL     1      57.860  85.624  45.290  1.00  0.00     0.003 A 
HETATM   29  C   UNL     1      59.124  85.425  44.734  1.00  0.00     0.029 A 
BRANCH  26  30
HETATM   30  C   UNL     1      55.634  85.170  42.266  1.00  0.00     0.417 C 
HETATM   31  F   UNL     1      54.747  86.189  42.466  1.00  0.00    -0.166 F 
HETATM   32  F   UNL     1      55.908  85.193  40.929  1.00  0.00    -0.166 F 
HETATM   33  F   UNL     1      54.926  84.021  42.475  1.00  0.00    -0.166 F 
ENDBRANCH  26  30
ENDBRANCH  22  24
ENDBRANCH   5  22
TORSDOF 7
ENDMDL
MODEL 7
REMARK VINA RESULT:      -7.0      6.902     10.095
REMARK  7 active torsions:
REMARK  status: ('A' for Active; 'I' for Inactive)
REMARK       I    between atoms: N_5  and  C_13 
REMARK    1  A    between atoms: N_5  and  C_14 
REMARK    2  A    between atoms: N_6  and  C_17 
REMARK    3  A    between atoms: N_6  and  C_20 
REMARK    4  A    between atoms: N_7  and  C_21 
REMARK    5  A    between atoms: N_7  and  C_23 
REMARK    6  A    between atoms: C_10  and  C_13 
REMARK    7  A    between atoms: C_24  and  C_29 
ROOT
HETATM    1  N   UNL     1      55.822  84.444  41.503  1.00  0.00    -0.224 NA
HETATM    2  N   UNL     1      55.859  84.916  43.866  1.00  0.00    -0.224 NA
HETATM    3  C   UNL     1      57.113  84.832  41.443  1.00  0.00     0.133 A 
HETATM    4  C   UNL     1      57.834  85.267  42.537  1.00  0.00     0.100 A 
HETATM    5  C   UNL     1      57.153  85.291  43.740  1.00  0.00     0.133 A 
HETATM    6  C   UNL     1      55.264  84.512  42.727  1.00  0.00     0.237 A 
ENDROOT
BRANCH   3   7
HETATM    7  N   UNL     1      57.779  84.794  40.194  1.00  0.00    -0.341 N 
HETATM    8  H   UNL     1      58.755  84.517  40.264  1.00  0.00     0.167 HD
BRANCH   7   9
HETATM    9  C   UNL     1      57.351  85.059  38.883  1.00  0.00     0.035 A 
HETATM   10  C   UNL     1      58.273  85.092  37.834  1.00  0.00     0.059 A 
HETATM   11  C   UNL     1      57.847  85.353  36.532  1.00  0.00     0.036 A 
HETATM   12  C   UNL     1      56.495  85.584  36.274  1.00  0.00     0.029 A 
HETATM   13  C   UNL     1      55.571  85.552  37.317  1.00  0.00     0.004 A 
HETATM   14  C   UNL     1      55.998  85.291  38.620  1.00  0.00     0.029 A 
BRANCH  11  15
HETATM   15  N   UNL     1      58.771  85.384  35.487  1.00  0.00    -0.327 N 
HETATM   16  C   UNL     1      59.313  86.502  34.848  1.00  0.00     0.226 C 
HETATM   17  O   UNL     1      59.084  87.682  35.080  1.00  0.00    -0.273 OA
HETATM   18  H   UNL     1      59.078  84.473  35.153  1.00  0.00     0.169 HD
BRANCH  16  19
HETATM   19  C   UNL     1      60.284  86.166  33.760  1.00  0.00     0.078 A 
HETATM   20  C   UNL     1      60.160  86.876  32.459  1.00  0.00     0.015 A 
HETATM   21  C   UNL     1      59.781  85.429  32.569  1.00  0.00     0.015 A 
ENDBRANCH  16  19
ENDBRANCH  11  15
ENDBRANCH   7   9
ENDBRANCH   3   7
BRANCH   5  22
HETATM   22  N   UNL     1      57.854  85.729  44.880  1.00  0.00    -0.341 N 
HETATM   23  H   UNL     1      58.588  85.084  45.164  1.00  0.00     0.167 HD
BRANCH  22  24
HETATM   24  C   UNL     1      57.555  86.680  45.878  1.00  0.00     0.034 A 
HETATM   25  C   UNL     1      57.324  88.010  45.528  1.00  0.00     0.045 A 
HETATM   26  C   UNL     1      57.027  88.950  46.514  1.00  0.00     0.050 A 
HETATM   27  C   UNL     1      56.962  88.560  47.852  1.00  0.00     0.016 A 
HETATM   28  C   UNL     1      57.194  87.230  48.203  1.00  0.00     0.003 A 
HETATM   29  C   UNL     1      57.491  86.290  47.216  1.00  0.00     0.029 A 
BRANCH  26  30
HETATM   30  C   UNL     1      56.779  90.373  46.140  1.00  0.00     0.417 C 
HETATM   31  F   UNL     1      57.679  90.867  45.240  1.00  0.00    -0.166 F 
HETATM   32  F   UNL     1      55.555  90.583  45.572  1.00  0.00    -0.166 F 
HETATM   33  F   UNL     1      56.835  91.215  47.213  1.00  0.00    -0.166 F 
ENDBRANCH  26  30
ENDBRANCH  22  24
ENDBRANCH   5  22
TORSDOF 7
ENDMDL
MODEL 8
REMARK VINA RESULT:      -7.0      4.643      7.556
REMARK  7 active torsions:
REMARK  status: ('A' for Active; 'I' for Inactive)
REMARK       I    between atoms: N_5  and  C_13 
REMARK    1  A    between atoms: N_5  and  C_14 
REMARK    2  A    between atoms: N_6  and  C_17 
REMARK    3  A    between atoms: N_6  and  C_20 
REMARK    4  A    between atoms: N_7  and  C_21 
REMARK    5  A    between atoms: N_7  and  C_23 
REMARK    6  A    between atoms: C_10  and  C_13 
REMARK    7  A    between atoms: C_24  and  C_29 
ROOT
HETATM    1  N   UNL     1      61.533  82.125  37.096  1.00  0.00    -0.224 NA
HETATM    2  N   UNL     1      60.752  83.467  35.254  1.00  0.00    -0.224 NA
HETATM    3  C   UNL     1      61.223  83.146  37.923  1.00  0.00     0.133 A 
HETATM    4  C   UNL     1      60.681  84.341  37.495  1.00  0.00     0.100 A 
HETATM    5  C   UNL     1      60.463  84.454  36.133  1.00  0.00     0.133 A 
HETATM    6  C   UNL     1      61.276  82.351  35.794  1.00  0.00     0.237 A 
ENDROOT
BRANCH   3   7
HETATM    7  N   UNL     1      61.461  82.997  39.311  1.00  0.00    -0.341 N 
HETATM    8  H   UNL     1      61.970  82.150  39.546  1.00  0.00     0.167 HD
BRANCH   7   9
HETATM    9  C   UNL     1      61.135  83.796  40.419  1.00  0.00     0.035 A 
HETATM   10  C   UNL     1      59.798  84.072  40.720  1.00  0.00     0.059 A 
HETATM   11  C   UNL     1      59.476  84.864  41.821  1.00  0.00     0.036 A 
HETATM   12  C   UNL     1      60.489  85.383  42.628  1.00  0.00     0.029 A 
HETATM   13  C   UNL     1      61.824  85.109  42.333  1.00  0.00     0.004 A 
HETATM   14  C   UNL     1      62.146  84.318  41.230  1.00  0.00     0.029 A 
BRANCH  11  15
HETATM   15  N   UNL     1      58.140  85.137  42.117  1.00  0.00    -0.327 N 
HETATM   16  C   UNL     1      57.520  85.150  43.369  1.00  0.00     0.226 C 
HETATM   17  O   UNL     1      58.028  84.925  44.460  1.00  0.00    -0.273 OA
HETATM   18  H   UNL     1      57.551  85.346  41.314  1.00  0.00     0.169 HD
BRANCH  16  19
HETATM   19  C   UNL     1      56.062  85.487  43.320  1.00  0.00     0.078 A 
HETATM   20  C   UNL     1      55.111  84.437  42.866  1.00  0.00     0.015 A 
HETATM   21  C   UNL     1      55.414  85.614  41.987  1.00  0.00     0.015 A 
ENDBRANCH  16  19
ENDBRANCH  11  15
ENDBRANCH   7   9
ENDBRANCH   3   7
BRANCH   5  22
HETATM   22  N   UNL     1      59.910  85.658  35.656  1.00  0.00    -0.341 N 
HETATM   23  H   UNL     1      60.616  86.361  35.450  1.00  0.00     0.167 HD
BRANCH  22  24
HETATM   24  C   UNL     1      58.609  86.197  35.707  1.00  0.00     0.034 A 
HETATM   25  C   UNL     1      57.691  85.721  36.643  1.00  0.00     0.045 A 
HETATM   26  C   UNL     1      56.404  86.257  36.694  1.00  0.00     0.050 A 
HETATM   27  C   UNL     1      56.035  87.269  35.808  1.00  0.00     0.016 A 
HETATM   28  C   UNL     1      56.952  87.745  34.872  1.00  0.00     0.003 A 
HETATM   29  C   UNL     1      58.239  87.210  34.821  1.00  0.00     0.029 A 
BRANCH  26  30
HETATM   30  C   UNL     1      55.423  85.747  37.695  1.00  0.00     0.417 C 
HETATM   31  F   UNL     1      55.235  86.587  38.755  1.00  0.00    -0.166 F 
HETATM   32  F   UNL     1      54.175  85.540  37.180  1.00  0.00    -0.166 F 
HETATM   33  F   UNL     1      55.798  84.551  38.238  1.00  0.00    -0.166 F 
ENDBRANCH  26  30
ENDBRANCH  22  24
ENDBRANCH   5  22
TORSDOF 7
ENDMDL
MODEL 9
REMARK VINA RESULT:      -6.8      8.378     11.507
REMARK  7 active torsions:
REMARK  status: ('A' for Active; 'I' for Inactive)
REMARK       I    between atoms: N_5  and  C_13 
REMARK    1  A    between atoms: N_5  and  C_14 
REMARK    2  A    between atoms: N_6  and  C_17 
REMARK    3  A    between atoms: N_6  and  C_20 
REMARK    4  A    between atoms: N_7  and  C_21 
REMARK    5  A    between atoms: N_7  and  C_23 
REMARK    6  A    between atoms: C_10  and  C_13 
REMARK    7  A    between atoms: C_24  and  C_29 
ROOT
HETATM    1  N   UNL     1      57.141  85.745  47.021  1.00  0.00    -0.224 NA
HETATM    2  N   UNL     1      57.019  87.906  48.079  1.00  0.00    -0.224 NA
HETATM    3  C   UNL     1      57.675  86.346  45.938  1.00  0.00     0.133 A 
HETATM    4  C   UNL     1      57.908  87.704  45.852  1.00  0.00     0.100 A 
HETATM    5  C   UNL     1      57.558  88.450  46.963  1.00  0.00     0.133 A 
HETATM    6  C   UNL     1      56.840  86.572  48.040  1.00  0.00     0.237 A 
ENDROOT
BRANCH   3   7
HETATM    7  N   UNL     1      58.021  85.552  44.817  1.00  0.00    -0.341 N 
HETATM    8  H   UNL     1      58.955  85.158  44.874  1.00  0.00     0.167 HD
BRANCH   7   9
HETATM    9  C   UNL     1      57.320  85.202  43.651  1.00  0.00     0.035 A 
HETATM   10  C   UNL     1      57.978  85.166  42.419  1.00  0.00     0.059 A 
HETATM   11  C   UNL     1      57.282  84.817  41.262  1.00  0.00     0.036 A 
HETATM   12  C   UNL     1      55.925  84.502  41.332  1.00  0.00     0.029 A 
HETATM   13  C   UNL     1      55.264  84.536  42.560  1.00  0.00     0.004 A 
HETATM   14  C   UNL     1      55.960  84.887  43.717  1.00  0.00     0.029 A 
BRANCH  11  15
HETATM   15  N   UNL     1      57.943  84.781  40.033  1.00  0.00    -0.327 N 
HETATM   16  C   UNL     1      57.459  85.173  38.783  1.00  0.00     0.226 C 
HETATM   17  O   UNL     1      56.355  85.628  38.515  1.00  0.00    -0.273 OA
HETATM   18  H   UNL     1      58.894  84.418  40.063  1.00  0.00     0.169 HD
BRANCH  16  19
HETATM   19  C   UNL     1      58.445  84.998  37.670  1.00  0.00     0.078 A 
HETATM   20  C   UNL     1      58.594  86.098  36.680  1.00  0.00     0.015 A 
HETATM   21  C   UNL     1      57.923  84.815  36.289  1.00  0.00     0.015 A 
ENDBRANCH  16  19
ENDBRANCH  11  15
ENDBRANCH   7   9
ENDBRANCH   3   7
BRANCH   5  22
HETATM   22  N   UNL     1      57.780  89.839  46.916  1.00  0.00    -0.341 N 
HETATM   23  H   UNL     1      57.859  90.258  47.840  1.00  0.00     0.167 HD
BRANCH  22  24
HETATM   24  C   UNL     1      57.599  90.801  45.901  1.00  0.00     0.034 A 
HETATM   25  C   UNL     1      58.564  90.958  44.906  1.00  0.00     0.045 A 
HETATM   26  C   UNL     1      58.384  91.908  43.902  1.00  0.00     0.050 A 
HETATM   27  C   UNL     1      57.237  92.702  43.892  1.00  0.00     0.016 A 
HETATM   28  C   UNL     1      56.272  92.547  44.886  1.00  0.00     0.003 A 
HETATM   29  C   UNL     1      56.453  91.596  45.891  1.00  0.00     0.029 A 
BRANCH  26  30
HETATM   30  C   UNL     1      59.416  92.075  42.838  1.00  0.00     0.417 C 
HETATM   31  F   UNL     1      59.732  93.379  42.582  1.00  0.00    -0.166 F 
HETATM   32  F   UNL     1      60.605  91.472  43.132  1.00  0.00    -0.166 F 
HETATM   33  F   UNL     1      59.025  91.551  41.640  1.00  0.00    -0.166 F 
ENDBRANCH  26  30
ENDBRANCH  22  24
ENDBRANCH   5  22
TORSDOF 7
ENDMDL
