MODEL 1
REMARK VINA RESULT:      -7.8      0.000      0.000
REMARK  7 active torsions:
REMARK  status: ('A' for Active; 'I' for Inactive)
REMARK       I    between atoms: N_5  and  C_13 
REMARK    1  A    between atoms: N_5  and  C_14 
REMARK    2  A    between atoms: N_6  and  C_17 
REMARK    3  A    between atoms: N_6  and  C_20 
REMARK    4  A    between atoms: N_7  and  C_21 
REMARK    5  A    between atoms: N_7  and  C_23 
REMARK    6  A    between atoms: C_10  and  C_13 
REMARK    7  A    between atoms: C_24  and  C_29 
ROOT
HETATM    1  N   UNL     1       5.349  11.910  23.331  1.00  0.00    -0.224 NA
HETATM    2  N   UNL     1       6.351  13.445  21.767  1.00  0.00    -0.224 NA
HETATM    3  C   UNL     1       4.215  12.637  23.261  1.00  0.00     0.133 A 
HETATM    4  C   UNL     1       4.074  13.765  22.478  1.00  0.00     0.100 A 
HETATM    5  C   UNL     1       5.185  14.132  21.740  1.00  0.00     0.133 A 
HETATM    6  C   UNL     1       6.363  12.364  22.570  1.00  0.00     0.237 A 
ENDROOT
BRANCH   3   7
HETATM    7  N   UNL     1       3.096  12.233  24.031  1.00  0.00    -0.341 N 
HETATM    8  H   UNL     1       2.683  11.360  23.716  1.00  0.00     0.167 HD
BRANCH   7   9
HETATM    9  C   UNL     1       2.456  12.802  25.144  1.00  0.00     0.035 A 
HETATM   10  C   UNL     1       3.029  13.891  25.806  1.00  0.00     0.059 A 
HETATM   11  C   UNL     1       2.392  14.456  26.910  1.00  0.00     0.036 A 
HETATM   12  C   UNL     1       1.177  13.935  27.356  1.00  0.00     0.029 A 
HETATM   13  C   UNL     1       0.600  12.849  26.699  1.00  0.00     0.004 A 
HETATM   14  C   UNL     1       1.239  12.283  25.595  1.00  0.00     0.029 A 
BRANCH  11  15
HETATM   15  N   UNL     1       2.968  15.544  27.568  1.00  0.00    -0.327 N 
HETATM   16  C   UNL     1       4.051  15.541  28.450  1.00  0.00     0.226 C 
HETATM   17  O   UNL     1       4.714  14.582  28.822  1.00  0.00    -0.273 OA
HETATM   18  H   UNL     1       2.534  16.445  27.379  1.00  0.00     0.169 HD
BRANCH  16  19
HETATM   19  C   UNL     1       4.408  16.897  28.974  1.00  0.00     0.078 A 
HETATM   20  C   UNL     1       3.714  18.081  28.399  1.00  0.00     0.015 A 
HETATM   21  C   UNL     1       5.157  17.823  28.082  1.00  0.00     0.015 A 
ENDBRANCH  16  19
ENDBRANCH  11  15
ENDBRANCH   7   9
ENDBRANCH   3   7
BRANCH   5  22
HETATM   22  N   UNL     1       5.083  15.277  20.927  1.00  0.00    -0.341 N 
HETATM   23  H   UNL     1       4.960  16.133  21.464  1.00  0.00     0.167 HD
BRANCH  22  24
HETATM   24  C   UNL     1       4.797  15.452  19.557  1.00  0.00     0.034 A 
HETATM   25  C   UNL     1       5.699  15.005  18.592  1.00  0.00     0.045 A 
HETATM   26  C   UNL     1       5.414  15.178  17.238  1.00  0.00     0.050 A 
HETATM   27  C   UNL     1       4.227  15.798  16.849  1.00  0.00     0.016 A 
HETATM   28  C   UNL     1       3.325  16.246  17.813  1.00  0.00     0.003 A 
HETATM   29  C   UNL     1       3.609  16.072  19.168  1.00  0.00     0.029 A 
BRANCH  26  30
HETATM   30  C   UNL     1       6.379  14.700  16.206  1.00  0.00     0.417 C 
HETATM   31  F   UNL     1       5.793  14.379  15.015  1.00  0.00    -0.166 F 
HETATM   32  F   UNL     1       7.343  15.616  15.893  1.00  0.00    -0.166 F 
HETATM   33  F   UNL     1       7.053  13.578  16.596  1.00  0.00    -0.166 F 
ENDBRANCH  26  30
ENDBRANCH  22  24
ENDBRANCH   5  22
TORSDOF 7
ENDMDL
MODEL 2
REMARK VINA RESULT:      -7.7      2.272      2.721
REMARK  7 active torsions:
REMARK  status: ('A' for Active; 'I' for Inactive)
REMARK       I    between atoms: N_5  and  C_13 
REMARK    1  A    between atoms: N_5  and  C_14 
REMARK    2  A    between atoms: N_6  and  C_17 
REMARK    3  A    between atoms: N_6  and  C_20 
REMARK    4  A    between atoms: N_7  and  C_21 
REMARK    5  A    between atoms: N_7  and  C_23 
REMARK    6  A    between atoms: C_10  and  C_13 
REMARK    7  A    between atoms: C_24  and  C_29 
ROOT
HETATM    1  N   UNL     1       5.279  12.057  23.199  1.00  0.00    -0.224 NA
HETATM    2  N   UNL     1       6.238  13.719  21.741  1.00  0.00    -0.224 NA
HETATM    3  C   UNL     1       4.159  12.808  23.257  1.00  0.00     0.133 A 
HETATM    4  C   UNL     1       4.006  14.008  22.593  1.00  0.00     0.100 A 
HETATM    5  C   UNL     1       5.088  14.426  21.840  1.00  0.00     0.133 A 
HETATM    6  C   UNL     1       6.265  12.565  22.435  1.00  0.00     0.237 A 
ENDROOT
BRANCH   3   7
HETATM    7  N   UNL     1       3.071  12.351  24.039  1.00  0.00    -0.341 N 
HETATM    8  H   UNL     1       2.684  11.467  23.718  1.00  0.00     0.167 HD
BRANCH   7   9
HETATM    9  C   UNL     1       2.430  12.878  25.172  1.00  0.00     0.035 A 
HETATM   10  C   UNL     1       2.955  13.999  25.820  1.00  0.00     0.059 A 
HETATM   11  C   UNL     1       2.318  14.523  26.944  1.00  0.00     0.036 A 
HETATM   12  C   UNL     1       1.150  13.929  27.425  1.00  0.00     0.029 A 
HETATM   13  C   UNL     1       0.622  12.810  26.781  1.00  0.00     0.004 A 
HETATM   14  C   UNL     1       1.261  12.286  25.657  1.00  0.00     0.029 A 
BRANCH  11  15
HETATM   15  N   UNL     1       2.846  15.643  27.588  1.00  0.00    -0.327 N 
HETATM   16  C   UNL     1       4.038  15.740  28.309  1.00  0.00     0.226 C 
HETATM   17  O   UNL     1       4.862  14.858  28.519  1.00  0.00    -0.273 OA
HETATM   18  H   UNL     1       2.281  16.487  27.523  1.00  0.00     0.169 HD
BRANCH  16  19
HETATM   19  C   UNL     1       4.298  17.103  28.870  1.00  0.00     0.078 A 
HETATM   20  C   UNL     1       3.491  18.242  28.357  1.00  0.00     0.015 A 
HETATM   21  C   UNL     1       4.940  18.116  27.989  1.00  0.00     0.015 A 
ENDBRANCH  16  19
ENDBRANCH  11  15
ENDBRANCH   7   9
ENDBRANCH   3   7
BRANCH   5  22
HETATM   22  N   UNL     1       4.972  15.646  21.147  1.00  0.00    -0.341 N 
HETATM   23  H   UNL     1       5.194  16.452  21.726  1.00  0.00     0.167 HD
BRANCH  22  24
HETATM   24  C   UNL     1       4.319  16.005  19.949  1.00  0.00     0.034 A 
HETATM   25  C   UNL     1       3.843  17.305  19.776  1.00  0.00     0.045 A 
HETATM   26  C   UNL     1       3.199  17.660  18.591  1.00  0.00     0.050 A 
HETATM   27  C   UNL     1       3.031  16.715  17.579  1.00  0.00     0.016 A 
HETATM   28  C   UNL     1       3.506  15.416  17.751  1.00  0.00     0.003 A 
HETATM   29  C   UNL     1       4.151  15.061  18.937  1.00  0.00     0.029 A 
BRANCH  26  30
HETATM   30  C   UNL     1       2.690  19.050  18.406  1.00  0.00     0.417 C 
HETATM   31  F   UNL     1       1.506  19.113  17.728  1.00  0.00    -0.166 F 
HETATM   32  F   UNL     1       2.464  19.710  19.580  1.00  0.00    -0.166 F 
HETATM   33  F   UNL     1       3.556  19.838  17.704  1.00  0.00    -0.166 F 
ENDBRANCH  26  30
ENDBRANCH  22  24
ENDBRANCH   5  22
TORSDOF 7
ENDMDL
MODEL 3
REMARK VINA RESULT:      -7.6      4.754      7.128
REMARK  7 active torsions:
REMARK  status: ('A' for Active; 'I' for Inactive)
REMARK       I    between atoms: N_5  and  C_13 
REMARK    1  A    between atoms: N_5  and  C_14 
REMARK    2  A    between atoms: N_6  and  C_17 
REMARK    3  A    between atoms: N_6  and  C_20 
REMARK    4  A    between atoms: N_7  and  C_21 
REMARK    5  A    between atoms: N_7  and  C_23 
REMARK    6  A    between atoms: C_10  and  C_13 
REMARK    7  A    between atoms: C_24  and  C_29 
ROOT
HETATM    1  N   UNL     1       7.474  14.135  22.620  1.00  0.00    -0.224 NA
HETATM    2  N   UNL     1       5.264  13.405  21.995  1.00  0.00    -0.224 NA
HETATM    3  C   UNL     1       7.306  13.507  23.803  1.00  0.00     0.133 A 
HETATM    4  C   UNL     1       6.162  12.817  24.149  1.00  0.00     0.100 A 
HETATM    5  C   UNL     1       5.157  12.796  23.198  1.00  0.00     0.133 A 
HETATM    6  C   UNL     1       6.428  14.046  21.776  1.00  0.00     0.237 A 
ENDROOT
BRANCH   3   7
HETATM    7  N   UNL     1       8.355  13.550  24.753  1.00  0.00    -0.341 N 
HETATM    8  H   UNL     1       9.171  13.008  24.480  1.00  0.00     0.167 HD
BRANCH   7   9
HETATM    9  C   UNL     1       8.487  14.200  25.991  1.00  0.00     0.035 A 
HETATM   10  C   UNL     1       7.383  14.823  26.580  1.00  0.00     0.059 A 
HETATM   11  C   UNL     1       7.515  15.467  27.810  1.00  0.00     0.036 A 
HETATM   12  C   UNL     1       8.751  15.491  28.457  1.00  0.00     0.029 A 
HETATM   13  C   UNL     1       9.855  14.871  27.873  1.00  0.00     0.004 A 
HETATM   14  C   UNL     1       9.724  14.227  26.642  1.00  0.00     0.029 A 
BRANCH  11  15
HETATM   15  N   UNL     1       6.410  16.086  28.395  1.00  0.00    -0.327 N 
HETATM   16  C   UNL     1       6.107  17.449  28.435  1.00  0.00     0.226 C 
HETATM   17  O   UNL     1       6.752  18.375  27.961  1.00  0.00    -0.273 OA
HETATM   18  H   UNL     1       5.752  15.458  28.853  1.00  0.00     0.169 HD
BRANCH  16  19
HETATM   19  C   UNL     1       4.831  17.766  29.151  1.00  0.00     0.078 A 
HETATM   20  C   UNL     1       3.644  18.150  28.340  1.00  0.00     0.015 A 
HETATM   21  C   UNL     1       4.362  19.178  29.163  1.00  0.00     0.015 A 
ENDBRANCH  16  19
ENDBRANCH  11  15
ENDBRANCH   7   9
ENDBRANCH   3   7
BRANCH   5  22
HETATM   22  N   UNL     1       3.973  12.102  23.513  1.00  0.00    -0.341 N 
HETATM   23  H   UNL     1       3.704  11.434  22.794  1.00  0.00     0.167 HD
BRANCH  22  24
HETATM   24  C   UNL     1       2.932  12.356  24.430  1.00  0.00     0.034 A 
HETATM   25  C   UNL     1       3.136  13.238  25.491  1.00  0.00     0.045 A 
HETATM   26  C   UNL     1       2.106  13.490  26.396  1.00  0.00     0.050 A 
HETATM   27  C   UNL     1       0.872  12.858  26.242  1.00  0.00     0.016 A 
HETATM   28  C   UNL     1       0.668  11.975  25.182  1.00  0.00     0.003 A 
HETATM   29  C   UNL     1       1.698  11.724  24.276  1.00  0.00     0.029 A 
BRANCH  26  30
HETATM   30  C   UNL     1       2.323  14.434  27.531  1.00  0.00     0.417 C 
HETATM   31  F   UNL     1       1.779  15.670  27.327  1.00  0.00    -0.166 F 
HETATM   32  F   UNL     1       1.791  14.001  28.711  1.00  0.00    -0.166 F 
HETATM   33  F   UNL     1       3.647  14.654  27.785  1.00  0.00    -0.166 F 
ENDBRANCH  26  30
ENDBRANCH  22  24
ENDBRANCH   5  22
TORSDOF 7
ENDMDL
MODEL 4
REMARK VINA RESULT:      -7.5      5.119      9.432
REMARK  7 active torsions:
REMARK  status: ('A' for Active; 'I' for Inactive)
REMARK       I    between atoms: N_5  and  C_13 
REMARK    1  A    between atoms: N_5  and  C_14 
REMARK    2  A    between atoms: N_6  and  C_17 
REMARK    3  A    between atoms: N_6  and  C_20 
REMARK    4  A    between atoms: N_7  and  C_21 
REMARK    5  A    between atoms: N_7  and  C_23 
REMARK    6  A    between atoms: C_10  and  C_13 
REMARK    7  A    between atoms: C_24  and  C_29 
ROOT
HETATM    1  N   UNL     1       6.547  15.010  21.884  1.00  0.00    -0.224 NA
HETATM    2  N   UNL     1       6.233  12.828  22.857  1.00  0.00    -0.224 NA
HETATM    3  C   UNL     1       5.240  15.258  22.109  1.00  0.00     0.133 A 
HETATM    4  C   UNL     1       4.378  14.354  22.697  1.00  0.00     0.100 A 
HETATM    5  C   UNL     1       4.930  13.137  23.056  1.00  0.00     0.133 A 
HETATM    6  C   UNL     1       6.970  13.793  22.275  1.00  0.00     0.237 A 
ENDROOT
BRANCH   3   7
HETATM    7  N   UNL     1       4.708  16.514  21.728  1.00  0.00    -0.341 N 
HETATM    8  H   UNL     1       4.657  17.181  22.492  1.00  0.00     0.167 HD
BRANCH   7   9
HETATM    9  C   UNL     1       4.245  17.013  20.499  1.00  0.00     0.035 A 
HETATM   10  C   UNL     1       4.772  16.529  19.299  1.00  0.00     0.059 A 
HETATM   11  C   UNL     1       4.310  17.024  18.080  1.00  0.00     0.036 A 
HETATM   12  C   UNL     1       3.319  18.006  18.055  1.00  0.00     0.029 A 
HETATM   13  C   UNL     1       2.790  18.492  19.251  1.00  0.00     0.004 A 
HETATM   14  C   UNL     1       3.253  17.997  20.470  1.00  0.00     0.029 A 
BRANCH  11  15
HETATM   15  N   UNL     1       4.839  16.538  16.883  1.00  0.00    -0.327 N 
HETATM   16  C   UNL     1       5.867  17.082  16.111  1.00  0.00     0.226 C 
HETATM   17  O   UNL     1       6.513  18.099  16.331  1.00  0.00    -0.273 OA
HETATM   18  H   UNL     1       4.410  15.682  16.536  1.00  0.00     0.169 HD
BRANCH  16  19
HETATM   19  C   UNL     1       6.182  16.293  14.878  1.00  0.00     0.078 A 
HETATM   20  C   UNL     1       6.046  14.813  14.935  1.00  0.00     0.015 A 
HETATM   21  C   UNL     1       7.405  15.445  14.879  1.00  0.00     0.015 A 
ENDBRANCH  16  19
ENDBRANCH  11  15
ENDBRANCH   7   9
ENDBRANCH   3   7
BRANCH   5  22
HETATM   22  N   UNL     1       4.084  12.187  23.659  1.00  0.00    -0.341 N 
HETATM   23  H   UNL     1       4.185  11.257  23.257  1.00  0.00     0.167 HD
BRANCH  22  24
HETATM   24  C   UNL     1       2.927  12.308  24.456  1.00  0.00     0.034 A 
HETATM   25  C   UNL     1       2.964  13.059  25.631  1.00  0.00     0.045 A 
HETATM   26  C   UNL     1       1.819  13.179  26.417  1.00  0.00     0.050 A 
HETATM   27  C   UNL     1       0.637  12.548  26.030  1.00  0.00     0.016 A 
HETATM   28  C   UNL     1       0.600  11.796  24.856  1.00  0.00     0.003 A 
HETATM   29  C   UNL     1       1.745  11.676  24.069  1.00  0.00     0.029 A 
BRANCH  26  30
HETATM   30  C   UNL     1       1.857  13.983  27.674  1.00  0.00     0.417 C 
HETATM   31  F   UNL     1       1.924  15.330  27.461  1.00  0.00    -0.166 F 
HETATM   32  F   UNL     1       0.764  13.802  28.471  1.00  0.00    -0.166 F 
HETATM   33  F   UNL     1       2.935  13.682  28.456  1.00  0.00    -0.166 F 
ENDBRANCH  26  30
ENDBRANCH  22  24
ENDBRANCH   5  22
TORSDOF 7
ENDMDL
MODEL 5
REMARK VINA RESULT:      -7.5      3.709      5.890
REMARK  7 active torsions:
REMARK  status: ('A' for Active; 'I' for Inactive)
REMARK       I    between atoms: N_5  and  C_13 
REMARK    1  A    between atoms: N_5  and  C_14 
REMARK    2  A    between atoms: N_6  and  C_17 
REMARK    3  A    between atoms: N_6  and  C_20 
REMARK    4  A    between atoms: N_7  and  C_21 
REMARK    5  A    between atoms: N_7  and  C_23 
REMARK    6  A    between atoms: C_10  and  C_13 
REMARK    7  A    between atoms: C_24  and  C_29 
ROOT
HETATM    1  N   UNL     1       7.343  13.855  17.888  1.00  0.00    -0.224 NA
HETATM    2  N   UNL     1       5.943  14.964  16.269  1.00  0.00    -0.224 NA
HETATM    3  C   UNL     1       6.489  14.262  18.850  1.00  0.00     0.133 A 
HETATM    4  C   UNL     1       5.357  15.012  18.603  1.00  0.00     0.100 A 
HETATM    5  C   UNL     1       5.126  15.342  17.280  1.00  0.00     0.133 A 
HETATM    6  C   UNL     1       7.015  14.237  16.638  1.00  0.00     0.237 A 
ENDROOT
BRANCH   3   7
HETATM    7  N   UNL     1       6.757  13.908  20.195  1.00  0.00    -0.341 N 
HETATM    8  H   UNL     1       7.530  13.256  20.295  1.00  0.00     0.167 HD
BRANCH   7   9
HETATM    9  C   UNL     1       6.166  14.287  21.411  1.00  0.00     0.035 A 
HETATM   10  C   UNL     1       5.137  13.519  21.964  1.00  0.00     0.059 A 
HETATM   11  C   UNL     1       4.552  13.896  23.172  1.00  0.00     0.036 A 
HETATM   12  C   UNL     1       4.993  15.043  23.833  1.00  0.00     0.029 A 
HETATM   13  C   UNL     1       6.019  15.813  23.286  1.00  0.00     0.004 A 
HETATM   14  C   UNL     1       6.604  15.436  22.076  1.00  0.00     0.029 A 
BRANCH  11  15
HETATM   15  N   UNL     1       3.526  13.126  23.721  1.00  0.00    -0.327 N 
HETATM   16  C   UNL     1       3.572  12.313  24.856  1.00  0.00     0.226 C 
HETATM   17  O   UNL     1       4.525  12.114  25.598  1.00  0.00    -0.273 OA
HETATM   18  H   UNL     1       2.640  13.164  23.221  1.00  0.00     0.169 HD
BRANCH  16  19
HETATM   19  C   UNL     1       2.278  11.625  25.161  1.00  0.00     0.078 A 
HETATM   20  C   UNL     1       1.123  11.860  24.253  1.00  0.00     0.015 A 
HETATM   21  C   UNL     1       1.134  12.453  25.631  1.00  0.00     0.015 A 
ENDBRANCH  16  19
ENDBRANCH  11  15
ENDBRANCH   7   9
ENDBRANCH   3   7
BRANCH   5  22
HETATM   22  N   UNL     1       3.981  16.106  16.986  1.00  0.00    -0.341 N 
HETATM   23  H   UNL     1       3.579  15.882  16.078  1.00  0.00     0.167 HD
BRANCH  22  24
HETATM   24  C   UNL     1       3.472  17.308  17.520  1.00  0.00     0.034 A 
HETATM   25  C   UNL     1       2.095  17.529  17.556  1.00  0.00     0.045 A 
HETATM   26  C   UNL     1       1.593  18.717  18.086  1.00  0.00     0.050 A 
HETATM   27  C   UNL     1       2.467  19.685  18.579  1.00  0.00     0.016 A 
HETATM   28  C   UNL     1       3.844  19.465  18.543  1.00  0.00     0.003 A 
HETATM   29  C   UNL     1       4.346  18.276  18.013  1.00  0.00     0.029 A 
BRANCH  26  30
HETATM   30  C   UNL     1       0.120  18.954  18.124  1.00  0.00     0.417 C 
HETATM   31  F   UNL     1      -0.615  17.811  18.256  1.00  0.00    -0.166 F 
HETATM   32  F   UNL     1      -0.277  19.754  19.157  1.00  0.00    -0.166 F 
HETATM   33  F   UNL     1      -0.344  19.559  16.992  1.00  0.00    -0.166 F 
ENDBRANCH  26  30
ENDBRANCH  22  24
ENDBRANCH   5  22
TORSDOF 7
ENDMDL
MODEL 6
REMARK VINA RESULT:      -7.5      4.327      8.638
REMARK  7 active torsions:
REMARK  status: ('A' for Active; 'I' for Inactive)
REMARK       I    between atoms: N_5  and  C_13 
REMARK    1  A    between atoms: N_5  and  C_14 
REMARK    2  A    between atoms: N_6  and  C_17 
REMARK    3  A    between atoms: N_6  and  C_20 
REMARK    4  A    between atoms: N_7  and  C_21 
REMARK    5  A    between atoms: N_7  and  C_23 
REMARK    6  A    between atoms: C_10  and  C_13 
REMARK    7  A    between atoms: C_24  and  C_29 
ROOT
HETATM    1  N   UNL     1       8.817  12.834  20.524  1.00  0.00    -0.224 NA
HETATM    2  N   UNL     1       8.252  13.627  22.728  1.00  0.00    -0.224 NA
HETATM    3  C   UNL     1       7.664  13.372  20.076  1.00  0.00     0.133 A 
HETATM    4  C   UNL     1       6.767  14.044  20.881  1.00  0.00     0.100 A 
HETATM    5  C   UNL     1       7.111  14.145  22.217  1.00  0.00     0.133 A 
HETATM    6  C   UNL     1       9.044  12.995  21.842  1.00  0.00     0.237 A 
ENDROOT
BRANCH   3   7
HETATM    7  N   UNL     1       7.343  13.249  18.702  1.00  0.00    -0.341 N 
HETATM    8  H   UNL     1       7.509  12.318  18.329  1.00  0.00     0.167 HD
BRANCH   7   9
HETATM    9  C   UNL     1       6.834  14.160  17.762  1.00  0.00     0.035 A 
HETATM   10  C   UNL     1       5.881  15.108  18.144  1.00  0.00     0.059 A 
HETATM   11  C   UNL     1       5.378  16.013  17.210  1.00  0.00     0.036 A 
HETATM   12  C   UNL     1       5.826  15.975  15.889  1.00  0.00     0.029 A 
HETATM   13  C   UNL     1       6.777  15.031  15.503  1.00  0.00     0.004 A 
HETATM   14  C   UNL     1       7.280  14.125  16.437  1.00  0.00     0.029 A 
BRANCH  11  15
HETATM   15  N   UNL     1       4.426  16.958  17.597  1.00  0.00    -0.327 N 
HETATM   16  C   UNL     1       3.046  16.789  17.725  1.00  0.00     0.226 C 
HETATM   17  O   UNL     1       2.393  15.773  17.525  1.00  0.00    -0.273 OA
HETATM   18  H   UNL     1       4.794  17.885  17.803  1.00  0.00     0.169 HD
BRANCH  16  19
HETATM   19  C   UNL     1       2.322  18.023  18.164  1.00  0.00     0.078 A 
HETATM   20  C   UNL     1       2.966  19.342  17.921  1.00  0.00     0.015 A 
HETATM   21  C   UNL     1       2.874  18.792  19.314  1.00  0.00     0.015 A 
ENDBRANCH  16  19
ENDBRANCH  11  15
ENDBRANCH   7   9
ENDBRANCH   3   7
BRANCH   5  22
HETATM   22  N   UNL     1       6.222  14.824  23.072  1.00  0.00    -0.341 N 
HETATM   23  H   UNL     1       6.419  15.820  23.137  1.00  0.00     0.167 HD
BRANCH  22  24
HETATM   24  C   UNL     1       5.345  14.380  24.084  1.00  0.00     0.034 A 
HETATM   25  C   UNL     1       4.206  13.647  23.749  1.00  0.00     0.045 A 
HETATM   26  C   UNL     1       3.340  13.208  24.750  1.00  0.00     0.050 A 
HETATM   27  C   UNL     1       3.612  13.501  26.086  1.00  0.00     0.016 A 
HETATM   28  C   UNL     1       4.750  14.234  26.421  1.00  0.00     0.003 A 
HETATM   29  C   UNL     1       5.617  14.674  25.420  1.00  0.00     0.029 A 
BRANCH  26  30
HETATM   30  C   UNL     1       2.122  12.424  24.392  1.00  0.00     0.417 C 
HETATM   31  F   UNL     1       2.378  11.113  24.110  1.00  0.00    -0.166 F 
HETATM   32  F   UNL     1       1.180  12.399  25.380  1.00  0.00    -0.166 F 
HETATM   33  F   UNL     1       1.485  12.918  23.290  1.00  0.00    -0.166 F 
ENDBRANCH  26  30
ENDBRANCH  22  24
ENDBRANCH   5  22
TORSDOF 7
ENDMDL
MODEL 7
REMARK VINA RESULT:      -7.3      5.651      9.397
REMARK  7 active torsions:
REMARK  status: ('A' for Active; 'I' for Inactive)
REMARK       I    between atoms: N_5  and  C_13 
REMARK    1  A    between atoms: N_5  and  C_14 
REMARK    2  A    between atoms: N_6  and  C_17 
REMARK    3  A    between atoms: N_6  and  C_20 
REMARK    4  A    between atoms: N_7  and  C_21 
REMARK    5  A    between atoms: N_7  and  C_23 
REMARK    6  A    between atoms: C_10  and  C_13 
REMARK    7  A    between atoms: C_24  and  C_29 
ROOT
HETATM    1  N   UNL     1       5.742  12.482  22.516  1.00  0.00    -0.224 NA
HETATM    2  N   UNL     1       4.282  11.719  24.275  1.00  0.00    -0.224 NA
HETATM    3  C   UNL     1       4.838  13.444  22.234  1.00  0.00     0.133 A 
HETATM    4  C   UNL     1       3.651  13.605  22.919  1.00  0.00     0.100 A 
HETATM    5  C   UNL     1       3.416  12.705  23.943  1.00  0.00     0.133 A 
HETATM    6  C   UNL     1       5.404  11.666  23.533  1.00  0.00     0.237 A 
ENDROOT
BRANCH   3   7
HETATM    7  N   UNL     1       5.111  14.347  21.178  1.00  0.00    -0.341 N 
HETATM    8  H   UNL     1       5.318  13.888  20.296  1.00  0.00     0.167 HD
BRANCH   7   9
HETATM    9  C   UNL     1       5.142  15.750  21.115  1.00  0.00     0.035 A 
HETATM   10  C   UNL     1       4.094  16.451  20.512  1.00  0.00     0.059 A 
HETATM   11  C   UNL     1       4.125  17.844  20.451  1.00  0.00     0.036 A 
HETATM   12  C   UNL     1       5.205  18.542  20.994  1.00  0.00     0.029 A 
HETATM   13  C   UNL     1       6.252  17.847  21.597  1.00  0.00     0.004 A 
HETATM   14  C   UNL     1       6.221  16.454  21.657  1.00  0.00     0.029 A 
BRANCH  11  15
HETATM   15  N   UNL     1       3.077  18.540  19.848  1.00  0.00    -0.327 N 
HETATM   16  C   UNL     1       2.589  18.406  18.546  1.00  0.00     0.226 C 
HETATM   17  O   UNL     1       2.986  17.647  17.672  1.00  0.00    -0.273 OA
HETATM   18  H   UNL     1       2.621  19.234  20.438  1.00  0.00     0.169 HD
BRANCH  16  19
HETATM   19  C   UNL     1       1.445  19.318  18.231  1.00  0.00     0.078 A 
HETATM   20  C   UNL     1       0.322  19.404  19.203  1.00  0.00     0.015 A 
HETATM   21  C   UNL     1       0.131  18.708  17.888  1.00  0.00     0.015 A 
ENDBRANCH  16  19
ENDBRANCH  11  15
ENDBRANCH   7   9
ENDBRANCH   3   7
BRANCH   5  22
HETATM   22  N   UNL     1       2.215  12.836  24.667  1.00  0.00    -0.341 N 
HETATM   23  H   UNL     1       1.443  13.169  24.094  1.00  0.00     0.167 HD
BRANCH  22  24
HETATM   24  C   UNL     1       1.936  12.912  26.047  1.00  0.00     0.034 A 
HETATM   25  C   UNL     1       1.196  11.904  26.667  1.00  0.00     0.045 A 
HETATM   26  C   UNL     1       0.922  11.979  28.032  1.00  0.00     0.050 A 
HETATM   27  C   UNL     1       1.387  13.062  28.778  1.00  0.00     0.016 A 
HETATM   28  C   UNL     1       2.126  14.070  28.159  1.00  0.00     0.003 A 
HETATM   29  C   UNL     1       2.401  13.995  26.793  1.00  0.00     0.029 A 
BRANCH  26  30
HETATM   30  C   UNL     1       0.131  10.902  28.695  1.00  0.00     0.417 C 
HETATM   31  F   UNL     1       0.901   9.943  29.287  1.00  0.00    -0.166 F 
HETATM   32  F   UNL     1      -0.692  11.359  29.684  1.00  0.00    -0.166 F 
HETATM   33  F   UNL     1      -0.680  10.234  27.823  1.00  0.00    -0.166 F 
ENDBRANCH  26  30
ENDBRANCH  22  24
ENDBRANCH   5  22
TORSDOF 7
ENDMDL
MODEL 8
REMARK VINA RESULT:      -7.3      2.411      3.977
REMARK  7 active torsions:
REMARK  status: ('A' for Active; 'I' for Inactive)
REMARK       I    between atoms: N_5  and  C_13 
REMARK    1  A    between atoms: N_5  and  C_14 
REMARK    2  A    between atoms: N_6  and  C_17 
REMARK    3  A    between atoms: N_6  and  C_20 
REMARK    4  A    between atoms: N_7  and  C_21 
REMARK    5  A    between atoms: N_7  and  C_23 
REMARK    6  A    between atoms: C_10  and  C_13 
REMARK    7  A    between atoms: C_24  and  C_29 
ROOT
HETATM    1  N   UNL     1       8.341  13.413  22.433  1.00  0.00    -0.224 NA
HETATM    2  N   UNL     1       8.721  12.690  20.166  1.00  0.00    -0.224 NA
HETATM    3  C   UNL     1       7.290  14.132  21.989  1.00  0.00     0.133 A 
HETATM    4  C   UNL     1       6.898  14.180  20.666  1.00  0.00     0.100 A 
HETATM    5  C   UNL     1       7.656  13.432  19.783  1.00  0.00     0.133 A 
HETATM    6  C   UNL     1       9.003  12.726  21.483  1.00  0.00     0.237 A 
ENDROOT
BRANCH   3   7
HETATM    7  N   UNL     1       6.536  14.887  22.920  1.00  0.00    -0.341 N 
HETATM    8  H   UNL     1       6.291  15.815  22.586  1.00  0.00     0.167 HD
BRANCH   7   9
HETATM    9  C   UNL     1       6.059  14.598  24.209  1.00  0.00     0.035 A 
HETATM   10  C   UNL     1       4.730  14.209  24.397  1.00  0.00     0.059 A 
HETATM   11  C   UNL     1       4.258  13.921  25.677  1.00  0.00     0.036 A 
HETATM   12  C   UNL     1       5.113  14.020  26.776  1.00  0.00     0.029 A 
HETATM   13  C   UNL     1       6.440  14.407  26.593  1.00  0.00     0.004 A 
HETATM   14  C   UNL     1       6.912  14.696  25.312  1.00  0.00     0.029 A 
BRANCH  11  15
HETATM   15  N   UNL     1       2.930  13.532  25.860  1.00  0.00    -0.327 N 
HETATM   16  C   UNL     1       2.311  12.354  25.437  1.00  0.00     0.226 C 
HETATM   17  O   UNL     1       2.813  11.423  24.820  1.00  0.00    -0.273 OA
HETATM   18  H   UNL     1       2.347  14.201  26.360  1.00  0.00     0.169 HD
BRANCH  16  19
HETATM   19  C   UNL     1       0.863  12.263  25.807  1.00  0.00     0.078 A 
HETATM   20  C   UNL     1       0.360  13.133  26.904  1.00  0.00     0.015 A 
HETATM   21  C   UNL     1       0.508  11.655  27.119  1.00  0.00     0.015 A 
ENDBRANCH  16  19
ENDBRANCH  11  15
ENDBRANCH   7   9
ENDBRANCH   3   7
BRANCH   5  22
HETATM   22  N   UNL     1       7.289  13.453  18.424  1.00  0.00    -0.341 N 
HETATM   23  H   UNL     1       7.891  12.874  17.843  1.00  0.00     0.167 HD
BRANCH  22  24
HETATM   24  C   UNL     1       6.490  14.332  17.664  1.00  0.00     0.034 A 
HETATM   25  C   UNL     1       6.841  14.637  16.349  1.00  0.00     0.045 A 
HETATM   26  C   UNL     1       6.049  15.505  15.599  1.00  0.00     0.050 A 
HETATM   27  C   UNL     1       4.905  16.069  16.163  1.00  0.00     0.016 A 
HETATM   28  C   UNL     1       4.553  15.766  17.478  1.00  0.00     0.003 A 
HETATM   29  C   UNL     1       5.346  14.897  18.229  1.00  0.00     0.029 A 
BRANCH  26  30
HETATM   30  C   UNL     1       6.425  15.830  14.192  1.00  0.00     0.417 C 
HETATM   31  F   UNL     1       6.158  14.825  13.307  1.00  0.00    -0.166 F 
HETATM   32  F   UNL     1       5.778  16.925  13.694  1.00  0.00    -0.166 F 
HETATM   33  F   UNL     1       7.757  16.097  14.053  1.00  0.00    -0.166 F 
ENDBRANCH  26  30
ENDBRANCH  22  24
ENDBRANCH   5  22
TORSDOF 7
ENDMDL
MODEL 9
REMARK VINA RESULT:      -7.2      3.569      8.119
REMARK  7 active torsions:
REMARK  status: ('A' for Active; 'I' for Inactive)
REMARK       I    between atoms: N_5  and  C_13 
REMARK    1  A    between atoms: N_5  and  C_14 
REMARK    2  A    between atoms: N_6  and  C_17 
REMARK    3  A    between atoms: N_6  and  C_20 
REMARK    4  A    between atoms: N_7  and  C_21 
REMARK    5  A    between atoms: N_7  and  C_23 
REMARK    6  A    between atoms: C_10  and  C_13 
REMARK    7  A    between atoms: C_24  and  C_29 
ROOT
HETATM    1  N   UNL     1       6.275  17.003  26.799  1.00  0.00    -0.224 NA
HETATM    2  N   UNL     1       4.332  16.892  28.220  1.00  0.00    -0.224 NA
HETATM    3  C   UNL     1       5.839  15.886  26.179  1.00  0.00     0.133 A 
HETATM    4  C   UNL     1       4.676  15.226  26.518  1.00  0.00     0.100 A 
HETATM    5  C   UNL     1       3.949  15.775  27.559  1.00  0.00     0.133 A 
HETATM    6  C   UNL     1       5.485  17.444  27.796  1.00  0.00     0.237 A 
ENDROOT
BRANCH   3   7
HETATM    7  N   UNL     1       6.609  15.350  25.118  1.00  0.00    -0.341 N 
HETATM    8  H   UNL     1       7.559  15.709  25.086  1.00  0.00     0.167 HD
BRANCH   7   9
HETATM    9  C   UNL     1       6.314  14.417  24.111  1.00  0.00     0.035 A 
HETATM   10  C   UNL     1       6.196  14.829  22.781  1.00  0.00     0.059 A 
HETATM   11  C   UNL     1       5.905  13.901  21.781  1.00  0.00     0.036 A 
HETATM   12  C   UNL     1       5.730  12.556  22.107  1.00  0.00     0.029 A 
HETATM   13  C   UNL     1       5.847  12.139  23.433  1.00  0.00     0.004 A 
HETATM   14  C   UNL     1       6.137  13.068  24.433  1.00  0.00     0.029 A 
BRANCH  11  15
HETATM   15  N   UNL     1       5.789  14.318  20.454  1.00  0.00    -0.327 N 
HETATM   16  C   UNL     1       4.796  15.119  19.886  1.00  0.00     0.226 C 
HETATM   17  O   UNL     1       3.826  15.618  20.442  1.00  0.00    -0.273 OA
HETATM   18  H   UNL     1       6.522  13.986  19.830  1.00  0.00     0.169 HD
BRANCH  16  19
HETATM   19  C   UNL     1       4.984  15.370  18.423  1.00  0.00     0.078 A 
HETATM   20  C   UNL     1       4.693  16.731  17.897  1.00  0.00     0.015 A 
HETATM   21  C   UNL     1       3.774  15.588  17.584  1.00  0.00     0.015 A 
ENDBRANCH  16  19
ENDBRANCH  11  15
ENDBRANCH   7   9
ENDBRANCH   3   7
BRANCH   5  22
HETATM   22  N   UNL     1       2.755  15.131  27.935  1.00  0.00    -0.341 N 
HETATM   23  H   UNL     1       2.518  15.279  28.914  1.00  0.00     0.167 HD
BRANCH  22  24
HETATM   24  C   UNL     1       2.007  14.088  27.351  1.00  0.00     0.034 A 
HETATM   25  C   UNL     1       2.343  13.614  26.083  1.00  0.00     0.045 A 
HETATM   26  C   UNL     1       1.604  12.582  25.506  1.00  0.00     0.050 A 
HETATM   27  C   UNL     1       0.528  12.023  26.197  1.00  0.00     0.016 A 
HETATM   28  C   UNL     1       0.192  12.497  27.465  1.00  0.00     0.003 A 
HETATM   29  C   UNL     1       0.931  13.530  28.042  1.00  0.00     0.029 A 
BRANCH  26  30
HETATM   30  C   UNL     1       1.962  12.074  24.150  1.00  0.00     0.417 C 
HETATM   31  F   UNL     1       2.788  10.987  24.172  1.00  0.00    -0.166 F 
HETATM   32  F   UNL     1       0.883  11.686  23.409  1.00  0.00    -0.166 F 
HETATM   33  F   UNL     1       2.609  13.009  23.393  1.00  0.00    -0.166 F 
ENDBRANCH  26  30
ENDBRANCH  22  24
ENDBRANCH   5  22
TORSDOF 7
ENDMDL
