REMARK  3 active torsions:
REMARK  status: ('A' for Active; 'I' for Inactive)
REMARK    1  A    between atoms: N_4  and  C_10 
REMARK    2  A    between atoms: N_5  and  C_14 
REMARK    3  A    between atoms: C_7  and  C_8 
ROOT
HETATM    1 CL   UNL     1       5.331   0.105   0.031  1.00  0.00    -0.084 Cl
HETATM    2  N   UNL     1      -2.721  -0.947   0.297  1.00  0.00    -0.067 NA
HETATM    3  N   UNL     1      -2.700   1.413  -0.191  1.00  0.00    -0.045 NA
HETATM    4  C   UNL     1      -0.625   0.213   0.045  1.00  0.00     0.045 A 
HETATM    5  C   UNL     1      -1.372  -0.924   0.284  1.00  0.00     0.068 A 
HETATM    6  C   UNL     1       0.822   0.188   0.041  1.00  0.00    -0.020 A 
HETATM    7  C   UNL     1      -1.351   1.364  -0.189  1.00  0.00     0.153 A 
HETATM    8  C   UNL     1       1.512  -0.069  -1.143  1.00  0.00     0.014 A 
HETATM    9  C   UNL     1       1.526   0.419   1.223  1.00  0.00     0.014 A 
HETATM   10  C   UNL     1      -3.312   0.239   0.056  1.00  0.00     0.722 A 
HETATM   11  C   UNL     1       2.906  -0.094  -1.147  1.00  0.00     0.024 A 
HETATM   12  C   UNL     1       2.921   0.394   1.219  1.00  0.00     0.024 A 
HETATM   13  C   UNL     1       3.611   0.138   0.035  1.00  0.00     0.034 A 
ENDROOT
BRANCH   5  14
HETATM   14  C   UNL     1      -0.709  -2.237   0.552  1.00  0.00     0.056 C 
HETATM   15  C   UNL     1      -0.463  -3.028  -0.730  1.00  0.00     0.011 C 
ENDBRANCH   5  14
BRANCH   7  16
HETATM   16  N   UNL     1      -0.653   2.571  -0.443  1.00  0.00    -0.383 N 
HETATM   17  H   UNL     1       0.247   2.717  -0.004  1.00  0.00     0.157 HD
HETATM   18  H   UNL     1      -1.222   3.390  -0.619  1.00  0.00     0.157 HD
ENDBRANCH   7  16
BRANCH  10  19
HETATM   19  N   UNL     1      -4.723   0.253   0.061  1.00  0.00    -0.231 N 
HETATM   20  H   UNL     1      -5.228  -0.604   0.241  1.00  0.00     0.174 HD
HETATM   21  H   UNL     1      -5.213   1.120  -0.115  1.00  0.00     0.174 HD
ENDBRANCH  10  19
TORSDOF 3
