MODEL 1
REMARK VINA RESULT:      -8.4      0.000      0.000
REMARK  7 active torsions:
REMARK  status: ('A' for Active; 'I' for Inactive)
REMARK       I    between atoms: N_5  and  C_13 
REMARK    1  A    between atoms: N_5  and  C_14 
REMARK    2  A    between atoms: N_6  and  C_17 
REMARK    3  A    between atoms: N_6  and  C_20 
REMARK    4  A    between atoms: N_7  and  C_21 
REMARK    5  A    between atoms: N_7  and  C_23 
REMARK    6  A    between atoms: C_10  and  C_13 
REMARK    7  A    between atoms: C_24  and  C_29 
ROOT
HETATM    1  N   UNL     1       4.102 -32.001  -2.677  1.00  0.00    -0.224 NA
HETATM    2  N   UNL     1       4.279 -32.837  -0.424  1.00  0.00    -0.224 NA
HETATM    3  C   UNL     1       2.933 -32.665  -2.792  1.00  0.00     0.133 A 
HETATM    4  C   UNL     1       2.380 -33.424  -1.780  1.00  0.00     0.100 A 
HETATM    5  C   UNL     1       3.101 -33.479  -0.601  1.00  0.00     0.133 A 
HETATM    6  C   UNL     1       4.714 -32.130  -1.484  1.00  0.00     0.237 A 
ENDROOT
BRANCH   3   7
HETATM    7  N   UNL     1       2.221 -32.588  -4.014  1.00  0.00    -0.341 N 
HETATM    8  H   UNL     1       2.000 -31.636  -4.294  1.00  0.00     0.167 HD
BRANCH   7   9
HETATM    9  C   UNL     1       1.770 -33.569  -4.912  1.00  0.00     0.035 A 
HETATM   10  C   UNL     1       2.604 -34.630  -5.273  1.00  0.00     0.059 A 
HETATM   11  C   UNL     1       2.155 -35.605  -6.163  1.00  0.00     0.036 A 
HETATM   12  C   UNL     1       0.868 -35.523  -6.697  1.00  0.00     0.029 A 
HETATM   13  C   UNL     1       0.032 -34.466  -6.339  1.00  0.00     0.004 A 
HETATM   14  C   UNL     1       0.482 -33.490  -5.449  1.00  0.00     0.029 A 
BRANCH  11  15
HETATM   15  N   UNL     1       2.992 -36.663  -6.521  1.00  0.00    -0.327 N 
HETATM   16  C   UNL     1       4.161 -36.617  -7.283  1.00  0.00     0.226 C 
HETATM   17  O   UNL     1       4.687 -35.636  -7.791  1.00  0.00    -0.273 OA
HETATM   18  H   UNL     1       2.701 -37.578  -6.183  1.00  0.00     0.169 HD
BRANCH  16  19
HETATM   19  C   UNL     1       4.813 -37.952  -7.473  1.00  0.00     0.078 A 
HETATM   20  C   UNL     1       3.946 -39.124  -7.769  1.00  0.00     0.015 A 
HETATM   21  C   UNL     1       4.606 -38.991  -6.428  1.00  0.00     0.015 A 
ENDBRANCH  16  19
ENDBRANCH  11  15
ENDBRANCH   7   9
ENDBRANCH   3   7
BRANCH   5  22
HETATM   22  N   UNL     1       2.571 -34.243   0.456  1.00  0.00    -0.341 N 
HETATM   23  H   UNL     1       1.976 -33.699   1.077  1.00  0.00     0.167 HD
BRANCH  22  24
HETATM   24  C   UNL     1       2.935 -35.488   1.010  1.00  0.00     0.034 A 
HETATM   25  C   UNL     1       2.034 -36.184   1.816  1.00  0.00     0.045 A 
HETATM   26  C   UNL     1       2.393 -37.416   2.362  1.00  0.00     0.050 A 
HETATM   27  C   UNL     1       3.655 -37.952   2.103  1.00  0.00     0.016 A 
HETATM   28  C   UNL     1       4.557 -37.256   1.299  1.00  0.00     0.003 A 
HETATM   29  C   UNL     1       4.196 -36.024   0.752  1.00  0.00     0.029 A 
BRANCH  26  30
HETATM   30  C   UNL     1       1.430 -38.160   3.224  1.00  0.00     0.417 C 
HETATM   31  F   UNL     1       1.916 -38.449   4.467  1.00  0.00    -0.166 F 
HETATM   32  F   UNL     1       0.262 -37.488   3.445  1.00  0.00    -0.166 F 
HETATM   33  F   UNL     1       1.064 -39.361   2.686  1.00  0.00    -0.166 F 
ENDBRANCH  26  30
ENDBRANCH  22  24
ENDBRANCH   5  22
TORSDOF 7
ENDMDL
MODEL 2
REMARK VINA RESULT:      -8.3      5.360      8.259
REMARK  7 active torsions:
REMARK  status: ('A' for Active; 'I' for Inactive)
REMARK       I    between atoms: N_5  and  C_13 
REMARK    1  A    between atoms: N_5  and  C_14 
REMARK    2  A    between atoms: N_6  and  C_17 
REMARK    3  A    between atoms: N_6  and  C_20 
REMARK    4  A    between atoms: N_7  and  C_21 
REMARK    5  A    between atoms: N_7  and  C_23 
REMARK    6  A    between atoms: C_10  and  C_13 
REMARK    7  A    between atoms: C_24  and  C_29 
ROOT
HETATM    1  N   UNL     1       3.884 -30.779  -1.054  1.00  0.00    -0.224 NA
HETATM    2  N   UNL     1       4.497 -33.055  -0.552  1.00  0.00    -0.224 NA
HETATM    3  C   UNL     1       2.614 -31.200  -1.231  1.00  0.00     0.133 A 
HETATM    4  C   UNL     1       2.214 -32.513  -1.088  1.00  0.00     0.100 A 
HETATM    5  C   UNL     1       3.206 -33.413  -0.743  1.00  0.00     0.133 A 
HETATM    6  C   UNL     1       4.761 -31.746  -0.722  1.00  0.00     0.237 A 
ENDROOT
BRANCH   3   7
HETATM    7  N   UNL     1       1.624 -30.251  -1.585  1.00  0.00    -0.341 N 
HETATM    8  H   UNL     1       1.512 -30.137  -2.588  1.00  0.00     0.167 HD
BRANCH   7   9
HETATM    9  C   UNL     1       0.767 -29.445  -0.817  1.00  0.00     0.035 A 
HETATM   10  C   UNL     1       1.173 -28.171  -0.412  1.00  0.00     0.059 A 
HETATM   11  C   UNL     1       0.321 -27.372   0.349  1.00  0.00     0.036 A 
HETATM   12  C   UNL     1      -0.943 -27.843   0.707  1.00  0.00     0.029 A 
HETATM   13  C   UNL     1      -1.353 -29.113   0.305  1.00  0.00     0.004 A 
HETATM   14  C   UNL     1      -0.499 -29.913  -0.455  1.00  0.00     0.029 A 
BRANCH  11  15
HETATM   15  N   UNL     1       0.730 -26.099   0.751  1.00  0.00    -0.327 N 
HETATM   16  C   UNL     1       0.568 -24.888   0.074  1.00  0.00     0.226 C 
HETATM   17  O   UNL     1       0.032 -24.701  -1.010  1.00  0.00    -0.273 OA
HETATM   18  H   UNL     1       1.211 -26.062   1.647  1.00  0.00     0.169 HD
BRANCH  16  19
HETATM   19  C   UNL     1       1.132 -23.708   0.802  1.00  0.00     0.078 A 
HETATM   20  C   UNL     1       0.748 -23.507   2.225  1.00  0.00     0.015 A 
HETATM   21  C   UNL     1       0.211 -22.595   1.160  1.00  0.00     0.015 A 
ENDBRANCH  16  19
ENDBRANCH  11  15
ENDBRANCH   7   9
ENDBRANCH   3   7
BRANCH   5  22
HETATM   22  N   UNL     1       2.839 -34.764  -0.587  1.00  0.00    -0.341 N 
HETATM   23  H   UNL     1       2.006 -35.010  -1.115  1.00  0.00     0.167 HD
BRANCH  22  24
HETATM   24  C   UNL     1       3.179 -35.740   0.372  1.00  0.00     0.034 A 
HETATM   25  C   UNL     1       2.403 -35.890   1.522  1.00  0.00     0.045 A 
HETATM   26  C   UNL     1       2.739 -36.857   2.469  1.00  0.00     0.050 A 
HETATM   27  C   UNL     1       3.851 -37.675   2.267  1.00  0.00     0.016 A 
HETATM   28  C   UNL     1       4.627 -37.525   1.118  1.00  0.00     0.003 A 
HETATM   29  C   UNL     1       4.291 -36.558   0.170  1.00  0.00     0.029 A 
BRANCH  26  30
HETATM   30  C   UNL     1       1.909 -37.018   3.698  1.00  0.00     0.417 C 
HETATM   31  F   UNL     1       0.567 -37.063   3.452  1.00  0.00    -0.166 F 
HETATM   32  F   UNL     1       2.182 -38.159   4.396  1.00  0.00    -0.166 F 
HETATM   33  F   UNL     1       2.084 -35.995   4.587  1.00  0.00    -0.166 F 
ENDBRANCH  26  30
ENDBRANCH  22  24
ENDBRANCH   5  22
TORSDOF 7
ENDMDL
MODEL 3
REMARK VINA RESULT:      -8.2      1.735      2.249
REMARK  7 active torsions:
REMARK  status: ('A' for Active; 'I' for Inactive)
REMARK       I    between atoms: N_5  and  C_13 
REMARK    1  A    between atoms: N_5  and  C_14 
REMARK    2  A    between atoms: N_6  and  C_17 
REMARK    3  A    between atoms: N_6  and  C_20 
REMARK    4  A    between atoms: N_7  and  C_21 
REMARK    5  A    between atoms: N_7  and  C_23 
REMARK    6  A    between atoms: C_10  and  C_13 
REMARK    7  A    between atoms: C_24  and  C_29 
ROOT
HETATM    1  N   UNL     1       3.923 -31.750  -2.961  1.00  0.00    -0.224 NA
HETATM    2  N   UNL     1       4.220 -32.501  -0.691  1.00  0.00    -0.224 NA
HETATM    3  C   UNL     1       2.764 -32.439  -2.998  1.00  0.00     0.133 A 
HETATM    4  C   UNL     1       2.273 -33.172  -1.936  1.00  0.00     0.100 A 
HETATM    5  C   UNL     1       3.049 -33.171  -0.790  1.00  0.00     0.133 A 
HETATM    6  C   UNL     1       4.592 -31.825  -1.794  1.00  0.00     0.237 A 
ENDROOT
BRANCH   3   7
HETATM    7  N   UNL     1       1.995 -32.418  -4.187  1.00  0.00    -0.341 N 
HETATM    8  H   UNL     1       1.672 -31.490  -4.444  1.00  0.00     0.167 HD
BRANCH   7   9
HETATM    9  C   UNL     1       1.600 -33.429  -5.078  1.00  0.00     0.035 A 
HETATM   10  C   UNL     1       2.464 -34.489  -5.368  1.00  0.00     0.059 A 
HETATM   11  C   UNL     1       2.071 -35.493  -6.252  1.00  0.00     0.036 A 
HETATM   12  C   UNL     1       0.811 -35.442  -6.851  1.00  0.00     0.029 A 
HETATM   13  C   UNL     1      -0.054 -34.387  -6.565  1.00  0.00     0.004 A 
HETATM   14  C   UNL     1       0.340 -33.382  -5.681  1.00  0.00     0.029 A 
BRANCH  11  15
HETATM   15  N   UNL     1       2.936 -36.550  -6.538  1.00  0.00    -0.327 N 
HETATM   16  C   UNL     1       4.118 -36.519  -7.282  1.00  0.00     0.226 C 
HETATM   17  O   UNL     1       4.632 -35.555  -7.833  1.00  0.00    -0.273 OA
HETATM   18  H   UNL     1       2.659 -37.453  -6.156  1.00  0.00     0.169 HD
BRANCH  16  19
HETATM   19  C   UNL     1       4.801 -37.847  -7.388  1.00  0.00     0.078 A 
HETATM   20  C   UNL     1       3.963 -39.056  -7.609  1.00  0.00     0.015 A 
HETATM   21  C   UNL     1       4.620 -38.824  -6.280  1.00  0.00     0.015 A 
ENDBRANCH  16  19
ENDBRANCH  11  15
ENDBRANCH   7   9
ENDBRANCH   3   7
BRANCH   5  22
HETATM   22  N   UNL     1       2.583 -33.907   0.316  1.00  0.00    -0.341 N 
HETATM   23  H   UNL     1       2.168 -33.318   1.035  1.00  0.00     0.167 HD
BRANCH  22  24
HETATM   24  C   UNL     1       2.852 -35.213   0.776  1.00  0.00     0.034 A 
HETATM   25  C   UNL     1       3.409 -36.156  -0.086  1.00  0.00     0.045 A 
HETATM   26  C   UNL     1       3.676 -37.447   0.370  1.00  0.00     0.050 A 
HETATM   27  C   UNL     1       3.385 -37.794   1.689  1.00  0.00     0.016 A 
HETATM   28  C   UNL     1       2.827 -36.851   2.552  1.00  0.00     0.003 A 
HETATM   29  C   UNL     1       2.561 -35.560   2.096  1.00  0.00     0.029 A 
BRANCH  26  30
HETATM   30  C   UNL     1       4.272 -38.456  -0.552  1.00  0.00     0.417 C 
HETATM   31  F   UNL     1       3.655 -38.519  -1.768  1.00  0.00    -0.166 F 
HETATM   32  F   UNL     1       5.589 -38.229  -0.833  1.00  0.00    -0.166 F 
HETATM   33  F   UNL     1       4.219 -39.724  -0.048  1.00  0.00    -0.166 F 
ENDBRANCH  26  30
ENDBRANCH  22  24
ENDBRANCH   5  22
TORSDOF 7
ENDMDL
MODEL 4
REMARK VINA RESULT:      -8.0      4.422      7.520
REMARK  7 active torsions:
REMARK  status: ('A' for Active; 'I' for Inactive)
REMARK       I    between atoms: N_5  and  C_13 
REMARK    1  A    between atoms: N_5  and  C_14 
REMARK    2  A    between atoms: N_6  and  C_17 
REMARK    3  A    between atoms: N_6  and  C_20 
REMARK    4  A    between atoms: N_7  and  C_21 
REMARK    5  A    between atoms: N_7  and  C_23 
REMARK    6  A    between atoms: C_10  and  C_13 
REMARK    7  A    between atoms: C_24  and  C_29 
ROOT
HETATM    1  N   UNL     1       3.715 -32.159  -2.956  1.00  0.00    -0.224 NA
HETATM    2  N   UNL     1       2.479 -33.935  -1.896  1.00  0.00    -0.224 NA
HETATM    3  C   UNL     1       4.156 -31.788  -1.736  1.00  0.00     0.133 A 
HETATM    4  C   UNL     1       3.807 -32.432  -0.566  1.00  0.00     0.100 A 
HETATM    5  C   UNL     1       2.955 -33.513  -0.701  1.00  0.00     0.133 A 
HETATM    6  C   UNL     1       2.891 -33.224  -2.962  1.00  0.00     0.237 A 
ENDROOT
BRANCH   3   7
HETATM    7  N   UNL     1       5.026 -30.675  -1.634  1.00  0.00    -0.341 N 
HETATM    8  H   UNL     1       5.994 -30.933  -1.459  1.00  0.00     0.167 HD
BRANCH   7   9
HETATM    9  C   UNL     1       4.811 -29.291  -1.735  1.00  0.00     0.035 A 
HETATM   10  C   UNL     1       3.544 -28.755  -1.489  1.00  0.00     0.059 A 
HETATM   11  C   UNL     1       3.332 -27.381  -1.588  1.00  0.00     0.036 A 
HETATM   12  C   UNL     1       4.386 -26.535  -1.933  1.00  0.00     0.029 A 
HETATM   13  C   UNL     1       5.653 -27.064  -2.178  1.00  0.00     0.004 A 
HETATM   14  C   UNL     1       5.865 -28.440  -2.080  1.00  0.00     0.029 A 
BRANCH  11  15
HETATM   15  N   UNL     1       2.064 -26.851  -1.341  1.00  0.00    -0.327 N 
HETATM   16  C   UNL     1       1.558 -26.352  -0.139  1.00  0.00     0.226 C 
HETATM   17  O   UNL     1       2.128 -26.280   0.942  1.00  0.00    -0.273 OA
HETATM   18  H   UNL     1       1.437 -26.835  -2.143  1.00  0.00     0.169 HD
BRANCH  16  19
HETATM   19  C   UNL     1       0.149 -25.858  -0.233  1.00  0.00     0.078 A 
HETATM   20  C   UNL     1      -0.425 -25.617  -1.585  1.00  0.00     0.015 A 
HETATM   21  C   UNL     1      -0.078 -24.461  -0.694  1.00  0.00     0.015 A 
ENDBRANCH  16  19
ENDBRANCH  11  15
ENDBRANCH   7   9
ENDBRANCH   3   7
BRANCH   5  22
HETATM   22  N   UNL     1       2.576 -34.198   0.469  1.00  0.00    -0.341 N 
HETATM   23  H   UNL     1       2.099 -33.600   1.140  1.00  0.00     0.167 HD
BRANCH  22  24
HETATM   24  C   UNL     1       2.989 -35.422   1.035  1.00  0.00     0.034 A 
HETATM   25  C   UNL     1       2.234 -36.013   2.048  1.00  0.00     0.045 A 
HETATM   26  C   UNL     1       2.642 -37.224   2.606  1.00  0.00     0.050 A 
HETATM   27  C   UNL     1       3.806 -37.844   2.152  1.00  0.00     0.016 A 
HETATM   28  C   UNL     1       4.562 -37.254   1.139  1.00  0.00     0.003 A 
HETATM   29  C   UNL     1       4.153 -36.042   0.581  1.00  0.00     0.029 A 
BRANCH  26  30
HETATM   30  C   UNL     1       1.835 -37.857   3.690  1.00  0.00     0.417 C 
HETATM   31  F   UNL     1       2.027 -39.204   3.801  1.00  0.00    -0.166 F 
HETATM   32  F   UNL     1       2.101 -37.355   4.932  1.00  0.00    -0.166 F 
HETATM   33  F   UNL     1       0.492 -37.693   3.508  1.00  0.00    -0.166 F 
ENDBRANCH  26  30
ENDBRANCH  22  24
ENDBRANCH   5  22
TORSDOF 7
ENDMDL
MODEL 5
REMARK VINA RESULT:      -7.9      5.365      8.137
REMARK  7 active torsions:
REMARK  status: ('A' for Active; 'I' for Inactive)
REMARK       I    between atoms: N_5  and  C_13 
REMARK    1  A    between atoms: N_5  and  C_14 
REMARK    2  A    between atoms: N_6  and  C_17 
REMARK    3  A    between atoms: N_6  and  C_20 
REMARK    4  A    between atoms: N_7  and  C_21 
REMARK    5  A    between atoms: N_7  and  C_23 
REMARK    6  A    between atoms: C_10  and  C_13 
REMARK    7  A    between atoms: C_24  and  C_29 
ROOT
HETATM    1  N   UNL     1       3.119 -30.730  -2.137  1.00  0.00    -0.224 NA
HETATM    2  N   UNL     1       4.986 -29.774  -3.324  1.00  0.00    -0.224 NA
HETATM    3  C   UNL     1       3.970 -31.622  -1.591  1.00  0.00     0.133 A 
HETATM    4  C   UNL     1       5.324 -31.653  -1.858  1.00  0.00     0.100 A 
HETATM    5  C   UNL     1       5.788 -30.696  -2.742  1.00  0.00     0.133 A 
HETATM    6  C   UNL     1       3.685 -29.848  -2.983  1.00  0.00     0.237 A 
ENDROOT
BRANCH   3   7
HETATM    7  N   UNL     1       3.461 -32.589  -0.690  1.00  0.00    -0.341 N 
HETATM    8  H   UNL     1       3.312 -32.229   0.249  1.00  0.00     0.167 HD
BRANCH   7   9
HETATM    9  C   UNL     1       3.116 -33.942  -0.846  1.00  0.00     0.035 A 
HETATM   10  C   UNL     1       2.969 -34.765   0.274  1.00  0.00     0.059 A 
HETATM   11  C   UNL     1       2.626 -36.107   0.118  1.00  0.00     0.036 A 
HETATM   12  C   UNL     1       2.427 -36.633  -1.159  1.00  0.00     0.029 A 
HETATM   13  C   UNL     1       2.573 -35.816  -2.279  1.00  0.00     0.004 A 
HETATM   14  C   UNL     1       2.917 -34.473  -2.123  1.00  0.00     0.029 A 
BRANCH  11  15
HETATM   15  N   UNL     1       2.479 -36.925   1.240  1.00  0.00    -0.327 N 
HETATM   16  C   UNL     1       3.476 -37.401   2.095  1.00  0.00     0.226 C 
HETATM   17  O   UNL     1       4.681 -37.194   2.031  1.00  0.00    -0.273 OA
HETATM   18  H   UNL     1       1.524 -37.209   1.448  1.00  0.00     0.169 HD
BRANCH  16  19
HETATM   19  C   UNL     1       2.960 -38.261   3.206  1.00  0.00     0.078 A 
HETATM   20  C   UNL     1       1.559 -38.755   3.124  1.00  0.00     0.015 A 
HETATM   21  C   UNL     1       1.928 -37.692   4.116  1.00  0.00     0.015 A 
ENDBRANCH  16  19
ENDBRANCH  11  15
ENDBRANCH   7   9
ENDBRANCH   3   7
BRANCH   5  22
HETATM   22  N   UNL     1       7.164 -30.694  -3.041  1.00  0.00    -0.341 N 
HETATM   23  H   UNL     1       7.389 -30.135  -3.861  1.00  0.00     0.167 HD
BRANCH  22  24
HETATM   24  C   UNL     1       8.227 -31.536  -2.654  1.00  0.00     0.034 A 
HETATM   25  C   UNL     1       9.084 -31.150  -1.623  1.00  0.00     0.045 A 
HETATM   26  C   UNL     1      10.134 -31.984  -1.240  1.00  0.00     0.050 A 
HETATM   27  C   UNL     1      10.327 -33.204  -1.887  1.00  0.00     0.016 A 
HETATM   28  C   UNL     1       9.471 -33.591  -2.918  1.00  0.00     0.003 A 
HETATM   29  C   UNL     1       8.421 -32.756  -3.301  1.00  0.00     0.029 A 
BRANCH  26  30
HETATM   30  C   UNL     1      11.051 -31.571  -0.137  1.00  0.00     0.417 C 
HETATM   31  F   UNL     1      10.618 -30.477   0.555  1.00  0.00    -0.166 F 
HETATM   32  F   UNL     1      11.238 -32.539   0.808  1.00  0.00    -0.166 F 
HETATM   33  F   UNL     1      12.300 -31.250  -0.586  1.00  0.00    -0.166 F 
ENDBRANCH  26  30
ENDBRANCH  22  24
ENDBRANCH   5  22
TORSDOF 7
ENDMDL
MODEL 6
REMARK VINA RESULT:      -7.8     11.189     14.367
REMARK  7 active torsions:
REMARK  status: ('A' for Active; 'I' for Inactive)
REMARK       I    between atoms: N_5  and  C_13 
REMARK    1  A    between atoms: N_5  and  C_14 
REMARK    2  A    between atoms: N_6  and  C_17 
REMARK    3  A    between atoms: N_6  and  C_20 
REMARK    4  A    between atoms: N_7  and  C_21 
REMARK    5  A    between atoms: N_7  and  C_23 
REMARK    6  A    between atoms: C_10  and  C_13 
REMARK    7  A    between atoms: C_24  and  C_29 
ROOT
HETATM    1  N   UNL     1      12.317 -25.545  -4.229  1.00  0.00    -0.224 NA
HETATM    2  N   UNL     1      13.128 -25.979  -6.456  1.00  0.00    -0.224 NA
HETATM    3  C   UNL     1      11.267 -26.350  -4.495  1.00  0.00     0.133 A 
HETATM    4  C   UNL     1      11.082 -26.996  -5.700  1.00  0.00     0.100 A 
HETATM    5  C   UNL     1      12.053 -26.775  -6.660  1.00  0.00     0.133 A 
HETATM    6  C   UNL     1      13.196 -25.405  -5.240  1.00  0.00     0.237 A 
ENDROOT
BRANCH   3   7
HETATM    7  N   UNL     1      10.292 -26.553  -3.488  1.00  0.00    -0.341 N 
HETATM    8  H   UNL     1       9.447 -26.005  -3.626  1.00  0.00     0.167 HD
BRANCH   7   9
HETATM    9  C   UNL     1      10.265 -27.369  -2.345  1.00  0.00     0.035 A 
HETATM   10  C   UNL     1      10.014 -28.738  -2.462  1.00  0.00     0.059 A 
HETATM   11  C   UNL     1       9.989 -29.547  -1.327  1.00  0.00     0.036 A 
HETATM   12  C   UNL     1      10.216 -28.990  -0.068  1.00  0.00     0.029 A 
HETATM   13  C   UNL     1      10.468 -27.624   0.055  1.00  0.00     0.004 A 
HETATM   14  C   UNL     1      10.492 -26.814  -1.082  1.00  0.00     0.029 A 
BRANCH  11  15
HETATM   15  N   UNL     1       9.738 -30.914  -1.449  1.00  0.00    -0.327 N 
HETATM   16  C   UNL     1       8.518 -31.547  -1.699  1.00  0.00     0.226 C 
HETATM   17  O   UNL     1       7.423 -31.027  -1.862  1.00  0.00    -0.273 OA
HETATM   18  H   UNL     1      10.551 -31.516  -1.334  1.00  0.00     0.169 HD
BRANCH  16  19
HETATM   19  C   UNL     1       8.614 -33.040  -1.768  1.00  0.00     0.078 A 
HETATM   20  C   UNL     1       9.953 -33.669  -1.616  1.00  0.00     0.015 A 
HETATM   21  C   UNL     1       9.275 -33.649  -2.954  1.00  0.00     0.015 A 
ENDBRANCH  16  19
ENDBRANCH  11  15
ENDBRANCH   7   9
ENDBRANCH   3   7
BRANCH   5  22
HETATM   22  N   UNL     1      11.901 -27.417  -7.905  1.00  0.00    -0.341 N 
HETATM   23  H   UNL     1      12.640 -28.090  -8.095  1.00  0.00     0.167 HD
BRANCH  22  24
HETATM   24  C   UNL     1      11.147 -27.104  -9.055  1.00  0.00     0.034 A 
HETATM   25  C   UNL     1      11.548 -27.580 -10.303  1.00  0.00     0.045 A 
HETATM   26  C   UNL     1      10.801 -27.271 -11.440  1.00  0.00     0.050 A 
HETATM   27  C   UNL     1       9.653 -26.487 -11.328  1.00  0.00     0.016 A 
HETATM   28  C   UNL     1       9.252 -26.011 -10.080  1.00  0.00     0.003 A 
HETATM   29  C   UNL     1       9.999 -26.320  -8.943  1.00  0.00     0.029 A 
BRANCH  26  30
HETATM   30  C   UNL     1      11.229 -27.779 -12.775  1.00  0.00     0.417 C 
HETATM   31  F   UNL     1      12.573 -27.999 -12.872  1.00  0.00    -0.166 F 
HETATM   32  F   UNL     1      10.648 -28.966 -13.120  1.00  0.00    -0.166 F 
HETATM   33  F   UNL     1      10.926 -26.915 -13.788  1.00  0.00    -0.166 F 
ENDBRANCH  26  30
ENDBRANCH  22  24
ENDBRANCH   5  22
TORSDOF 7
ENDMDL
MODEL 7
REMARK VINA RESULT:      -7.7      9.193     11.025
REMARK  7 active torsions:
REMARK  status: ('A' for Active; 'I' for Inactive)
REMARK       I    between atoms: N_5  and  C_13 
REMARK    1  A    between atoms: N_5  and  C_14 
REMARK    2  A    between atoms: N_6  and  C_17 
REMARK    3  A    between atoms: N_6  and  C_20 
REMARK    4  A    between atoms: N_7  and  C_21 
REMARK    5  A    between atoms: N_7  and  C_23 
REMARK    6  A    between atoms: C_10  and  C_13 
REMARK    7  A    between atoms: C_24  and  C_29 
ROOT
HETATM    1  N   UNL     1      11.677 -26.304  -2.941  1.00  0.00    -0.224 NA
HETATM    2  N   UNL     1       9.910 -26.943  -1.432  1.00  0.00    -0.224 NA
HETATM    3  C   UNL     1      11.154 -27.150  -3.852  1.00  0.00     0.133 A 
HETATM    4  C   UNL     1      10.027 -27.915  -3.631  1.00  0.00     0.100 A 
HETATM    5  C   UNL     1       9.434 -27.774  -2.389  1.00  0.00     0.133 A 
HETATM    6  C   UNL     1      11.015 -26.252  -1.769  1.00  0.00     0.237 A 
ENDROOT
BRANCH   3   7
HETATM    7  N   UNL     1      11.787 -27.271  -5.114  1.00  0.00    -0.341 N 
HETATM    8  H   UNL     1      12.563 -27.926  -5.116  1.00  0.00     0.167 HD
BRANCH   7   9
HETATM    9  C   UNL     1      11.543 -26.666  -6.358  1.00  0.00     0.035 A 
HETATM   10  C   UNL     1      11.606 -27.421  -7.532  1.00  0.00     0.059 A 
HETATM   11  C   UNL     1      11.363 -26.819  -8.767  1.00  0.00     0.036 A 
HETATM   12  C   UNL     1      11.056 -25.460  -8.832  1.00  0.00     0.029 A 
HETATM   13  C   UNL     1      10.992 -24.702  -7.663  1.00  0.00     0.004 A 
HETATM   14  C   UNL     1      11.236 -25.304  -6.428  1.00  0.00     0.029 A 
BRANCH  11  15
HETATM   15  N   UNL     1      11.426 -27.577  -9.937  1.00  0.00    -0.327 N 
HETATM   16  C   UNL     1      10.402 -27.838 -10.851  1.00  0.00     0.226 C 
HETATM   17  O   UNL     1       9.242 -27.450 -10.807  1.00  0.00    -0.273 OA
HETATM   18  H   UNL     1      12.334 -27.992 -10.137  1.00  0.00     0.169 HD
BRANCH  16  19
HETATM   19  C   UNL     1      10.823 -28.695 -12.003  1.00  0.00     0.078 A 
HETATM   20  C   UNL     1      12.109 -28.381 -12.683  1.00  0.00     0.015 A 
HETATM   21  C   UNL     1      10.804 -28.099 -13.367  1.00  0.00     0.015 A 
ENDBRANCH  16  19
ENDBRANCH  11  15
ENDBRANCH   7   9
ENDBRANCH   3   7
BRANCH   5  22
HETATM   22  N   UNL     1       8.281 -28.537  -2.123  1.00  0.00    -0.341 N 
HETATM   23  H   UNL     1       7.525 -27.984  -1.723  1.00  0.00     0.167 HD
BRANCH  22  24
HETATM   24  C   UNL     1       8.063 -29.924  -1.991  1.00  0.00     0.034 A 
HETATM   25  C   UNL     1       9.148 -30.793  -1.868  1.00  0.00     0.045 A 
HETATM   26  C   UNL     1       8.931 -32.164  -1.737  1.00  0.00     0.050 A 
HETATM   27  C   UNL     1       7.630 -32.667  -1.728  1.00  0.00     0.016 A 
HETATM   28  C   UNL     1       6.546 -31.799  -1.852  1.00  0.00     0.003 A 
HETATM   29  C   UNL     1       6.762 -30.427  -1.983  1.00  0.00     0.029 A 
BRANCH  26  30
HETATM   30  C   UNL     1      10.091 -33.094  -1.605  1.00  0.00     0.417 C 
HETATM   31  F   UNL     1      10.196 -33.666  -0.370  1.00  0.00    -0.166 F 
HETATM   32  F   UNL     1      10.053 -34.140  -2.481  1.00  0.00    -0.166 F 
HETATM   33  F   UNL     1      11.288 -32.474  -1.825  1.00  0.00    -0.166 F 
ENDBRANCH  26  30
ENDBRANCH  22  24
ENDBRANCH   5  22
TORSDOF 7
ENDMDL
MODEL 8
REMARK VINA RESULT:      -7.7      4.441      7.709
REMARK  7 active torsions:
REMARK  status: ('A' for Active; 'I' for Inactive)
REMARK       I    between atoms: N_5  and  C_13 
REMARK    1  A    between atoms: N_5  and  C_14 
REMARK    2  A    between atoms: N_6  and  C_17 
REMARK    3  A    between atoms: N_6  and  C_20 
REMARK    4  A    between atoms: N_7  and  C_21 
REMARK    5  A    between atoms: N_7  and  C_23 
REMARK    6  A    between atoms: C_10  and  C_13 
REMARK    7  A    between atoms: C_24  and  C_29 
ROOT
HETATM    1  N   UNL     1       4.024 -32.036  -2.829  1.00  0.00    -0.224 NA
HETATM    2  N   UNL     1       2.538 -33.664  -1.853  1.00  0.00    -0.224 NA
HETATM    3  C   UNL     1       4.574 -31.862  -1.609  1.00  0.00     0.133 A 
HETATM    4  C   UNL     1       4.166 -32.543  -0.480  1.00  0.00     0.100 A 
HETATM    5  C   UNL     1       3.131 -33.443  -0.657  1.00  0.00     0.133 A 
HETATM    6  C   UNL     1       3.025 -32.938  -2.878  1.00  0.00     0.237 A 
ENDROOT
BRANCH   3   7
HETATM    7  N   UNL     1       5.631 -30.931  -1.464  1.00  0.00    -0.341 N 
HETATM    8  H   UNL     1       5.313 -29.973  -1.344  1.00  0.00     0.167 HD
BRANCH   7   9
HETATM    9  C   UNL     1       7.028 -31.077  -1.448  1.00  0.00     0.035 A 
HETATM   10  C   UNL     1       7.815 -30.236  -0.657  1.00  0.00     0.059 A 
HETATM   11  C   UNL     1       9.201 -30.383  -0.640  1.00  0.00     0.036 A 
HETATM   12  C   UNL     1       9.807 -31.373  -1.414  1.00  0.00     0.029 A 
HETATM   13  C   UNL     1       9.026 -32.216  -2.204  1.00  0.00     0.004 A 
HETATM   14  C   UNL     1       7.639 -32.068  -2.222  1.00  0.00     0.029 A 
BRANCH  11  15
HETATM   15  N   UNL     1       9.983 -29.541   0.151  1.00  0.00    -0.327 N 
HETATM   16  C   UNL     1      10.913 -29.897   1.130  1.00  0.00     0.226 C 
HETATM   17  O   UNL     1      11.230 -31.024   1.490  1.00  0.00    -0.273 OA
HETATM   18  H   UNL     1       9.847 -28.545  -0.009  1.00  0.00     0.169 HD
BRANCH  16  19
HETATM   19  C   UNL     1      11.577 -28.729   1.789  1.00  0.00     0.078 A 
HETATM   20  C   UNL     1      12.407 -28.978   2.999  1.00  0.00     0.015 A 
HETATM   21  C   UNL     1      11.078 -28.294   3.122  1.00  0.00     0.015 A 
ENDBRANCH  16  19
ENDBRANCH  11  15
ENDBRANCH   7   9
ENDBRANCH   3   7
BRANCH   5  22
HETATM   22  N   UNL     1       2.686 -34.159   0.471  1.00  0.00    -0.341 N 
HETATM   23  H   UNL     1       2.244 -33.563   1.167  1.00  0.00     0.167 HD
BRANCH  22  24
HETATM   24  C   UNL     1       3.000 -35.438   0.975  1.00  0.00     0.034 A 
HETATM   25  C   UNL     1       2.151 -36.055   1.894  1.00  0.00     0.045 A 
HETATM   26  C   UNL     1       2.462 -37.320   2.391  1.00  0.00     0.050 A 
HETATM   27  C   UNL     1       3.622 -37.969   1.970  1.00  0.00     0.016 A 
HETATM   28  C   UNL     1       4.472 -37.353   1.052  1.00  0.00     0.003 A 
HETATM   29  C   UNL     1       4.161 -36.087   0.554  1.00  0.00     0.029 A 
BRANCH  26  30
HETATM   30  C   UNL     1       1.554 -37.980   3.374  1.00  0.00     0.417 C 
HETATM   31  F   UNL     1       0.284 -37.478   3.369  1.00  0.00    -0.166 F 
HETATM   32  F   UNL     1       1.408 -39.321   3.167  1.00  0.00    -0.166 F 
HETATM   33  F   UNL     1       1.992 -37.853   4.661  1.00  0.00    -0.166 F 
ENDBRANCH  26  30
ENDBRANCH  22  24
ENDBRANCH   5  22
TORSDOF 7
ENDMDL
MODEL 9
REMARK VINA RESULT:      -7.6      5.766      8.492
REMARK  7 active torsions:
REMARK  status: ('A' for Active; 'I' for Inactive)
REMARK       I    between atoms: N_5  and  C_13 
REMARK    1  A    between atoms: N_5  and  C_14 
REMARK    2  A    between atoms: N_6  and  C_17 
REMARK    3  A    between atoms: N_6  and  C_20 
REMARK    4  A    between atoms: N_7  and  C_21 
REMARK    5  A    between atoms: N_7  and  C_23 
REMARK    6  A    between atoms: C_10  and  C_13 
REMARK    7  A    between atoms: C_24  and  C_29 
ROOT
HETATM    1  N   UNL     1       5.576 -28.749  -2.323  1.00  0.00    -0.224 NA
HETATM    2  N   UNL     1       3.942 -26.978  -2.301  1.00  0.00    -0.224 NA
HETATM    3  C   UNL     1       4.619 -29.587  -1.874  1.00  0.00     0.133 A 
HETATM    4  C   UNL     1       3.319 -29.201  -1.620  1.00  0.00     0.100 A 
HETATM    5  C   UNL     1       3.027 -27.869  -1.852  1.00  0.00     0.133 A 
HETATM    6  C   UNL     1       5.175 -27.477  -2.511  1.00  0.00     0.237 A 
ENDROOT
BRANCH   3   7
HETATM    7  N   UNL     1       4.953 -30.945  -1.646  1.00  0.00    -0.341 N 
HETATM    8  H   UNL     1       5.946 -31.097  -1.492  1.00  0.00     0.167 HD
BRANCH   7   9
HETATM    9  C   UNL     1       4.178 -32.114  -1.586  1.00  0.00     0.035 A 
HETATM   10  C   UNL     1       4.079 -32.833  -0.391  1.00  0.00     0.059 A 
HETATM   11  C   UNL     1       3.308 -33.993  -0.332  1.00  0.00     0.036 A 
HETATM   12  C   UNL     1       2.631 -34.440  -1.468  1.00  0.00     0.029 A 
HETATM   13  C   UNL     1       2.726 -33.726  -2.662  1.00  0.00     0.004 A 
HETATM   14  C   UNL     1       3.498 -32.566  -2.721  1.00  0.00     0.029 A 
BRANCH  11  15
HETATM   15  N   UNL     1       3.212 -34.708   0.863  1.00  0.00    -0.327 N 
HETATM   16  C   UNL     1       3.782 -35.944   1.176  1.00  0.00     0.226 C 
HETATM   17  O   UNL     1       4.483 -36.649   0.462  1.00  0.00    -0.273 OA
HETATM   18  H   UNL     1       2.649 -34.267   1.588  1.00  0.00     0.169 HD
BRANCH  16  19
HETATM   19  C   UNL     1       3.472 -36.420   2.561  1.00  0.00     0.078 A 
HETATM   20  C   UNL     1       2.288 -37.300   2.755  1.00  0.00     0.015 A 
HETATM   21  C   UNL     1       2.262 -35.879   3.237  1.00  0.00     0.015 A 
ENDBRANCH  16  19
ENDBRANCH  11  15
ENDBRANCH   7   9
ENDBRANCH   3   7
BRANCH   5  22
HETATM   22  N   UNL     1       1.711 -27.434  -1.605  1.00  0.00    -0.341 N 
HETATM   23  H   UNL     1       1.369 -26.789  -2.313  1.00  0.00     0.167 HD
BRANCH  22  24
HETATM   24  C   UNL     1       0.903 -27.444  -0.449  1.00  0.00     0.034 A 
HETATM   25  C   UNL     1       1.252 -26.666   0.655  1.00  0.00     0.045 A 
HETATM   26  C   UNL     1       0.452 -26.676   1.797  1.00  0.00     0.050 A 
HETATM   27  C   UNL     1      -0.698 -27.464   1.835  1.00  0.00     0.016 A 
HETATM   28  C   UNL     1      -1.048 -28.243   0.732  1.00  0.00     0.003 A 
HETATM   29  C   UNL     1      -0.247 -28.233  -0.410  1.00  0.00     0.029 A 
BRANCH  26  30
HETATM   30  C   UNL     1       0.825 -25.844   2.977  1.00  0.00     0.417 C 
HETATM   31  F   UNL     1      -0.155 -24.978   3.369  1.00  0.00    -0.166 F 
HETATM   32  F   UNL     1       1.119 -26.577   4.091  1.00  0.00    -0.166 F 
HETATM   33  F   UNL     1       1.927 -25.070   2.747  1.00  0.00    -0.166 F 
ENDBRANCH  26  30
ENDBRANCH  22  24
ENDBRANCH   5  22
TORSDOF 7
ENDMDL
