MODEL 1
REMARK VINA RESULT:      -8.2      0.000      0.000
REMARK  7 active torsions:
REMARK  status: ('A' for Active; 'I' for Inactive)
REMARK       I    between atoms: N_5  and  C_13 
REMARK    1  A    between atoms: N_5  and  C_14 
REMARK    2  A    between atoms: N_6  and  C_17 
REMARK    3  A    between atoms: N_6  and  C_20 
REMARK    4  A    between atoms: N_7  and  C_21 
REMARK    5  A    between atoms: N_7  and  C_23 
REMARK    6  A    between atoms: C_10  and  C_13 
REMARK    7  A    between atoms: C_24  and  C_29 
ROOT
HETATM    1  N   UNL     1       3.843 -30.720  -1.092  1.00  0.00    -0.224 NA
HETATM    2  N   UNL     1       4.518 -32.983  -0.613  1.00  0.00    -0.224 NA
HETATM    3  C   UNL     1       2.588 -31.175  -1.287  1.00  0.00     0.133 A 
HETATM    4  C   UNL     1       2.226 -32.501  -1.165  1.00  0.00     0.100 A 
HETATM    5  C   UNL     1       3.241 -33.377  -0.823  1.00  0.00     0.133 A 
HETATM    6  C   UNL     1       4.745 -31.665  -0.763  1.00  0.00     0.237 A 
ENDROOT
BRANCH   3   7
HETATM    7  N   UNL     1       1.574 -30.251  -1.638  1.00  0.00    -0.341 N 
HETATM    8  H   UNL     1       1.480 -30.114  -2.640  1.00  0.00     0.167 HD
BRANCH   7   9
HETATM    9  C   UNL     1       0.673 -29.496  -0.869  1.00  0.00     0.035 A 
HETATM   10  C   UNL     1       1.002 -28.198  -0.470  1.00  0.00     0.059 A 
HETATM   11  C   UNL     1       0.106 -27.449   0.291  1.00  0.00     0.036 A 
HETATM   12  C   UNL     1      -1.125 -27.995   0.658  1.00  0.00     0.029 A 
HETATM   13  C   UNL     1      -1.458 -29.290   0.263  1.00  0.00     0.004 A 
HETATM   14  C   UNL     1      -0.561 -30.040  -0.499  1.00  0.00     0.029 A 
BRANCH  11  15
HETATM   15  N   UNL     1       0.439 -26.153   0.687  1.00  0.00    -0.327 N 
HETATM   16  C   UNL     1       0.190 -24.956   0.011  1.00  0.00     0.226 C 
HETATM   17  O   UNL     1      -0.372 -24.805  -1.066  1.00  0.00    -0.273 OA
HETATM   18  H   UNL     1       0.928 -26.083   1.576  1.00  0.00     0.169 HD
BRANCH  16  19
HETATM   19  C   UNL     1       0.687 -23.740   0.730  1.00  0.00     0.078 A 
HETATM   20  C   UNL     1       2.006 -23.816   1.414  1.00  0.00     0.015 A 
HETATM   21  C   UNL     1       0.740 -23.773   2.217  1.00  0.00     0.015 A 
ENDBRANCH  16  19
ENDBRANCH  11  15
ENDBRANCH   7   9
ENDBRANCH   3   7
BRANCH   5  22
HETATM   22  N   UNL     1       2.912 -34.739  -0.688  1.00  0.00    -0.341 N 
HETATM   23  H   UNL     1       2.144 -35.022  -1.292  1.00  0.00     0.167 HD
BRANCH  22  24
HETATM   24  C   UNL     1       3.194 -35.695   0.310  1.00  0.00     0.034 A 
HETATM   25  C   UNL     1       2.390 -35.776   1.447  1.00  0.00     0.045 A 
HETATM   26  C   UNL     1       2.668 -36.722   2.432  1.00  0.00     0.050 A 
HETATM   27  C   UNL     1       3.751 -37.589   2.281  1.00  0.00     0.016 A 
HETATM   28  C   UNL     1       4.556 -37.509   1.145  1.00  0.00     0.003 A 
HETATM   29  C   UNL     1       4.277 -36.562   0.159  1.00  0.00     0.029 A 
BRANCH  26  30
HETATM   30  C   UNL     1       1.809 -36.809   3.649  1.00  0.00     0.417 C 
HETATM   31  F   UNL     1       1.853 -35.690   4.431  1.00  0.00    -0.166 F 
HETATM   32  F   UNL     1       0.485 -36.997   3.370  1.00  0.00    -0.166 F 
HETATM   33  F   UNL     1       2.161 -37.843   4.468  1.00  0.00    -0.166 F 
ENDBRANCH  26  30
ENDBRANCH  22  24
ENDBRANCH   5  22
TORSDOF 7
ENDMDL
MODEL 2
REMARK VINA RESULT:      -8.1      2.103      3.315
REMARK  7 active torsions:
REMARK  status: ('A' for Active; 'I' for Inactive)
REMARK       I    between atoms: N_5  and  C_13 
REMARK    1  A    between atoms: N_5  and  C_14 
REMARK    2  A    between atoms: N_6  and  C_17 
REMARK    3  A    between atoms: N_6  and  C_20 
REMARK    4  A    between atoms: N_7  and  C_21 
REMARK    5  A    between atoms: N_7  and  C_23 
REMARK    6  A    between atoms: C_10  and  C_13 
REMARK    7  A    between atoms: C_24  and  C_29 
ROOT
HETATM    1  N   UNL     1       3.573 -32.530  -3.050  1.00  0.00    -0.224 NA
HETATM    2  N   UNL     1       2.386 -34.223  -1.812  1.00  0.00    -0.224 NA
HETATM    3  C   UNL     1       4.078 -32.082  -1.882  1.00  0.00     0.133 A 
HETATM    4  C   UNL     1       3.788 -32.645  -0.655  1.00  0.00     0.100 A 
HETATM    5  C   UNL     1       2.926 -33.727  -0.675  1.00  0.00     0.133 A 
HETATM    6  C   UNL     1       2.746 -33.587  -2.944  1.00  0.00     0.237 A 
ENDROOT
BRANCH   3   7
HETATM    7  N   UNL     1       4.957 -30.972  -1.899  1.00  0.00    -0.341 N 
HETATM    8  H   UNL     1       5.931 -31.225  -1.760  1.00  0.00     0.167 HD
BRANCH   7   9
HETATM    9  C   UNL     1       4.742 -29.595  -2.076  1.00  0.00     0.035 A 
HETATM   10  C   UNL     1       3.492 -29.036  -1.799  1.00  0.00     0.059 A 
HETATM   11  C   UNL     1       3.280 -27.669  -1.974  1.00  0.00     0.036 A 
HETATM   12  C   UNL     1       4.318 -26.854  -2.428  1.00  0.00     0.029 A 
HETATM   13  C   UNL     1       5.568 -27.407  -2.706  1.00  0.00     0.004 A 
HETATM   14  C   UNL     1       5.779 -28.775  -2.532  1.00  0.00     0.029 A 
BRANCH  11  15
HETATM   15  N   UNL     1       2.030 -27.115  -1.694  1.00  0.00    -0.327 N 
HETATM   16  C   UNL     1       1.459 -26.864  -0.445  1.00  0.00     0.226 C 
HETATM   17  O   UNL     1       1.943 -27.080   0.658  1.00  0.00    -0.273 OA
HETATM   18  H   UNL     1       1.471 -26.872  -2.510  1.00  0.00     0.169 HD
BRANCH  16  19
HETATM   19  C   UNL     1       0.093 -26.257  -0.514  1.00  0.00     0.078 A 
HETATM   20  C   UNL     1      -0.193 -25.284  -1.604  1.00  0.00     0.015 A 
HETATM   21  C   UNL     1      -0.054 -24.812  -0.187  1.00  0.00     0.015 A 
ENDBRANCH  16  19
ENDBRANCH  11  15
ENDBRANCH   7   9
ENDBRANCH   3   7
BRANCH   5  22
HETATM   22  N   UNL     1       2.605 -34.330   0.556  1.00  0.00    -0.341 N 
HETATM   23  H   UNL     1       2.231 -33.670   1.234  1.00  0.00     0.167 HD
BRANCH  22  24
HETATM   24  C   UNL     1       2.981 -35.555   1.146  1.00  0.00     0.034 A 
HETATM   25  C   UNL     1       2.076 -36.253   1.946  1.00  0.00     0.045 A 
HETATM   26  C   UNL     1       2.449 -37.464   2.527  1.00  0.00     0.050 A 
HETATM   27  C   UNL     1       3.727 -37.978   2.309  1.00  0.00     0.016 A 
HETATM   28  C   UNL     1       4.633 -37.281   1.510  1.00  0.00     0.003 A 
HETATM   29  C   UNL     1       4.260 -36.069   0.929  1.00  0.00     0.029 A 
BRANCH  26  30
HETATM   30  C   UNL     1       1.481 -38.210   3.383  1.00  0.00     0.417 C 
HETATM   31  F   UNL     1       1.217 -39.474   2.937  1.00  0.00    -0.166 F 
HETATM   32  F   UNL     1       1.901 -38.368   4.672  1.00  0.00    -0.166 F 
HETATM   33  F   UNL     1       0.267 -37.590   3.466  1.00  0.00    -0.166 F 
ENDBRANCH  26  30
ENDBRANCH  22  24
ENDBRANCH   5  22
TORSDOF 7
ENDMDL
MODEL 3
REMARK VINA RESULT:      -8.0      5.279      8.054
REMARK  7 active torsions:
REMARK  status: ('A' for Active; 'I' for Inactive)
REMARK       I    between atoms: N_5  and  C_13 
REMARK    1  A    between atoms: N_5  and  C_14 
REMARK    2  A    between atoms: N_6  and  C_17 
REMARK    3  A    between atoms: N_6  and  C_20 
REMARK    4  A    between atoms: N_7  and  C_21 
REMARK    5  A    between atoms: N_7  and  C_23 
REMARK    6  A    between atoms: C_10  and  C_13 
REMARK    7  A    between atoms: C_24  and  C_29 
ROOT
HETATM    1  N   UNL     1       3.856 -31.987  -2.653  1.00  0.00    -0.224 NA
HETATM    2  N   UNL     1       4.726 -32.749  -0.539  1.00  0.00    -0.224 NA
HETATM    3  C   UNL     1       2.774 -32.767  -2.447  1.00  0.00     0.133 A 
HETATM    4  C   UNL     1       2.599 -33.554  -1.326  1.00  0.00     0.100 A 
HETATM    5  C   UNL     1       3.616 -33.510  -0.391  1.00  0.00     0.133 A 
HETATM    6  C   UNL     1       4.780 -32.027  -1.674  1.00  0.00     0.237 A 
ENDROOT
BRANCH   3   7
HETATM    7  N   UNL     1       1.751 -32.788  -3.426  1.00  0.00    -0.341 N 
HETATM    8  H   UNL     1       1.046 -32.070  -3.291  1.00  0.00     0.167 HD
BRANCH   7   9
HETATM    9  C   UNL     1       1.530 -33.605  -4.548  1.00  0.00     0.035 A 
HETATM   10  C   UNL     1       2.420 -34.639  -4.853  1.00  0.00     0.059 A 
HETATM   11  C   UNL     1       2.198 -35.449  -5.965  1.00  0.00     0.036 A 
HETATM   12  C   UNL     1       1.086 -35.230  -6.778  1.00  0.00     0.029 A 
HETATM   13  C   UNL     1       0.195 -34.200  -6.478  1.00  0.00     0.004 A 
HETATM   14  C   UNL     1       0.417 -33.388  -5.365  1.00  0.00     0.029 A 
BRANCH  11  15
HETATM   15  N   UNL     1       3.089 -36.481  -6.266  1.00  0.00    -0.327 N 
HETATM   16  C   UNL     1       3.912 -36.610  -7.387  1.00  0.00     0.226 C 
HETATM   17  O   UNL     1       4.017 -35.839  -8.332  1.00  0.00    -0.273 OA
HETATM   18  H   UNL     1       3.132 -37.231  -5.578  1.00  0.00     0.169 HD
BRANCH  16  19
HETATM   19  C   UNL     1       4.747 -37.852  -7.386  1.00  0.00     0.078 A 
HETATM   20  C   UNL     1       4.076 -39.153  -7.656  1.00  0.00     0.015 A 
HETATM   21  C   UNL     1       4.561 -38.825  -6.274  1.00  0.00     0.015 A 
ENDBRANCH  16  19
ENDBRANCH  11  15
ENDBRANCH   7   9
ENDBRANCH   3   7
BRANCH   5  22
HETATM   22  N   UNL     1       3.476 -34.298   0.767  1.00  0.00    -0.341 N 
HETATM   23  H   UNL     1       3.758 -33.810   1.614  1.00  0.00     0.167 HD
BRANCH  22  24
HETATM   24  C   UNL     1       3.339 -35.688   0.965  1.00  0.00     0.034 A 
HETATM   25  C   UNL     1       2.224 -36.192   1.635  1.00  0.00     0.045 A 
HETATM   26  C   UNL     1       2.089 -37.566   1.829  1.00  0.00     0.050 A 
HETATM   27  C   UNL     1       3.069 -38.437   1.353  1.00  0.00     0.016 A 
HETATM   28  C   UNL     1       4.184 -37.934   0.683  1.00  0.00     0.003 A 
HETATM   29  C   UNL     1       4.319 -36.559   0.489  1.00  0.00     0.029 A 
BRANCH  26  30
HETATM   30  C   UNL     1       0.897 -38.106   2.545  1.00  0.00     0.417 C 
HETATM   31  F   UNL     1       0.194 -37.157   3.231  1.00  0.00    -0.166 F 
HETATM   32  F   UNL     1      -0.016 -38.697   1.719  1.00  0.00    -0.166 F 
HETATM   33  F   UNL     1       1.225 -39.057   3.469  1.00  0.00    -0.166 F 
ENDBRANCH  26  30
ENDBRANCH  22  24
ENDBRANCH   5  22
TORSDOF 7
ENDMDL
MODEL 4
REMARK VINA RESULT:      -7.8      4.987      6.670
REMARK  7 active torsions:
REMARK  status: ('A' for Active; 'I' for Inactive)
REMARK       I    between atoms: N_5  and  C_13 
REMARK    1  A    between atoms: N_5  and  C_14 
REMARK    2  A    between atoms: N_6  and  C_17 
REMARK    3  A    between atoms: N_6  and  C_20 
REMARK    4  A    between atoms: N_7  and  C_21 
REMARK    5  A    between atoms: N_7  and  C_23 
REMARK    6  A    between atoms: C_10  and  C_13 
REMARK    7  A    between atoms: C_24  and  C_29 
ROOT
HETATM    1  N   UNL     1       3.873 -32.178  -2.724  1.00  0.00    -0.224 NA
HETATM    2  N   UNL     1       2.340 -33.757  -1.743  1.00  0.00    -0.224 NA
HETATM    3  C   UNL     1       4.456 -32.049  -1.514  1.00  0.00     0.133 A 
HETATM    4  C   UNL     1       4.043 -32.731  -0.387  1.00  0.00     0.100 A 
HETATM    5  C   UNL     1       2.967 -33.584  -0.557  1.00  0.00     0.133 A 
HETATM    6  C   UNL     1       2.835 -33.035  -2.766  1.00  0.00     0.237 A 
ENDROOT
BRANCH   3   7
HETATM    7  N   UNL     1       5.555 -31.167  -1.376  1.00  0.00    -0.341 N 
HETATM    8  H   UNL     1       5.301 -30.260  -0.995  1.00  0.00     0.167 HD
BRANCH   7   9
HETATM    9  C   UNL     1       6.924 -31.307  -1.658  1.00  0.00     0.035 A 
HETATM   10  C   UNL     1       7.691 -30.189  -1.998  1.00  0.00     0.059 A 
HETATM   11  C   UNL     1       9.050 -30.329  -2.276  1.00  0.00     0.036 A 
HETATM   12  C   UNL     1       9.649 -31.588  -2.216  1.00  0.00     0.029 A 
HETATM   13  C   UNL     1       8.888 -32.707  -1.877  1.00  0.00     0.004 A 
HETATM   14  C   UNL     1       7.528 -32.566  -1.600  1.00  0.00     0.029 A 
BRANCH  11  15
HETATM   15  N   UNL     1       9.813 -29.210  -2.614  1.00  0.00    -0.327 N 
HETATM   16  C   UNL     1       9.607 -28.313  -3.664  1.00  0.00     0.226 C 
HETATM   17  O   UNL     1       8.713 -28.328  -4.500  1.00  0.00    -0.273 OA
HETATM   18  H   UNL     1      10.620 -29.040  -2.018  1.00  0.00     0.169 HD
BRANCH  16  19
HETATM   19  C   UNL     1      10.626 -27.218  -3.733  1.00  0.00     0.078 A 
HETATM   20  C   UNL     1      11.995 -27.495  -3.222  1.00  0.00     0.015 A 
HETATM   21  C   UNL     1      11.073 -26.590  -2.460  1.00  0.00     0.015 A 
ENDBRANCH  16  19
ENDBRANCH  11  15
ENDBRANCH   7   9
ENDBRANCH   3   7
BRANCH   5  22
HETATM   22  N   UNL     1       2.515 -34.299   0.569  1.00  0.00    -0.341 N 
HETATM   23  H   UNL     1       1.983 -33.722   1.216  1.00  0.00     0.167 HD
BRANCH  22  24
HETATM   24  C   UNL     1       2.903 -35.530   1.136  1.00  0.00     0.034 A 
HETATM   25  C   UNL     1       2.004 -36.252   1.921  1.00  0.00     0.045 A 
HETATM   26  C   UNL     1       2.388 -37.470   2.480  1.00  0.00     0.050 A 
HETATM   27  C   UNL     1       3.672 -37.967   2.256  1.00  0.00     0.016 A 
HETATM   28  C   UNL     1       4.572 -37.246   1.472  1.00  0.00     0.003 A 
HETATM   29  C   UNL     1       4.187 -36.027   0.912  1.00  0.00     0.029 A 
BRANCH  26  30
HETATM   30  C   UNL     1       1.427 -38.243   3.320  1.00  0.00     0.417 C 
HETATM   31  F   UNL     1       1.114 -39.469   2.807  1.00  0.00    -0.166 F 
HETATM   32  F   UNL     1       1.882 -38.490   4.583  1.00  0.00    -0.166 F 
HETATM   33  F   UNL     1       0.234 -37.598   3.480  1.00  0.00    -0.166 F 
ENDBRANCH  26  30
ENDBRANCH  22  24
ENDBRANCH   5  22
TORSDOF 7
ENDMDL
MODEL 5
REMARK VINA RESULT:      -7.7      9.560     11.678
REMARK  7 active torsions:
REMARK  status: ('A' for Active; 'I' for Inactive)
REMARK       I    between atoms: N_5  and  C_13 
REMARK    1  A    between atoms: N_5  and  C_14 
REMARK    2  A    between atoms: N_6  and  C_17 
REMARK    3  A    between atoms: N_6  and  C_20 
REMARK    4  A    between atoms: N_7  and  C_21 
REMARK    5  A    between atoms: N_7  and  C_23 
REMARK    6  A    between atoms: C_10  and  C_13 
REMARK    7  A    between atoms: C_24  and  C_29 
ROOT
HETATM    1  N   UNL     1       6.638 -28.225  -6.417  1.00  0.00    -0.224 NA
HETATM    2  N   UNL     1       5.878 -30.046  -5.034  1.00  0.00    -0.224 NA
HETATM    3  C   UNL     1       7.700 -28.093  -5.595  1.00  0.00     0.133 A 
HETATM    4  C   UNL     1       7.917 -28.890  -4.489  1.00  0.00     0.100 A 
HETATM    5  C   UNL     1       6.965 -29.864  -4.248  1.00  0.00     0.133 A 
HETATM    6  C   UNL     1       5.779 -29.206  -6.082  1.00  0.00     0.237 A 
ENDROOT
BRANCH   3   7
HETATM    7  N   UNL     1       8.656 -27.085  -5.871  1.00  0.00    -0.341 N 
HETATM    8  H   UNL     1       8.609 -26.297  -5.231  1.00  0.00     0.167 HD
BRANCH   7   9
HETATM    9  C   UNL     1       9.655 -26.968  -6.851  1.00  0.00     0.035 A 
HETATM   10  C   UNL     1       9.330 -26.541  -8.141  1.00  0.00     0.059 A 
HETATM   11  C   UNL     1      10.323 -26.425  -9.113  1.00  0.00     0.036 A 
HETATM   12  C   UNL     1      11.647 -26.735  -8.799  1.00  0.00     0.029 A 
HETATM   13  C   UNL     1      11.977 -27.162  -7.513  1.00  0.00     0.004 A 
HETATM   14  C   UNL     1      10.982 -27.279  -6.541  1.00  0.00     0.029 A 
BRANCH  11  15
HETATM   15  N   UNL     1       9.994 -25.997 -10.400  1.00  0.00    -0.327 N 
HETATM   16  C   UNL     1      10.122 -26.699 -11.600  1.00  0.00     0.226 C 
HETATM   17  O   UNL     1      10.549 -27.835 -11.763  1.00  0.00    -0.273 OA
HETATM   18  H   UNL     1       9.621 -25.052 -10.460  1.00  0.00     0.169 HD
BRANCH  16  19
HETATM   19  C   UNL     1       9.669 -25.931 -12.802  1.00  0.00     0.078 A 
HETATM   20  C   UNL     1       9.810 -26.567 -14.140  1.00  0.00     0.015 A 
HETATM   21  C   UNL     1      10.703 -25.427 -13.747  1.00  0.00     0.015 A 
ENDBRANCH  16  19
ENDBRANCH  11  15
ENDBRANCH   7   9
ENDBRANCH   3   7
BRANCH   5  22
HETATM   22  N   UNL     1       7.150 -30.698  -3.129  1.00  0.00    -0.341 N 
HETATM   23  H   UNL     1       6.516 -30.478  -2.364  1.00  0.00     0.167 HD
BRANCH  22  24
HETATM   24  C   UNL     1       8.211 -31.536  -2.728  1.00  0.00     0.034 A 
HETATM   25  C   UNL     1       9.066 -31.137  -1.701  1.00  0.00     0.045 A 
HETATM   26  C   UNL     1      10.114 -31.967  -1.304  1.00  0.00     0.050 A 
HETATM   27  C   UNL     1      10.306 -33.197  -1.933  1.00  0.00     0.016 A 
HETATM   28  C   UNL     1       9.451 -33.597  -2.960  1.00  0.00     0.003 A 
HETATM   29  C   UNL     1       8.403 -32.766  -3.357  1.00  0.00     0.029 A 
BRANCH  26  30
HETATM   30  C   UNL     1      11.030 -31.540  -0.206  1.00  0.00     0.417 C 
HETATM   31  F   UNL     1      10.565 -30.476   0.512  1.00  0.00    -0.166 F 
HETATM   32  F   UNL     1      11.267 -32.517   0.718  1.00  0.00    -0.166 F 
HETATM   33  F   UNL     1      12.259 -31.163  -0.665  1.00  0.00    -0.166 F 
ENDBRANCH  26  30
ENDBRANCH  22  24
ENDBRANCH   5  22
TORSDOF 7
ENDMDL
MODEL 6
REMARK VINA RESULT:      -7.7      4.641      6.657
REMARK  7 active torsions:
REMARK  status: ('A' for Active; 'I' for Inactive)
REMARK       I    between atoms: N_5  and  C_13 
REMARK    1  A    between atoms: N_5  and  C_14 
REMARK    2  A    between atoms: N_6  and  C_17 
REMARK    3  A    between atoms: N_6  and  C_20 
REMARK    4  A    between atoms: N_7  and  C_21 
REMARK    5  A    between atoms: N_7  and  C_23 
REMARK    6  A    between atoms: C_10  and  C_13 
REMARK    7  A    between atoms: C_24  and  C_29 
ROOT
HETATM    1  N   UNL     1       2.494 -32.620  -4.625  1.00  0.00    -0.224 NA
HETATM    2  N   UNL     1       1.926 -34.940  -4.312  1.00  0.00    -0.224 NA
HETATM    3  C   UNL     1       2.711 -32.532  -3.296  1.00  0.00     0.133 A 
HETATM    4  C   UNL     1       2.560 -33.591  -2.423  1.00  0.00     0.100 A 
HETATM    5  C   UNL     1       2.160 -34.788  -2.988  1.00  0.00     0.133 A 
HETATM    6  C   UNL     1       2.108 -33.835  -5.059  1.00  0.00     0.237 A 
ENDROOT
BRANCH   3   7
HETATM    7  N   UNL     1       3.119 -31.290  -2.751  1.00  0.00    -0.341 N 
HETATM    8  H   UNL     1       2.374 -30.795  -2.270  1.00  0.00     0.167 HD
BRANCH   7   9
HETATM    9  C   UNL     1       4.353 -30.618  -2.742  1.00  0.00     0.035 A 
HETATM   10  C   UNL     1       5.546 -31.338  -2.631  1.00  0.00     0.059 A 
HETATM   11  C   UNL     1       6.770 -30.670  -2.624  1.00  0.00     0.036 A 
HETATM   12  C   UNL     1       6.807 -29.279  -2.728  1.00  0.00     0.029 A 
HETATM   13  C   UNL     1       5.619 -28.557  -2.839  1.00  0.00     0.004 A 
HETATM   14  C   UNL     1       4.394 -29.225  -2.845  1.00  0.00     0.029 A 
BRANCH  11  15
HETATM   15  N   UNL     1       7.959 -31.393  -2.514  1.00  0.00    -0.327 N 
HETATM   16  C   UNL     1       9.000 -31.204  -1.603  1.00  0.00     0.226 C 
HETATM   17  O   UNL     1       9.078 -30.364  -0.715  1.00  0.00    -0.273 OA
HETATM   18  H   UNL     1       8.073 -32.145  -3.190  1.00  0.00     0.169 HD
BRANCH  16  19
HETATM   19  C   UNL     1      10.133 -32.167  -1.770  1.00  0.00     0.078 A 
HETATM   20  C   UNL     1       9.873 -33.446  -2.485  1.00  0.00     0.015 A 
HETATM   21  C   UNL     1      10.094 -33.441  -1.002  1.00  0.00     0.015 A 
ENDBRANCH  16  19
ENDBRANCH  11  15
ENDBRANCH   7   9
ENDBRANCH   3   7
BRANCH   5  22
HETATM   22  N   UNL     1       1.994 -35.893  -2.131  1.00  0.00    -0.341 N 
HETATM   23  H   UNL     1       1.054 -35.958  -1.747  1.00  0.00     0.167 HD
BRANCH  22  24
HETATM   24  C   UNL     1       2.912 -36.722  -1.453  1.00  0.00     0.034 A 
HETATM   25  C   UNL     1       3.166 -36.521  -0.097  1.00  0.00     0.045 A 
HETATM   26  C   UNL     1       4.072 -37.342   0.573  1.00  0.00     0.050 A 
HETATM   27  C   UNL     1       4.725 -38.365  -0.114  1.00  0.00     0.016 A 
HETATM   28  C   UNL     1       4.472 -38.568  -1.470  1.00  0.00     0.003 A 
HETATM   29  C   UNL     1       3.565 -37.746  -2.140  1.00  0.00     0.029 A 
BRANCH  26  30
HETATM   30  C   UNL     1       4.344 -37.126   2.024  1.00  0.00     0.417 C 
HETATM   31  F   UNL     1       5.638 -37.376   2.382  1.00  0.00    -0.166 F 
HETATM   32  F   UNL     1       4.099 -35.849   2.441  1.00  0.00    -0.166 F 
HETATM   33  F   UNL     1       3.581 -37.926   2.826  1.00  0.00    -0.166 F 
ENDBRANCH  26  30
ENDBRANCH  22  24
ENDBRANCH   5  22
TORSDOF 7
ENDMDL
MODEL 7
REMARK VINA RESULT:      -7.6     10.116     12.093
REMARK  7 active torsions:
REMARK  status: ('A' for Active; 'I' for Inactive)
REMARK       I    between atoms: N_5  and  C_13 
REMARK    1  A    between atoms: N_5  and  C_14 
REMARK    2  A    between atoms: N_6  and  C_17 
REMARK    3  A    between atoms: N_6  and  C_20 
REMARK    4  A    between atoms: N_7  and  C_21 
REMARK    5  A    between atoms: N_7  and  C_23 
REMARK    6  A    between atoms: C_10  and  C_13 
REMARK    7  A    between atoms: C_24  and  C_29 
ROOT
HETATM    1  N   UNL     1       9.851 -25.004  -5.100  1.00  0.00    -0.224 NA
HETATM    2  N   UNL     1       9.266 -26.089  -3.030  1.00  0.00    -0.224 NA
HETATM    3  C   UNL     1       9.710 -26.193  -5.721  1.00  0.00     0.133 A 
HETATM    4  C   UNL     1       9.353 -27.358  -5.072  1.00  0.00     0.100 A 
HETATM    5  C   UNL     1       9.140 -27.252  -3.710  1.00  0.00     0.133 A 
HETATM    6  C   UNL     1       9.618 -25.023  -3.774  1.00  0.00     0.237 A 
ENDROOT
BRANCH   3   7
HETATM    7  N   UNL     1       9.937 -26.266  -7.117  1.00  0.00    -0.341 N 
HETATM    8  H   UNL     1      10.908 -26.120  -7.377  1.00  0.00     0.167 HD
BRANCH   7   9
HETATM    9  C   UNL     1       9.082 -26.507  -8.205  1.00  0.00     0.035 A 
HETATM   10  C   UNL     1       9.488 -26.190  -9.504  1.00  0.00     0.059 A 
HETATM   11  C   UNL     1       8.639 -26.431 -10.583  1.00  0.00     0.036 A 
HETATM   12  C   UNL     1       7.379 -26.992 -10.369  1.00  0.00     0.029 A 
HETATM   13  C   UNL     1       6.969 -27.310  -9.074  1.00  0.00     0.004 A 
HETATM   14  C   UNL     1       7.819 -27.068  -7.994  1.00  0.00     0.029 A 
BRANCH  11  15
HETATM   15  N   UNL     1       9.050 -26.114 -11.879  1.00  0.00    -0.327 N 
HETATM   16  C   UNL     1       9.494 -26.981 -12.879  1.00  0.00     0.226 C 
HETATM   17  O   UNL     1       9.612 -28.198 -12.818  1.00  0.00    -0.273 OA
HETATM   18  H   UNL     1       9.023 -25.123 -12.111  1.00  0.00     0.169 HD
BRANCH  16  19
HETATM   19  C   UNL     1       9.856 -26.295 -14.159  1.00  0.00     0.078 A 
HETATM   20  C   UNL     1      10.784 -25.134 -14.099  1.00  0.00     0.015 A 
HETATM   21  C   UNL     1       9.329 -24.924 -14.397  1.00  0.00     0.015 A 
ENDBRANCH  16  19
ENDBRANCH  11  15
ENDBRANCH   7   9
ENDBRANCH   3   7
BRANCH   5  22
HETATM   22  N   UNL     1       8.774 -28.418  -3.011  1.00  0.00    -0.341 N 
HETATM   23  H   UNL     1       7.810 -28.397  -2.684  1.00  0.00     0.167 HD
BRANCH  22  24
HETATM   24  C   UNL     1       9.528 -29.443  -2.403  1.00  0.00     0.034 A 
HETATM   25  C   UNL     1       9.058 -30.757  -2.413  1.00  0.00     0.045 A 
HETATM   26  C   UNL     1       9.805 -31.769  -1.813  1.00  0.00     0.050 A 
HETATM   27  C   UNL     1      11.022 -31.469  -1.201  1.00  0.00     0.016 A 
HETATM   28  C   UNL     1      11.492 -30.156  -1.190  1.00  0.00     0.003 A 
HETATM   29  C   UNL     1      10.745 -29.143  -1.791  1.00  0.00     0.029 A 
BRANCH  26  30
HETATM   30  C   UNL     1       9.303 -33.174  -1.824  1.00  0.00     0.417 C 
HETATM   31  F   UNL     1       7.984 -33.287  -1.490  1.00  0.00    -0.166 F 
HETATM   32  F   UNL     1       9.416 -33.785  -3.040  1.00  0.00    -0.166 F 
HETATM   33  F   UNL     1       9.973 -33.978  -0.947  1.00  0.00    -0.166 F 
ENDBRANCH  26  30
ENDBRANCH  22  24
ENDBRANCH   5  22
TORSDOF 7
ENDMDL
MODEL 8
REMARK VINA RESULT:      -7.5      5.120      7.170
REMARK  7 active torsions:
REMARK  status: ('A' for Active; 'I' for Inactive)
REMARK       I    between atoms: N_5  and  C_13 
REMARK    1  A    between atoms: N_5  and  C_14 
REMARK    2  A    between atoms: N_6  and  C_17 
REMARK    3  A    between atoms: N_6  and  C_20 
REMARK    4  A    between atoms: N_7  and  C_21 
REMARK    5  A    between atoms: N_7  and  C_23 
REMARK    6  A    between atoms: C_10  and  C_13 
REMARK    7  A    between atoms: C_24  and  C_29 
ROOT
HETATM    1  N   UNL     1       3.943 -32.167  -2.680  1.00  0.00    -0.224 NA
HETATM    2  N   UNL     1       4.008 -32.563  -0.304  1.00  0.00    -0.224 NA
HETATM    3  C   UNL     1       3.061 -33.182  -2.788  1.00  0.00     0.133 A 
HETATM    4  C   UNL     1       2.610 -33.923  -1.714  1.00  0.00     0.100 A 
HETATM    5  C   UNL     1       3.120 -33.570  -0.478  1.00  0.00     0.133 A 
HETATM    6  C   UNL     1       4.370 -31.916  -1.428  1.00  0.00     0.237 A 
ENDROOT
BRANCH   3   7
HETATM    7  N   UNL     1       2.559 -33.517  -4.069  1.00  0.00    -0.341 N 
HETATM    8  H   UNL     1       3.236 -33.995  -4.657  1.00  0.00     0.167 HD
BRANCH   7   9
HETATM    9  C   UNL     1       1.308 -33.324  -4.678  1.00  0.00     0.035 A 
HETATM   10  C   UNL     1       0.343 -34.334  -4.641  1.00  0.00     0.059 A 
HETATM   11  C   UNL     1      -0.899 -34.139  -5.244  1.00  0.00     0.036 A 
HETATM   12  C   UNL     1      -1.182 -32.934  -5.887  1.00  0.00     0.029 A 
HETATM   13  C   UNL     1      -0.223 -31.923  -5.927  1.00  0.00     0.004 A 
HETATM   14  C   UNL     1       1.021 -32.118  -5.324  1.00  0.00     0.029 A 
BRANCH  11  15
HETATM   15  N   UNL     1      -1.861 -35.151  -5.203  1.00  0.00    -0.327 N 
HETATM   16  C   UNL     1      -2.144 -36.110  -6.179  1.00  0.00     0.226 C 
HETATM   17  O   UNL     1      -1.602 -36.256  -7.266  1.00  0.00    -0.273 OA
HETATM   18  H   UNL     1      -2.424 -35.180  -4.356  1.00  0.00     0.169 HD
BRANCH  16  19
HETATM   19  C   UNL     1      -3.247 -37.049  -5.802  1.00  0.00     0.078 A 
HETATM   20  C   UNL     1      -4.145 -36.668  -4.679  1.00  0.00     0.015 A 
HETATM   21  C   UNL     1      -3.144 -37.772  -4.505  1.00  0.00     0.015 A 
ENDBRANCH  16  19
ENDBRANCH  11  15
ENDBRANCH   7   9
ENDBRANCH   3   7
BRANCH   5  22
HETATM   22  N   UNL     1       2.685 -34.302   0.643  1.00  0.00    -0.341 N 
HETATM   23  H   UNL     1       2.158 -33.735   1.304  1.00  0.00     0.167 HD
BRANCH  22  24
HETATM   24  C   UNL     1       3.087 -35.537   1.192  1.00  0.00     0.034 A 
HETATM   25  C   UNL     1       2.347 -36.119   2.221  1.00  0.00     0.045 A 
HETATM   26  C   UNL     1       2.744 -37.341   2.762  1.00  0.00     0.050 A 
HETATM   27  C   UNL     1       3.882 -37.983   2.273  1.00  0.00     0.016 A 
HETATM   28  C   UNL     1       4.623 -37.402   1.244  1.00  0.00     0.003 A 
HETATM   29  C   UNL     1       4.225 -36.179   0.703  1.00  0.00     0.029 A 
BRANCH  26  30
HETATM   30  C   UNL     1       1.952 -37.963   3.863  1.00  0.00     0.417 C 
HETATM   31  F   UNL     1       2.021 -37.277   5.042  1.00  0.00    -0.166 F 
HETATM   32  F   UNL     1       0.619 -38.065   3.587  1.00  0.00    -0.166 F 
HETATM   33  F   UNL     1       2.364 -39.232   4.153  1.00  0.00    -0.166 F 
ENDBRANCH  26  30
ENDBRANCH  22  24
ENDBRANCH   5  22
TORSDOF 7
ENDMDL
MODEL 9
REMARK VINA RESULT:      -7.5      5.355      7.794
REMARK  7 active torsions:
REMARK  status: ('A' for Active; 'I' for Inactive)
REMARK       I    between atoms: N_5  and  C_13 
REMARK    1  A    between atoms: N_5  and  C_14 
REMARK    2  A    between atoms: N_6  and  C_17 
REMARK    3  A    between atoms: N_6  and  C_20 
REMARK    4  A    between atoms: N_7  and  C_21 
REMARK    5  A    between atoms: N_7  and  C_23 
REMARK    6  A    between atoms: C_10  and  C_13 
REMARK    7  A    between atoms: C_24  and  C_29 
ROOT
HETATM    1  N   UNL     1       3.630 -32.160  -3.212  1.00  0.00    -0.224 NA
HETATM    2  N   UNL     1       3.902 -32.466  -0.838  1.00  0.00    -0.224 NA
HETATM    3  C   UNL     1       2.685 -33.123  -3.190  1.00  0.00     0.133 A 
HETATM    4  C   UNL     1       2.300 -33.793  -2.047  1.00  0.00     0.100 A 
HETATM    5  C   UNL     1       2.947 -33.423  -0.882  1.00  0.00     0.133 A 
HETATM    6  C   UNL     1       4.190 -31.886  -2.019  1.00  0.00     0.237 A 
ENDROOT
BRANCH   3   7
HETATM    7  N   UNL     1       2.043 -33.477  -4.402  1.00  0.00    -0.341 N 
HETATM    8  H   UNL     1       1.073 -33.178  -4.449  1.00  0.00     0.167 HD
BRANCH   7   9
HETATM    9  C   UNL     1       2.490 -34.153  -5.550  1.00  0.00     0.035 A 
HETATM   10  C   UNL     1       2.650 -33.464  -6.755  1.00  0.00     0.059 A 
HETATM   11  C   UNL     1       3.096 -34.136  -7.893  1.00  0.00     0.036 A 
HETATM   12  C   UNL     1       3.384 -35.500  -7.831  1.00  0.00     0.029 A 
HETATM   13  C   UNL     1       3.226 -36.191  -6.630  1.00  0.00     0.004 A 
HETATM   14  C   UNL     1       2.779 -35.519  -5.492  1.00  0.00     0.029 A 
BRANCH  11  15
HETATM   15  N   UNL     1       3.255 -33.444  -9.095  1.00  0.00    -0.327 N 
HETATM   16  C   UNL     1       4.113 -32.376  -9.366  1.00  0.00     0.226 C 
HETATM   17  O   UNL     1       4.900 -31.833  -8.602  1.00  0.00    -0.273 OA
HETATM   18  H   UNL     1       2.663 -33.761  -9.859  1.00  0.00     0.169 HD
BRANCH  16  19
HETATM   19  C   UNL     1       4.025 -31.871 -10.773  1.00  0.00     0.078 A 
HETATM   20  C   UNL     1       4.178 -32.849 -11.884  1.00  0.00     0.015 A 
HETATM   21  C   UNL     1       5.266 -31.856 -11.595  1.00  0.00     0.015 A 
ENDBRANCH  16  19
ENDBRANCH  11  15
ENDBRANCH   7   9
ENDBRANCH   3   7
BRANCH   5  22
HETATM   22  N   UNL     1       2.583 -34.083   0.307  1.00  0.00    -0.341 N 
HETATM   23  H   UNL     1       2.158 -33.461   0.990  1.00  0.00     0.167 HD
BRANCH  22  24
HETATM   24  C   UNL     1       2.964 -35.320   0.868  1.00  0.00     0.034 A 
HETATM   25  C   UNL     1       2.196 -35.894   1.881  1.00  0.00     0.045 A 
HETATM   26  C   UNL     1       2.572 -37.118   2.434  1.00  0.00     0.050 A 
HETATM   27  C   UNL     1       3.717 -37.768   1.974  1.00  0.00     0.016 A 
HETATM   28  C   UNL     1       4.486 -37.195   0.961  1.00  0.00     0.003 A 
HETATM   29  C   UNL     1       4.109 -35.971   0.408  1.00  0.00     0.029 A 
BRANCH  26  30
HETATM   30  C   UNL     1       1.751 -37.732   3.518  1.00  0.00     0.417 C 
HETATM   31  F   UNL     1       0.412 -37.493   3.393  1.00  0.00    -0.166 F 
HETATM   32  F   UNL     1       1.866 -39.090   3.587  1.00  0.00    -0.166 F 
HETATM   33  F   UNL     1       2.090 -37.272   4.758  1.00  0.00    -0.166 F 
ENDBRANCH  26  30
ENDBRANCH  22  24
ENDBRANCH   5  22
TORSDOF 7
ENDMDL
