MODEL 1
REMARK VINA RESULT:      -6.4      0.000      0.000
REMARK  7 active torsions:
REMARK  status: ('A' for Active; 'I' for Inactive)
REMARK       I    between atoms: N_5  and  C_13 
REMARK    1  A    between atoms: N_5  and  C_14 
REMARK    2  A    between atoms: N_6  and  C_17 
REMARK    3  A    between atoms: N_6  and  C_20 
REMARK    4  A    between atoms: N_7  and  C_21 
REMARK    5  A    between atoms: N_7  and  C_23 
REMARK    6  A    between atoms: C_10  and  C_13 
REMARK    7  A    between atoms: C_24  and  C_29 
ROOT
HETATM    1  N   UNL     1     -19.261 -63.919  23.009  1.00  0.00    -0.224 NA
HETATM    2  N   UNL     1     -19.351 -61.530  22.708  1.00  0.00    -0.224 NA
HETATM    3  C   UNL     1     -17.958 -63.877  22.662  1.00  0.00     0.133 A 
HETATM    4  C   UNL     1     -17.290 -62.716  22.330  1.00  0.00     0.100 A 
HETATM    5  C   UNL     1     -18.041 -61.554  22.368  1.00  0.00     0.133 A 
HETATM    6  C   UNL     1     -19.888 -62.727  23.010  1.00  0.00     0.237 A 
ENDROOT
BRANCH   3   7
HETATM    7  N   UNL     1     -17.220 -65.085  22.633  1.00  0.00    -0.341 N 
HETATM    8  H   UNL     1     -16.526 -65.118  21.891  1.00  0.00     0.167 HD
BRANCH   7   9
HETATM    9  C   UNL     1     -17.258 -66.239  23.433  1.00  0.00     0.035 A 
HETATM   10  C   UNL     1     -17.949 -67.374  22.999  1.00  0.00     0.059 A 
HETATM   11  C   UNL     1     -17.985 -68.519  23.794  1.00  0.00     0.036 A 
HETATM   12  C   UNL     1     -17.330 -68.535  25.026  1.00  0.00     0.029 A 
HETATM   13  C   UNL     1     -16.640 -67.405  25.463  1.00  0.00     0.004 A 
HETATM   14  C   UNL     1     -16.604 -66.259  24.668  1.00  0.00     0.029 A 
BRANCH  11  15
HETATM   15  N   UNL     1     -18.675 -69.651  23.357  1.00  0.00    -0.327 N 
HETATM   16  C   UNL     1     -18.231 -70.647  22.484  1.00  0.00     0.226 C 
HETATM   17  O   UNL     1     -17.143 -70.727  21.928  1.00  0.00    -0.273 OA
HETATM   18  H   UNL     1     -19.621 -69.750  23.720  1.00  0.00     0.169 HD
BRANCH  16  19
HETATM   19  C   UNL     1     -19.239 -71.724  22.231  1.00  0.00     0.078 A 
HETATM   20  C   UNL     1     -20.232 -72.026  23.298  1.00  0.00     0.015 A 
HETATM   21  C   UNL     1     -19.123 -72.993  23.002  1.00  0.00     0.015 A 
ENDBRANCH  16  19
ENDBRANCH  11  15
ENDBRANCH   7   9
ENDBRANCH   3   7
BRANCH   5  22
HETATM   22  N   UNL     1     -17.397 -60.347  22.036  1.00  0.00    -0.341 N 
HETATM   23  H   UNL     1     -17.329 -60.199  21.032  1.00  0.00     0.167 HD
BRANCH  22  24
HETATM   24  C   UNL     1     -16.560 -59.478  22.768  1.00  0.00     0.034 A 
HETATM   25  C   UNL     1     -17.115 -58.437  23.513  1.00  0.00     0.045 A 
HETATM   26  C   UNL     1     -16.287 -57.580  24.237  1.00  0.00     0.050 A 
HETATM   27  C   UNL     1     -14.904 -57.764  24.217  1.00  0.00     0.016 A 
HETATM   28  C   UNL     1     -14.349 -58.804  23.472  1.00  0.00     0.003 A 
HETATM   29  C   UNL     1     -15.178 -59.662  22.748  1.00  0.00     0.029 A 
BRANCH  26  30
HETATM   30  C   UNL     1     -16.880 -56.467  25.033  1.00  0.00     0.417 C 
HETATM   31  F   UNL     1     -18.237 -56.373  24.918  1.00  0.00    -0.166 F 
HETATM   32  F   UNL     1     -16.642 -56.567  26.374  1.00  0.00    -0.166 F 
HETATM   33  F   UNL     1     -16.396 -55.243  24.667  1.00  0.00    -0.166 F 
ENDBRANCH  26  30
ENDBRANCH  22  24
ENDBRANCH   5  22
TORSDOF 7
ENDMDL
MODEL 2
REMARK VINA RESULT:      -6.1      6.077     11.326
REMARK  7 active torsions:
REMARK  status: ('A' for Active; 'I' for Inactive)
REMARK       I    between atoms: N_5  and  C_13 
REMARK    1  A    between atoms: N_5  and  C_14 
REMARK    2  A    between atoms: N_6  and  C_17 
REMARK    3  A    between atoms: N_6  and  C_20 
REMARK    4  A    between atoms: N_7  and  C_21 
REMARK    5  A    between atoms: N_7  and  C_23 
REMARK    6  A    between atoms: C_10  and  C_13 
REMARK    7  A    between atoms: C_24  and  C_29 
ROOT
HETATM    1  N   UNL     1     -18.373 -64.952  24.854  1.00  0.00    -0.224 NA
HETATM    2  N   UNL     1     -18.571 -67.274  25.466  1.00  0.00    -0.224 NA
HETATM    3  C   UNL     1     -17.377 -65.297  24.013  1.00  0.00     0.133 A 
HETATM    4  C   UNL     1     -16.928 -66.591  23.845  1.00  0.00     0.100 A 
HETATM    5  C   UNL     1     -17.566 -67.556  24.604  1.00  0.00     0.133 A 
HETATM    6  C   UNL     1     -18.917 -65.975  25.540  1.00  0.00     0.237 A 
ENDROOT
BRANCH   3   7
HETATM    7  N   UNL     1     -16.746 -64.283  23.251  1.00  0.00    -0.341 N 
HETATM    8  H   UNL     1     -15.810 -64.532  22.942  1.00  0.00     0.167 HD
BRANCH   7   9
HETATM    9  C   UNL     1     -17.165 -63.008  22.837  1.00  0.00     0.035 A 
HETATM   10  C   UNL     1     -16.758 -61.870  23.539  1.00  0.00     0.059 A 
HETATM   11  C   UNL     1     -17.175 -60.605  23.126  1.00  0.00     0.036 A 
HETATM   12  C   UNL     1     -18.000 -60.472  22.009  1.00  0.00     0.029 A 
HETATM   13  C   UNL     1     -18.409 -61.604  21.305  1.00  0.00     0.004 A 
HETATM   14  C   UNL     1     -17.993 -62.870  21.719  1.00  0.00     0.029 A 
BRANCH  11  15
HETATM   15  N   UNL     1     -16.765 -59.471  23.830  1.00  0.00    -0.327 N 
HETATM   16  C   UNL     1     -15.551 -58.788  23.730  1.00  0.00     0.226 C 
HETATM   17  O   UNL     1     -14.601 -59.047  23.003  1.00  0.00    -0.273 OA
HETATM   18  H   UNL     1     -17.440 -59.110  24.500  1.00  0.00     0.169 HD
BRANCH  16  19
HETATM   19  C   UNL     1     -15.447 -57.604  24.640  1.00  0.00     0.078 A 
HETATM   20  C   UNL     1     -16.479 -57.434  25.698  1.00  0.00     0.015 A 
HETATM   21  C   UNL     1     -16.460 -56.522  24.506  1.00  0.00     0.015 A 
ENDBRANCH  16  19
ENDBRANCH  11  15
ENDBRANCH   7   9
ENDBRANCH   3   7
BRANCH   5  22
HETATM   22  N   UNL     1     -17.138 -68.889  24.462  1.00  0.00    -0.341 N 
HETATM   23  H   UNL     1     -16.151 -69.013  24.677  1.00  0.00     0.167 HD
BRANCH  22  24
HETATM   24  C   UNL     1     -17.688 -70.002  23.792  1.00  0.00     0.034 A 
HETATM   25  C   UNL     1     -18.269 -71.040  24.521  1.00  0.00     0.045 A 
HETATM   26  C   UNL     1     -18.813 -72.139  23.858  1.00  0.00     0.050 A 
HETATM   27  C   UNL     1     -18.777 -72.201  22.465  1.00  0.00     0.016 A 
HETATM   28  C   UNL     1     -18.196 -71.164  21.735  1.00  0.00     0.003 A 
HETATM   29  C   UNL     1     -17.651 -70.064  22.399  1.00  0.00     0.029 A 
BRANCH  26  30
HETATM   30  C   UNL     1     -19.435 -73.249  24.638  1.00  0.00     0.417 C 
HETATM   31  F   UNL     1     -18.900 -74.475  24.365  1.00  0.00    -0.166 F 
HETATM   32  F   UNL     1     -19.315 -73.100  25.990  1.00  0.00    -0.166 F 
HETATM   33  F   UNL     1     -20.774 -73.372  24.400  1.00  0.00    -0.166 F 
ENDBRANCH  26  30
ENDBRANCH  22  24
ENDBRANCH   5  22
TORSDOF 7
ENDMDL
MODEL 3
REMARK VINA RESULT:      -6.1      5.639     11.023
REMARK  7 active torsions:
REMARK  status: ('A' for Active; 'I' for Inactive)
REMARK       I    between atoms: N_5  and  C_13 
REMARK    1  A    between atoms: N_5  and  C_14 
REMARK    2  A    between atoms: N_6  and  C_17 
REMARK    3  A    between atoms: N_6  and  C_20 
REMARK    4  A    between atoms: N_7  and  C_21 
REMARK    5  A    between atoms: N_7  and  C_23 
REMARK    6  A    between atoms: C_10  and  C_13 
REMARK    7  A    between atoms: C_24  and  C_29 
ROOT
HETATM    1  N   UNL     1     -19.287 -61.685  23.001  1.00  0.00    -0.224 NA
HETATM    2  N   UNL     1     -19.067 -64.071  23.253  1.00  0.00    -0.224 NA
HETATM    3  C   UNL     1     -18.011 -61.651  22.563  1.00  0.00     0.133 A 
HETATM    4  C   UNL     1     -17.211 -62.770  22.444  1.00  0.00     0.100 A 
HETATM    5  C   UNL     1     -17.794 -63.971  22.807  1.00  0.00     0.133 A 
HETATM    6  C   UNL     1     -19.744 -62.909  23.325  1.00  0.00     0.237 A 
ENDROOT
BRANCH   3   7
HETATM    7  N   UNL     1     -17.446 -60.404  22.201  1.00  0.00    -0.341 N 
HETATM    8  H   UNL     1     -17.720 -60.089  21.274  1.00  0.00     0.167 HD
BRANCH   7   9
HETATM    9  C   UNL     1     -16.589 -59.519  22.876  1.00  0.00     0.035 A 
HETATM   10  C   UNL     1     -17.115 -58.510  23.687  1.00  0.00     0.059 A 
HETATM   11  C   UNL     1     -16.263 -57.633  24.358  1.00  0.00     0.036 A 
HETATM   12  C   UNL     1     -14.880 -57.763  24.222  1.00  0.00     0.029 A 
HETATM   13  C   UNL     1     -14.350 -58.769  23.414  1.00  0.00     0.004 A 
HETATM   14  C   UNL     1     -15.203 -59.645  22.742  1.00  0.00     0.029 A 
BRANCH  11  15
HETATM   15  N   UNL     1     -16.793 -56.627  25.167  1.00  0.00    -0.327 N 
HETATM   16  C   UNL     1     -16.801 -55.250  24.934  1.00  0.00     0.226 C 
HETATM   17  O   UNL     1     -16.344 -54.649  23.971  1.00  0.00    -0.273 OA
HETATM   18  H   UNL     1     -17.219 -56.947  26.034  1.00  0.00     0.169 HD
BRANCH  16  19
HETATM   19  C   UNL     1     -17.459 -54.456  26.020  1.00  0.00     0.078 A 
HETATM   20  C   UNL     1     -17.019 -54.681  27.423  1.00  0.00     0.015 A 
HETATM   21  C   UNL     1     -18.362 -55.169  26.965  1.00  0.00     0.015 A 
ENDBRANCH  16  19
ENDBRANCH  11  15
ENDBRANCH   7   9
ENDBRANCH   3   7
BRANCH   5  22
HETATM   22  N   UNL     1     -17.011 -65.137  22.699  1.00  0.00    -0.341 N 
HETATM   23  H   UNL     1     -16.305 -65.073  21.969  1.00  0.00     0.167 HD
BRANCH  22  24
HETATM   24  C   UNL     1     -17.201 -66.459  23.153  1.00  0.00     0.034 A 
HETATM   25  C   UNL     1     -17.427 -67.486  22.237  1.00  0.00     0.045 A 
HETATM   26  C   UNL     1     -17.612 -68.793  22.687  1.00  0.00     0.050 A 
HETATM   27  C   UNL     1     -17.571 -69.073  24.053  1.00  0.00     0.016 A 
HETATM   28  C   UNL     1     -17.345 -68.046  24.969  1.00  0.00     0.003 A 
HETATM   29  C   UNL     1     -17.160 -66.739  24.519  1.00  0.00     0.029 A 
BRANCH  26  30
HETATM   30  C   UNL     1     -17.855 -69.892  21.708  1.00  0.00     0.417 C 
HETATM   31  F   UNL     1     -17.339 -69.645  20.468  1.00  0.00    -0.166 F 
HETATM   32  F   UNL     1     -17.316 -71.089  22.086  1.00  0.00    -0.166 F 
HETATM   33  F   UNL     1     -19.184 -70.135  21.509  1.00  0.00    -0.166 F 
ENDBRANCH  26  30
ENDBRANCH  22  24
ENDBRANCH   5  22
TORSDOF 7
ENDMDL
MODEL 4
REMARK VINA RESULT:      -6.0      2.807      4.242
REMARK  7 active torsions:
REMARK  status: ('A' for Active; 'I' for Inactive)
REMARK       I    between atoms: N_5  and  C_13 
REMARK    1  A    between atoms: N_5  and  C_14 
REMARK    2  A    between atoms: N_6  and  C_17 
REMARK    3  A    between atoms: N_6  and  C_20 
REMARK    4  A    between atoms: N_7  and  C_21 
REMARK    5  A    between atoms: N_7  and  C_23 
REMARK    6  A    between atoms: C_10  and  C_13 
REMARK    7  A    between atoms: C_24  and  C_29 
ROOT
HETATM    1  N   UNL     1     -18.130 -66.838  25.124  1.00  0.00    -0.224 NA
HETATM    2  N   UNL     1     -17.967 -64.541  24.417  1.00  0.00    -0.224 NA
HETATM    3  C   UNL     1     -17.538 -67.198  23.966  1.00  0.00     0.133 A 
HETATM    4  C   UNL     1     -17.138 -66.299  22.998  1.00  0.00     0.100 A 
HETATM    5  C   UNL     1     -17.378 -64.965  23.275  1.00  0.00     0.133 A 
HETATM    6  C   UNL     1     -18.312 -65.514  25.281  1.00  0.00     0.237 A 
ENDROOT
BRANCH   3   7
HETATM    7  N   UNL     1     -17.308 -68.572  23.714  1.00  0.00    -0.341 N 
HETATM    8  H   UNL     1     -16.375 -68.881  23.973  1.00  0.00     0.167 HD
BRANCH   7   9
HETATM    9  C   UNL     1     -18.121 -69.588  23.185  1.00  0.00     0.035 A 
HETATM   10  C   UNL     1     -19.130 -69.278  22.269  1.00  0.00     0.059 A 
HETATM   11  C   UNL     1     -19.935 -70.287  21.744  1.00  0.00     0.036 A 
HETATM   12  C   UNL     1     -19.736 -71.613  22.131  1.00  0.00     0.029 A 
HETATM   13  C   UNL     1     -18.730 -71.928  23.045  1.00  0.00     0.004 A 
HETATM   14  C   UNL     1     -17.925 -70.917  23.571  1.00  0.00     0.029 A 
BRANCH  11  15
HETATM   15  N   UNL     1     -20.941 -69.973  20.829  1.00  0.00    -0.327 N 
HETATM   16  C   UNL     1     -22.296 -69.748  21.082  1.00  0.00     0.226 C 
HETATM   17  O   UNL     1     -22.874 -69.781  22.160  1.00  0.00    -0.273 OA
HETATM   18  H   UNL     1     -20.640 -69.907  19.859  1.00  0.00     0.169 HD
BRANCH  16  19
HETATM   19  C   UNL     1     -23.096 -69.430  19.857  1.00  0.00     0.078 A 
HETATM   20  C   UNL     1     -22.966 -70.327  18.677  1.00  0.00     0.015 A 
HETATM   21  C   UNL     1     -22.373 -68.949  18.648  1.00  0.00     0.015 A 
ENDBRANCH  16  19
ENDBRANCH  11  15
ENDBRANCH   7   9
ENDBRANCH   3   7
BRANCH   5  22
HETATM   22  N   UNL     1     -16.984 -64.015  22.313  1.00  0.00    -0.341 N 
HETATM   23  H   UNL     1     -16.264 -64.365  21.684  1.00  0.00     0.167 HD
BRANCH  22  24
HETATM   24  C   UNL     1     -17.132 -62.614  22.238  1.00  0.00     0.034 A 
HETATM   25  C   UNL     1     -16.264 -61.781  22.944  1.00  0.00     0.045 A 
HETATM   26  C   UNL     1     -16.410 -60.396  22.867  1.00  0.00     0.050 A 
HETATM   27  C   UNL     1     -17.425 -59.845  22.085  1.00  0.00     0.016 A 
HETATM   28  C   UNL     1     -18.293 -60.677  21.379  1.00  0.00     0.003 A 
HETATM   29  C   UNL     1     -18.146 -62.063  21.456  1.00  0.00     0.029 A 
BRANCH  26  30
HETATM   30  C   UNL     1     -15.482 -59.505  23.622  1.00  0.00     0.417 C 
HETATM   31  F   UNL     1     -15.587 -59.627  24.977  1.00  0.00    -0.166 F 
HETATM   32  F   UNL     1     -14.164 -59.729  23.345  1.00  0.00    -0.166 F 
HETATM   33  F   UNL     1     -15.693 -58.182  23.356  1.00  0.00    -0.166 F 
ENDBRANCH  26  30
ENDBRANCH  22  24
ENDBRANCH   5  22
TORSDOF 7
ENDMDL
MODEL 5
REMARK VINA RESULT:      -6.0      1.645      2.188
REMARK  7 active torsions:
REMARK  status: ('A' for Active; 'I' for Inactive)
REMARK       I    between atoms: N_5  and  C_13 
REMARK    1  A    between atoms: N_5  and  C_14 
REMARK    2  A    between atoms: N_6  and  C_17 
REMARK    3  A    between atoms: N_6  and  C_20 
REMARK    4  A    between atoms: N_7  and  C_21 
REMARK    5  A    between atoms: N_7  and  C_23 
REMARK    6  A    between atoms: C_10  and  C_13 
REMARK    7  A    between atoms: C_24  and  C_29 
ROOT
HETATM    1  N   UNL     1     -19.870 -63.474  24.562  1.00  0.00    -0.224 NA
HETATM    2  N   UNL     1     -18.989 -61.975  22.894  1.00  0.00    -0.224 NA
HETATM    3  C   UNL     1     -18.646 -63.503  25.129  1.00  0.00     0.133 A 
HETATM    4  C   UNL     1     -17.559 -62.803  24.644  1.00  0.00     0.100 A 
HETATM    5  C   UNL     1     -17.786 -62.045  23.509  1.00  0.00     0.133 A 
HETATM    6  C   UNL     1     -19.969 -62.702  23.463  1.00  0.00     0.237 A 
ENDROOT
BRANCH   3   7
HETATM    7  N   UNL     1     -18.449 -64.291  26.290  1.00  0.00    -0.341 N 
HETATM    8  H   UNL     1     -18.723 -63.821  27.148  1.00  0.00     0.167 HD
BRANCH   7   9
HETATM    9  C   UNL     1     -17.958 -65.593  26.479  1.00  0.00     0.035 A 
HETATM   10  C   UNL     1     -17.727 -66.425  25.380  1.00  0.00     0.059 A 
HETATM   11  C   UNL     1     -17.238 -67.717  25.570  1.00  0.00     0.036 A 
HETATM   12  C   UNL     1     -16.978 -68.183  26.859  1.00  0.00     0.029 A 
HETATM   13  C   UNL     1     -17.207 -67.357  27.958  1.00  0.00     0.004 A 
HETATM   14  C   UNL     1     -17.697 -66.064  27.769  1.00  0.00     0.029 A 
BRANCH  11  15
HETATM   15  N   UNL     1     -17.007 -68.544  24.470  1.00  0.00    -0.327 N 
HETATM   16  C   UNL     1     -17.783 -69.615  24.019  1.00  0.00     0.226 C 
HETATM   17  O   UNL     1     -18.824 -70.042  24.501  1.00  0.00    -0.273 OA
HETATM   18  H   UNL     1     -16.163 -68.337  23.940  1.00  0.00     0.169 HD
BRANCH  16  19
HETATM   19  C   UNL     1     -17.236 -70.288  22.799  1.00  0.00     0.078 A 
HETATM   20  C   UNL     1     -17.583 -69.722  21.467  1.00  0.00     0.015 A 
HETATM   21  C   UNL     1     -18.183 -71.022  21.916  1.00  0.00     0.015 A 
ENDBRANCH  16  19
ENDBRANCH  11  15
ENDBRANCH   7   9
ENDBRANCH   3   7
BRANCH   5  22
HETATM   22  N   UNL     1     -16.703 -61.315  22.982  1.00  0.00    -0.341 N 
HETATM   23  H   UNL     1     -16.112 -61.873  22.370  1.00  0.00     0.167 HD
BRANCH  22  24
HETATM   24  C   UNL     1     -16.092 -60.103  23.364  1.00  0.00     0.034 A 
HETATM   25  C   UNL     1     -16.794 -59.182  24.142  1.00  0.00     0.045 A 
HETATM   26  C   UNL     1     -16.189 -57.984  24.521  1.00  0.00     0.050 A 
HETATM   27  C   UNL     1     -14.881 -57.707  24.122  1.00  0.00     0.016 A 
HETATM   28  C   UNL     1     -14.179 -58.627  23.344  1.00  0.00     0.003 A 
HETATM   29  C   UNL     1     -14.785 -59.825  22.965  1.00  0.00     0.029 A 
BRANCH  26  30
HETATM   30  C   UNL     1     -16.939 -56.999  25.353  1.00  0.00     0.417 C 
HETATM   31  F   UNL     1     -16.486 -55.717  25.226  1.00  0.00    -0.166 F 
HETATM   32  F   UNL     1     -18.271 -56.937  25.057  1.00  0.00    -0.166 F 
HETATM   33  F   UNL     1     -16.873 -57.280  26.688  1.00  0.00    -0.166 F 
ENDBRANCH  26  30
ENDBRANCH  22  24
ENDBRANCH   5  22
TORSDOF 7
ENDMDL
MODEL 6
REMARK VINA RESULT:      -5.9      2.521      3.695
REMARK  7 active torsions:
REMARK  status: ('A' for Active; 'I' for Inactive)
REMARK       I    between atoms: N_5  and  C_13 
REMARK    1  A    between atoms: N_5  and  C_14 
REMARK    2  A    between atoms: N_6  and  C_17 
REMARK    3  A    between atoms: N_6  and  C_20 
REMARK    4  A    between atoms: N_7  and  C_21 
REMARK    5  A    between atoms: N_7  and  C_23 
REMARK    6  A    between atoms: C_10  and  C_13 
REMARK    7  A    between atoms: C_24  and  C_29 
ROOT
HETATM    1  N   UNL     1     -19.437 -66.415  24.185  1.00  0.00    -0.224 NA
HETATM    2  N   UNL     1     -18.209 -64.433  24.794  1.00  0.00    -0.224 NA
HETATM    3  C   UNL     1     -18.788 -66.409  23.002  1.00  0.00     0.133 A 
HETATM    4  C   UNL     1     -17.849 -65.462  22.648  1.00  0.00     0.100 A 
HETATM    5  C   UNL     1     -17.592 -64.482  23.591  1.00  0.00     0.133 A 
HETATM    6  C   UNL     1     -19.105 -65.413  25.021  1.00  0.00     0.237 A 
ENDROOT
BRANCH   3   7
HETATM    7  N   UNL     1     -19.076 -67.426  22.060  1.00  0.00    -0.341 N 
HETATM    8  H   UNL     1     -19.492 -67.077  21.202  1.00  0.00     0.167 HD
BRANCH   7   9
HETATM    9  C   UNL     1     -18.891 -68.819  22.082  1.00  0.00     0.035 A 
HETATM   10  C   UNL     1     -19.993 -69.674  22.167  1.00  0.00     0.059 A 
HETATM   11  C   UNL     1     -19.808 -71.056  22.187  1.00  0.00     0.036 A 
HETATM   12  C   UNL     1     -18.520 -71.589  22.123  1.00  0.00     0.029 A 
HETATM   13  C   UNL     1     -17.418 -70.740  22.039  1.00  0.00     0.004 A 
HETATM   14  C   UNL     1     -17.603 -69.357  22.019  1.00  0.00     0.029 A 
BRANCH  11  15
HETATM   15  N   UNL     1     -20.911 -71.907  22.271  1.00  0.00    -0.327 N 
HETATM   16  C   UNL     1     -21.588 -72.544  21.229  1.00  0.00     0.226 C 
HETATM   17  O   UNL     1     -21.347 -72.485  20.030  1.00  0.00    -0.273 OA
HETATM   18  H   UNL     1     -21.262 -72.072  23.212  1.00  0.00     0.169 HD
BRANCH  16  19
HETATM   19  C   UNL     1     -22.736 -73.392  21.681  1.00  0.00     0.078 A 
HETATM   20  C   UNL     1     -22.685 -74.853  21.408  1.00  0.00     0.015 A 
HETATM   21  C   UNL     1     -23.632 -73.975  20.646  1.00  0.00     0.015 A 
ENDBRANCH  16  19
ENDBRANCH  11  15
ENDBRANCH   7   9
ENDBRANCH   3   7
BRANCH   5  22
HETATM   22  N   UNL     1     -16.640 -63.497  23.269  1.00  0.00    -0.341 N 
HETATM   23  H   UNL     1     -15.698 -63.746  23.562  1.00  0.00     0.167 HD
BRANCH  22  24
HETATM   24  C   UNL     1     -16.755 -62.133  22.927  1.00  0.00     0.034 A 
HETATM   25  C   UNL     1     -15.819 -61.213  23.400  1.00  0.00     0.045 A 
HETATM   26  C   UNL     1     -15.933 -59.865  23.060  1.00  0.00     0.050 A 
HETATM   27  C   UNL     1     -16.982 -59.437  22.247  1.00  0.00     0.016 A 
HETATM   28  C   UNL     1     -17.918 -60.356  21.774  1.00  0.00     0.003 A 
HETATM   29  C   UNL     1     -17.804 -61.705  22.114  1.00  0.00     0.029 A 
BRANCH  26  30
HETATM   30  C   UNL     1     -14.932 -58.881  23.567  1.00  0.00     0.417 C 
HETATM   31  F   UNL     1     -15.390 -57.594  23.582  1.00  0.00    -0.166 F 
HETATM   32  F   UNL     1     -14.521 -59.129  24.845  1.00  0.00    -0.166 F 
HETATM   33  F   UNL     1     -13.793 -58.855  22.814  1.00  0.00    -0.166 F 
ENDBRANCH  26  30
ENDBRANCH  22  24
ENDBRANCH   5  22
TORSDOF 7
ENDMDL
MODEL 7
REMARK VINA RESULT:      -5.8      6.035     10.965
REMARK  7 active torsions:
REMARK  status: ('A' for Active; 'I' for Inactive)
REMARK       I    between atoms: N_5  and  C_13 
REMARK    1  A    between atoms: N_5  and  C_14 
REMARK    2  A    between atoms: N_6  and  C_17 
REMARK    3  A    between atoms: N_6  and  C_20 
REMARK    4  A    between atoms: N_7  and  C_21 
REMARK    5  A    between atoms: N_7  and  C_23 
REMARK    6  A    between atoms: C_10  and  C_13 
REMARK    7  A    between atoms: C_24  and  C_29 
ROOT
HETATM    1  N   UNL     1     -18.481 -64.302  24.386  1.00  0.00    -0.224 NA
HETATM    2  N   UNL     1     -18.456 -66.558  25.231  1.00  0.00    -0.224 NA
HETATM    3  C   UNL     1     -17.587 -64.682  23.449  1.00  0.00     0.133 A 
HETATM    4  C   UNL     1     -17.088 -65.965  23.342  1.00  0.00     0.100 A 
HETATM    5  C   UNL     1     -17.560 -66.877  24.269  1.00  0.00     0.133 A 
HETATM    6  C   UNL     1     -18.866 -65.276  25.232  1.00  0.00     0.237 A 
ENDROOT
BRANCH   3   7
HETATM    7  N   UNL     1     -17.125 -63.722  22.516  1.00  0.00    -0.341 N 
HETATM    8  H   UNL     1     -16.929 -64.111  21.599  1.00  0.00     0.167 HD
BRANCH   7   9
HETATM    9  C   UNL     1     -16.894 -62.340  22.615  1.00  0.00     0.035 A 
HETATM   10  C   UNL     1     -17.827 -61.432  22.106  1.00  0.00     0.059 A 
HETATM   11  C   UNL     1     -17.597 -60.060  22.205  1.00  0.00     0.036 A 
HETATM   12  C   UNL     1     -16.433 -59.590  22.814  1.00  0.00     0.029 A 
HETATM   13  C   UNL     1     -15.499 -60.492  23.324  1.00  0.00     0.004 A 
HETATM   14  C   UNL     1     -15.729 -61.864  23.223  1.00  0.00     0.029 A 
BRANCH  11  15
HETATM   15  N   UNL     1     -18.531 -59.157  21.697  1.00  0.00    -0.327 N 
HETATM   16  C   UNL     1     -19.734 -58.746  22.275  1.00  0.00     0.226 C 
HETATM   17  O   UNL     1     -20.210 -59.096  23.347  1.00  0.00    -0.273 OA
HETATM   18  H   UNL     1     -18.300 -58.759  20.789  1.00  0.00     0.169 HD
BRANCH  16  19
HETATM   19  C   UNL     1     -20.497 -57.757  21.448  1.00  0.00     0.078 A 
HETATM   20  C   UNL     1     -20.214 -57.692  19.988  1.00  0.00     0.015 A 
HETATM   21  C   UNL     1     -19.762 -56.586  20.896  1.00  0.00     0.015 A 
ENDBRANCH  16  19
ENDBRANCH  11  15
ENDBRANCH   7   9
ENDBRANCH   3   7
BRANCH   5  22
HETATM   22  N   UNL     1     -17.076 -68.197  24.193  1.00  0.00    -0.341 N 
HETATM   23  H   UNL     1     -16.078 -68.263  24.381  1.00  0.00     0.167 HD
BRANCH  22  24
HETATM   24  C   UNL     1     -17.594 -69.372  23.611  1.00  0.00     0.034 A 
HETATM   25  C   UNL     1     -18.195 -70.343  24.413  1.00  0.00     0.045 A 
HETATM   26  C   UNL     1     -18.709 -71.504  23.837  1.00  0.00     0.050 A 
HETATM   27  C   UNL     1     -18.623 -71.695  22.458  1.00  0.00     0.016 A 
HETATM   28  C   UNL     1     -18.022 -70.726  21.655  1.00  0.00     0.003 A 
HETATM   29  C   UNL     1     -17.508 -69.564  22.232  1.00  0.00     0.029 A 
BRANCH  26  30
HETATM   30  C   UNL     1     -19.352 -72.542  24.694  1.00  0.00     0.417 C 
HETATM   31  F   UNL     1     -18.603 -72.896  25.779  1.00  0.00    -0.166 F 
HETATM   32  F   UNL     1     -20.559 -72.158  25.204  1.00  0.00    -0.166 F 
HETATM   33  F   UNL     1     -19.592 -73.705  24.020  1.00  0.00    -0.166 F 
ENDBRANCH  26  30
ENDBRANCH  22  24
ENDBRANCH   5  22
TORSDOF 7
ENDMDL
MODEL 8
REMARK VINA RESULT:      -5.7      5.931      7.482
REMARK  7 active torsions:
REMARK  status: ('A' for Active; 'I' for Inactive)
REMARK       I    between atoms: N_5  and  C_13 
REMARK    1  A    between atoms: N_5  and  C_14 
REMARK    2  A    between atoms: N_6  and  C_17 
REMARK    3  A    between atoms: N_6  and  C_20 
REMARK    4  A    between atoms: N_7  and  C_21 
REMARK    5  A    between atoms: N_7  and  C_23 
REMARK    6  A    between atoms: C_10  and  C_13 
REMARK    7  A    between atoms: C_24  and  C_29 
ROOT
HETATM    1  N   UNL     1     -20.885 -61.864  19.949  1.00  0.00    -0.224 NA
HETATM    2  N   UNL     1     -22.392 -60.179  19.117  1.00  0.00    -0.224 NA
HETATM    3  C   UNL     1     -19.894 -60.950  19.899  1.00  0.00     0.133 A 
HETATM    4  C   UNL     1     -20.072 -59.649  19.476  1.00  0.00     0.100 A 
HETATM    5  C   UNL     1     -21.356 -59.309  19.090  1.00  0.00     0.133 A 
HETATM    6  C   UNL     1     -22.090 -61.418  19.549  1.00  0.00     0.237 A 
ENDROOT
BRANCH   3   7
HETATM    7  N   UNL     1     -18.591 -61.333  20.301  1.00  0.00    -0.341 N 
HETATM    8  H   UNL     1     -17.964 -61.516  19.522  1.00  0.00     0.167 HD
BRANCH   7   9
HETATM    9  C   UNL     1     -18.000 -61.501  21.564  1.00  0.00     0.035 A 
HETATM   10  C   UNL     1     -17.637 -62.775  22.009  1.00  0.00     0.059 A 
HETATM   11  C   UNL     1     -17.049 -62.940  23.262  1.00  0.00     0.036 A 
HETATM   12  C   UNL     1     -16.820 -61.831  24.077  1.00  0.00     0.029 A 
HETATM   13  C   UNL     1     -17.179 -60.557  23.638  1.00  0.00     0.004 A 
HETATM   14  C   UNL     1     -17.769 -60.393  22.384  1.00  0.00     0.029 A 
BRANCH  11  15
HETATM   15  N   UNL     1     -16.688 -64.215  23.702  1.00  0.00    -0.327 N 
HETATM   16  C   UNL     1     -17.504 -65.188  24.283  1.00  0.00     0.226 C 
HETATM   17  O   UNL     1     -18.702 -65.118  24.523  1.00  0.00    -0.273 OA
HETATM   18  H   UNL     1     -15.706 -64.452  23.584  1.00  0.00     0.169 HD
BRANCH  16  19
HETATM   19  C   UNL     1     -16.782 -66.451  24.636  1.00  0.00     0.078 A 
HETATM   20  C   UNL     1     -17.583 -67.688  24.841  1.00  0.00     0.015 A 
HETATM   21  C   UNL     1     -16.947 -66.997  26.011  1.00  0.00     0.015 A 
ENDBRANCH  16  19
ENDBRANCH  11  15
ENDBRANCH   7   9
ENDBRANCH   3   7
BRANCH   5  22
HETATM   22  N   UNL     1     -21.580 -57.989  18.651  1.00  0.00    -0.341 N 
HETATM   23  H   UNL     1     -22.201 -57.469  19.267  1.00  0.00     0.167 HD
BRANCH  22  24
HETATM   24  C   UNL     1     -21.396 -57.353  17.406  1.00  0.00     0.034 A 
HETATM   25  C   UNL     1     -20.228 -57.571  16.676  1.00  0.00     0.045 A 
HETATM   26  C   UNL     1     -20.048 -56.943  15.444  1.00  0.00     0.050 A 
HETATM   27  C   UNL     1     -21.035 -56.095  14.943  1.00  0.00     0.016 A 
HETATM   28  C   UNL     1     -22.203 -55.875  15.673  1.00  0.00     0.003 A 
HETATM   29  C   UNL     1     -22.384 -56.505  16.905  1.00  0.00     0.029 A 
BRANCH  26  30
HETATM   30  C   UNL     1     -18.798 -57.176  14.663  1.00  0.00     0.417 C 
HETATM   31  F   UNL     1     -18.907 -58.178  13.742  1.00  0.00    -0.166 F 
HETATM   32  F   UNL     1     -18.386 -56.084  13.954  1.00  0.00    -0.166 F 
HETATM   33  F   UNL     1     -17.740 -57.520  15.455  1.00  0.00    -0.166 F 
ENDBRANCH  26  30
ENDBRANCH  22  24
ENDBRANCH   5  22
TORSDOF 7
ENDMDL
MODEL 9
REMARK VINA RESULT:      -5.6      6.021     10.410
REMARK  7 active torsions:
REMARK  status: ('A' for Active; 'I' for Inactive)
REMARK       I    between atoms: N_5  and  C_13 
REMARK    1  A    between atoms: N_5  and  C_14 
REMARK    2  A    between atoms: N_6  and  C_17 
REMARK    3  A    between atoms: N_6  and  C_20 
REMARK    4  A    between atoms: N_7  and  C_21 
REMARK    5  A    between atoms: N_7  and  C_23 
REMARK    6  A    between atoms: C_10  and  C_13 
REMARK    7  A    between atoms: C_24  and  C_29 
ROOT
HETATM    1  N   UNL     1     -21.140 -56.866  20.213  1.00  0.00    -0.224 NA
HETATM    2  N   UNL     1     -20.413 -59.045  19.485  1.00  0.00    -0.224 NA
HETATM    3  C   UNL     1     -20.326 -56.993  21.282  1.00  0.00     0.133 A 
HETATM    4  C   UNL     1     -19.536 -58.100  21.517  1.00  0.00     0.100 A 
HETATM    5  C   UNL     1     -19.617 -59.112  20.577  1.00  0.00     0.133 A 
HETATM    6  C   UNL     1     -21.135 -57.914  19.368  1.00  0.00     0.237 A 
ENDROOT
BRANCH   3   7
HETATM    7  N   UNL     1     -20.268 -55.938  22.225  1.00  0.00    -0.341 N 
HETATM    8  H   UNL     1     -21.181 -55.650  22.567  1.00  0.00     0.167 HD
BRANCH   7   9
HETATM    9  C   UNL     1     -19.196 -55.221  22.780  1.00  0.00     0.035 A 
HETATM   10  C   UNL     1     -18.677 -55.582  24.027  1.00  0.00     0.059 A 
HETATM   11  C   UNL     1     -17.612 -54.870  24.577  1.00  0.00     0.036 A 
HETATM   12  C   UNL     1     -17.059 -53.794  23.882  1.00  0.00     0.029 A 
HETATM   13  C   UNL     1     -17.572 -53.429  22.638  1.00  0.00     0.004 A 
HETATM   14  C   UNL     1     -18.639 -54.141  22.088  1.00  0.00     0.029 A 
BRANCH  11  15
HETATM   15  N   UNL     1     -17.097 -55.235  25.822  1.00  0.00    -0.327 N 
HETATM   16  C   UNL     1     -17.666 -55.035  27.081  1.00  0.00     0.226 C 
HETATM   17  O   UNL     1     -18.734 -54.499  27.345  1.00  0.00    -0.273 OA
HETATM   18  H   UNL     1     -16.191 -55.699  25.797  1.00  0.00     0.169 HD
BRANCH  16  19
HETATM   19  C   UNL     1     -16.835 -55.557  28.211  1.00  0.00     0.078 A 
HETATM   20  C   UNL     1     -17.286 -55.287  29.603  1.00  0.00     0.015 A 
HETATM   21  C   UNL     1     -16.087 -54.578  29.046  1.00  0.00     0.015 A 
ENDBRANCH  16  19
ENDBRANCH  11  15
ENDBRANCH   7   9
ENDBRANCH   3   7
BRANCH   5  22
HETATM   22  N   UNL     1     -18.826 -60.259  20.780  1.00  0.00    -0.341 N 
HETATM   23  H   UNL     1     -19.212 -61.089  20.335  1.00  0.00     0.167 HD
BRANCH  22  24
HETATM   24  C   UNL     1     -17.813 -60.568  21.711  1.00  0.00     0.034 A 
HETATM   25  C   UNL     1     -16.970 -59.563  22.185  1.00  0.00     0.045 A 
HETATM   26  C   UNL     1     -15.970 -59.869  23.107  1.00  0.00     0.050 A 
HETATM   27  C   UNL     1     -15.812 -61.180  23.556  1.00  0.00     0.016 A 
HETATM   28  C   UNL     1     -16.654 -62.185  23.082  1.00  0.00     0.003 A 
HETATM   29  C   UNL     1     -17.655 -61.879  22.160  1.00  0.00     0.029 A 
BRANCH  26  30
HETATM   30  C   UNL     1     -15.067 -58.794  23.614  1.00  0.00     0.417 C 
HETATM   31  F   UNL     1     -14.579 -59.034  24.866  1.00  0.00    -0.166 F 
HETATM   32  F   UNL     1     -13.965 -58.593  22.834  1.00  0.00    -0.166 F 
HETATM   33  F   UNL     1     -15.688 -57.580  23.690  1.00  0.00    -0.166 F 
ENDBRANCH  26  30
ENDBRANCH  22  24
ENDBRANCH   5  22
TORSDOF 7
ENDMDL
