MODEL 1
REMARK VINA RESULT:      -6.4      0.000      0.000
REMARK  7 active torsions:
REMARK  status: ('A' for Active; 'I' for Inactive)
REMARK       I    between atoms: N_5  and  C_13 
REMARK    1  A    between atoms: N_5  and  C_14 
REMARK    2  A    between atoms: N_6  and  C_17 
REMARK    3  A    between atoms: N_6  and  C_20 
REMARK    4  A    between atoms: N_7  and  C_21 
REMARK    5  A    between atoms: N_7  and  C_23 
REMARK    6  A    between atoms: C_10  and  C_13 
REMARK    7  A    between atoms: C_24  and  C_29 
ROOT
HETATM    1  N   UNL     1     -19.256 -63.949  22.863  1.00  0.00    -0.224 NA
HETATM    2  N   UNL     1     -19.361 -61.561  22.553  1.00  0.00    -0.224 NA
HETATM    3  C   UNL     1     -17.937 -63.889  22.586  1.00  0.00     0.133 A 
HETATM    4  C   UNL     1     -17.268 -62.719  22.288  1.00  0.00     0.100 A 
HETATM    5  C   UNL     1     -18.035 -61.568  22.283  1.00  0.00     0.133 A 
HETATM    6  C   UNL     1     -19.898 -62.765  22.828  1.00  0.00     0.237 A 
ENDROOT
BRANCH   3   7
HETATM    7  N   UNL     1     -17.182 -65.088  22.599  1.00  0.00    -0.341 N 
HETATM    8  H   UNL     1     -16.462 -65.120  21.883  1.00  0.00     0.167 HD
BRANCH   7   9
HETATM    9  C   UNL     1     -17.234 -66.232  23.412  1.00  0.00     0.035 A 
HETATM   10  C   UNL     1     -17.921 -67.370  22.984  1.00  0.00     0.059 A 
HETATM   11  C   UNL     1     -17.970 -68.506  23.791  1.00  0.00     0.036 A 
HETATM   12  C   UNL     1     -17.331 -68.508  25.032  1.00  0.00     0.029 A 
HETATM   13  C   UNL     1     -16.644 -67.374  25.464  1.00  0.00     0.004 A 
HETATM   14  C   UNL     1     -16.596 -66.238  24.656  1.00  0.00     0.029 A 
BRANCH  11  15
HETATM   15  N   UNL     1     -18.657 -69.641  23.359  1.00  0.00    -0.327 N 
HETATM   16  C   UNL     1     -18.247 -70.590  22.419  1.00  0.00     0.226 C 
HETATM   17  O   UNL     1     -17.199 -70.615  21.786  1.00  0.00    -0.273 OA
HETATM   18  H   UNL     1     -19.571 -69.783  23.783  1.00  0.00     0.169 HD
BRANCH  16  19
HETATM   19  C   UNL     1     -19.239 -71.688  22.194  1.00  0.00     0.078 A 
HETATM   20  C   UNL     1     -20.210 -71.993  23.279  1.00  0.00     0.015 A 
HETATM   21  C   UNL     1     -19.089 -72.944  22.978  1.00  0.00     0.015 A 
ENDBRANCH  16  19
ENDBRANCH  11  15
ENDBRANCH   7   9
ENDBRANCH   3   7
BRANCH   5  22
HETATM   22  N   UNL     1     -17.390 -60.353  21.984  1.00  0.00    -0.341 N 
HETATM   23  H   UNL     1     -17.281 -60.200  20.984  1.00  0.00     0.167 HD
BRANCH  22  24
HETATM   24  C   UNL     1     -16.595 -59.479  22.754  1.00  0.00     0.034 A 
HETATM   25  C   UNL     1     -17.192 -58.443  23.473  1.00  0.00     0.045 A 
HETATM   26  C   UNL     1     -16.405 -57.580  24.236  1.00  0.00     0.050 A 
HETATM   27  C   UNL     1     -15.022 -57.752  24.280  1.00  0.00     0.016 A 
HETATM   28  C   UNL     1     -14.425 -58.788  23.561  1.00  0.00     0.003 A 
HETATM   29  C   UNL     1     -15.212 -59.651  22.798  1.00  0.00     0.029 A 
BRANCH  26  30
HETATM   30  C   UNL     1     -17.043 -56.472  25.005  1.00  0.00     0.417 C 
HETATM   31  F   UNL     1     -18.406 -56.548  25.047  1.00  0.00    -0.166 F 
HETATM   32  F   UNL     1     -16.649 -56.416  26.311  1.00  0.00    -0.166 F 
HETATM   33  F   UNL     1     -16.761 -55.241  24.485  1.00  0.00    -0.166 F 
ENDBRANCH  26  30
ENDBRANCH  22  24
ENDBRANCH   5  22
TORSDOF 7
ENDMDL
MODEL 2
REMARK VINA RESULT:      -6.2      5.613     11.107
REMARK  7 active torsions:
REMARK  status: ('A' for Active; 'I' for Inactive)
REMARK       I    between atoms: N_5  and  C_13 
REMARK    1  A    between atoms: N_5  and  C_14 
REMARK    2  A    between atoms: N_6  and  C_17 
REMARK    3  A    between atoms: N_6  and  C_20 
REMARK    4  A    between atoms: N_7  and  C_21 
REMARK    5  A    between atoms: N_7  and  C_23 
REMARK    6  A    between atoms: C_10  and  C_13 
REMARK    7  A    between atoms: C_24  and  C_29 
ROOT
HETATM    1  N   UNL     1     -19.349 -61.607  22.708  1.00  0.00    -0.224 NA
HETATM    2  N   UNL     1     -19.136 -63.989  23.002  1.00  0.00    -0.224 NA
HETATM    3  C   UNL     1     -18.036 -61.565  22.400  1.00  0.00     0.133 A 
HETATM    4  C   UNL     1     -17.219 -62.677  22.372  1.00  0.00     0.100 A 
HETATM    5  C   UNL     1     -17.825 -63.881  22.685  1.00  0.00     0.133 A 
HETATM    6  C   UNL     1     -19.826 -62.833  22.996  1.00  0.00     0.237 A 
ENDROOT
BRANCH   3   7
HETATM    7  N   UNL     1     -17.449 -60.315  22.085  1.00  0.00    -0.341 N 
HETATM    8  H   UNL     1     -17.690 -59.977  21.158  1.00  0.00     0.167 HD
BRANCH   7   9
HETATM    9  C   UNL     1     -16.606 -59.455  22.809  1.00  0.00     0.035 A 
HETATM   10  C   UNL     1     -17.149 -58.430  23.590  1.00  0.00     0.059 A 
HETATM   11  C   UNL     1     -16.311 -57.578  24.308  1.00  0.00     0.036 A 
HETATM   12  C   UNL     1     -14.927 -57.746  24.250  1.00  0.00     0.029 A 
HETATM   13  C   UNL     1     -14.381 -58.766  23.472  1.00  0.00     0.004 A 
HETATM   14  C   UNL     1     -15.219 -59.619  22.752  1.00  0.00     0.029 A 
BRANCH  11  15
HETATM   15  N   UNL     1     -16.857 -56.557  25.088  1.00  0.00    -0.327 N 
HETATM   16  C   UNL     1     -16.778 -55.178  24.879  1.00  0.00     0.226 C 
HETATM   17  O   UNL     1     -16.213 -54.588  23.968  1.00  0.00    -0.273 OA
HETATM   18  H   UNL     1     -17.370 -56.866  25.911  1.00  0.00     0.169 HD
BRANCH  16  19
HETATM   19  C   UNL     1     -17.485 -54.367  25.920  1.00  0.00     0.078 A 
HETATM   20  C   UNL     1     -16.752 -53.237  26.552  1.00  0.00     0.015 A 
HETATM   21  C   UNL     1     -17.034 -54.486  27.333  1.00  0.00     0.015 A 
ENDBRANCH  16  19
ENDBRANCH  11  15
ENDBRANCH   7   9
ENDBRANCH   3   7
BRANCH   5  22
HETATM   22  N   UNL     1     -17.026 -65.040  22.667  1.00  0.00    -0.341 N 
HETATM   23  H   UNL     1     -16.268 -64.986  21.991  1.00  0.00     0.167 HD
BRANCH  22  24
HETATM   24  C   UNL     1     -17.236 -66.352  23.140  1.00  0.00     0.034 A 
HETATM   25  C   UNL     1     -17.408 -67.401  22.238  1.00  0.00     0.045 A 
HETATM   26  C   UNL     1     -17.614 -68.698  22.706  1.00  0.00     0.050 A 
HETATM   27  C   UNL     1     -17.648 -68.946  24.078  1.00  0.00     0.016 A 
HETATM   28  C   UNL     1     -17.476 -67.898  24.982  1.00  0.00     0.003 A 
HETATM   29  C   UNL     1     -17.270 -66.600  24.513  1.00  0.00     0.029 A 
BRANCH  26  30
HETATM   30  C   UNL     1     -17.798 -69.820  21.741  1.00  0.00     0.417 C 
HETATM   31  F   UNL     1     -19.107 -70.139  21.515  1.00  0.00    -0.166 F 
HETATM   32  F   UNL     1     -17.275 -69.569  20.505  1.00  0.00    -0.166 F 
HETATM   33  F   UNL     1     -17.207 -70.977  22.161  1.00  0.00    -0.166 F 
ENDBRANCH  26  30
ENDBRANCH  22  24
ENDBRANCH   5  22
TORSDOF 7
ENDMDL
MODEL 3
REMARK VINA RESULT:      -6.1      1.602      2.089
REMARK  7 active torsions:
REMARK  status: ('A' for Active; 'I' for Inactive)
REMARK       I    between atoms: N_5  and  C_13 
REMARK    1  A    between atoms: N_5  and  C_14 
REMARK    2  A    between atoms: N_6  and  C_17 
REMARK    3  A    between atoms: N_6  and  C_20 
REMARK    4  A    between atoms: N_7  and  C_21 
REMARK    5  A    between atoms: N_7  and  C_23 
REMARK    6  A    between atoms: C_10  and  C_13 
REMARK    7  A    between atoms: C_24  and  C_29 
ROOT
HETATM    1  N   UNL     1     -19.410 -63.497  23.617  1.00  0.00    -0.224 NA
HETATM    2  N   UNL     1     -18.059 -62.013  22.284  1.00  0.00    -0.224 NA
HETATM    3  C   UNL     1     -18.403 -63.548  24.514  1.00  0.00     0.133 A 
HETATM    4  C   UNL     1     -17.211 -62.869  24.367  1.00  0.00     0.100 A 
HETATM    5  C   UNL     1     -17.086 -62.106  23.220  1.00  0.00     0.133 A 
HETATM    6  C   UNL     1     -19.174 -62.723  22.541  1.00  0.00     0.237 A 
ENDROOT
BRANCH   3   7
HETATM    7  N   UNL     1     -18.564 -64.340  25.677  1.00  0.00    -0.341 N 
HETATM    8  H   UNL     1     -19.178 -63.921  26.370  1.00  0.00     0.167 HD
BRANCH   7   9
HETATM    9  C   UNL     1     -18.047 -65.591  26.051  1.00  0.00     0.035 A 
HETATM   10  C   UNL     1     -17.855 -66.589  25.092  1.00  0.00     0.059 A 
HETATM   11  C   UNL     1     -17.340 -67.830  25.464  1.00  0.00     0.036 A 
HETATM   12  C   UNL     1     -17.013 -68.079  26.798  1.00  0.00     0.029 A 
HETATM   13  C   UNL     1     -17.203 -67.086  27.759  1.00  0.00     0.004 A 
HETATM   14  C   UNL     1     -17.719 -65.845  27.386  1.00  0.00     0.029 A 
BRANCH  11  15
HETATM   15  N   UNL     1     -17.149 -68.824  24.503  1.00  0.00    -0.327 N 
HETATM   16  C   UNL     1     -18.069 -69.773  24.051  1.00  0.00     0.226 C 
HETATM   17  O   UNL     1     -19.230 -69.923  24.409  1.00  0.00    -0.273 OA
HETATM   18  H   UNL     1     -16.219 -68.856  24.090  1.00  0.00     0.169 HD
BRANCH  16  19
HETATM   19  C   UNL     1     -17.524 -70.694  23.004  1.00  0.00     0.078 A 
HETATM   20  C   UNL     1     -17.581 -70.258  21.583  1.00  0.00     0.015 A 
HETATM   21  C   UNL     1     -18.483 -71.351  22.075  1.00  0.00     0.015 A 
ENDBRANCH  16  19
ENDBRANCH  11  15
ENDBRANCH   7   9
ENDBRANCH   3   7
BRANCH   5  22
HETATM   22  N   UNL     1     -15.885 -61.396  23.033  1.00  0.00    -0.341 N 
HETATM   23  H   UNL     1     -15.097 -62.003  22.819  1.00  0.00     0.167 HD
BRANCH  22  24
HETATM   24  C   UNL     1     -15.481 -60.092  23.386  1.00  0.00     0.034 A 
HETATM   25  C   UNL     1     -16.319 -59.286  24.158  1.00  0.00     0.045 A 
HETATM   26  C   UNL     1     -15.918 -57.998  24.508  1.00  0.00     0.050 A 
HETATM   27  C   UNL     1     -14.679 -57.514  24.088  1.00  0.00     0.016 A 
HETATM   28  C   UNL     1     -13.841 -58.319  23.316  1.00  0.00     0.003 A 
HETATM   29  C   UNL     1     -14.242 -59.608  22.966  1.00  0.00     0.029 A 
BRANCH  26  30
HETATM   30  C   UNL     1     -16.814 -57.135  25.333  1.00  0.00     0.417 C 
HETATM   31  F   UNL     1     -16.441 -55.822  25.355  1.00  0.00    -0.166 F 
HETATM   32  F   UNL     1     -18.111 -57.131  24.907  1.00  0.00    -0.166 F 
HETATM   33  F   UNL     1     -16.859 -57.525  26.641  1.00  0.00    -0.166 F 
ENDBRANCH  26  30
ENDBRANCH  22  24
ENDBRANCH   5  22
TORSDOF 7
ENDMDL
MODEL 4
REMARK VINA RESULT:      -6.1      1.805      2.574
REMARK  7 active torsions:
REMARK  status: ('A' for Active; 'I' for Inactive)
REMARK       I    between atoms: N_5  and  C_13 
REMARK    1  A    between atoms: N_5  and  C_14 
REMARK    2  A    between atoms: N_6  and  C_17 
REMARK    3  A    between atoms: N_6  and  C_20 
REMARK    4  A    between atoms: N_7  and  C_21 
REMARK    5  A    between atoms: N_7  and  C_23 
REMARK    6  A    between atoms: C_10  and  C_13 
REMARK    7  A    between atoms: C_24  and  C_29 
ROOT
HETATM    1  N   UNL     1     -18.125 -61.660  21.344  1.00  0.00    -0.224 NA
HETATM    2  N   UNL     1     -17.707 -59.381  22.005  1.00  0.00    -0.224 NA
HETATM    3  C   UNL     1     -17.128 -62.043  22.167  1.00  0.00     0.133 A 
HETATM    4  C   UNL     1     -16.385 -61.166  22.932  1.00  0.00     0.100 A 
HETATM    5  C   UNL     1     -16.718 -59.829  22.813  1.00  0.00     0.133 A 
HETATM    6  C   UNL     1     -18.357 -60.334  21.311  1.00  0.00     0.237 A 
ENDROOT
BRANCH   3   7
HETATM    7  N   UNL     1     -16.813 -63.420  22.264  1.00  0.00    -0.341 N 
HETATM    8  H   UNL     1     -15.988 -63.685  21.734  1.00  0.00     0.167 HD
BRANCH   7   9
HETATM    9  C   UNL     1     -17.417 -64.485  22.954  1.00  0.00     0.035 A 
HETATM   10  C   UNL     1     -17.228 -65.801  22.524  1.00  0.00     0.059 A 
HETATM   11  C   UNL     1     -17.826 -66.856  23.210  1.00  0.00     0.036 A 
HETATM   12  C   UNL     1     -18.618 -66.601  24.331  1.00  0.00     0.029 A 
HETATM   13  C   UNL     1     -18.810 -65.289  24.764  1.00  0.00     0.004 A 
HETATM   14  C   UNL     1     -18.211 -64.233  24.076  1.00  0.00     0.029 A 
BRANCH  11  15
HETATM   15  N   UNL     1     -17.634 -68.169  22.778  1.00  0.00    -0.327 N 
HETATM   16  C   UNL     1     -18.243 -68.820  21.703  1.00  0.00     0.226 C 
HETATM   17  O   UNL     1     -19.070 -68.367  20.922  1.00  0.00    -0.273 OA
HETATM   18  H   UNL     1     -16.969 -68.713  23.324  1.00  0.00     0.169 HD
BRANCH  16  19
HETATM   19  C   UNL     1     -17.799 -70.238  21.523  1.00  0.00     0.078 A 
HETATM   20  C   UNL     1     -18.664 -71.322  22.062  1.00  0.00     0.015 A 
HETATM   21  C   UNL     1     -17.358 -70.996  22.726  1.00  0.00     0.015 A 
ENDBRANCH  16  19
ENDBRANCH  11  15
ENDBRANCH   7   9
ENDBRANCH   3   7
BRANCH   5  22
HETATM   22  N   UNL     1     -15.984 -58.901  23.577  1.00  0.00    -0.341 N 
HETATM   23  H   UNL     1     -14.988 -59.108  23.599  1.00  0.00     0.167 HD
BRANCH  22  24
HETATM   24  C   UNL     1     -16.362 -57.960  24.557  1.00  0.00     0.034 A 
HETATM   25  C   UNL     1     -16.409 -56.602  24.241  1.00  0.00     0.045 A 
HETATM   26  C   UNL     1     -16.784 -55.672  25.210  1.00  0.00     0.050 A 
HETATM   27  C   UNL     1     -17.113 -56.100  26.496  1.00  0.00     0.016 A 
HETATM   28  C   UNL     1     -17.066 -57.457  26.813  1.00  0.00     0.003 A 
HETATM   29  C   UNL     1     -16.690 -58.387  25.843  1.00  0.00     0.029 A 
BRANCH  26  30
HETATM   30  C   UNL     1     -16.834 -54.220  24.872  1.00  0.00     0.417 C 
HETATM   31  F   UNL     1     -18.087 -53.683  24.946  1.00  0.00    -0.166 F 
HETATM   32  F   UNL     1     -16.064 -53.443  25.688  1.00  0.00    -0.166 F 
HETATM   33  F   UNL     1     -16.399 -53.961  23.603  1.00  0.00    -0.166 F 
ENDBRANCH  26  30
ENDBRANCH  22  24
ENDBRANCH   5  22
TORSDOF 7
ENDMDL
MODEL 5
REMARK VINA RESULT:      -6.1      2.816      4.049
REMARK  7 active torsions:
REMARK  status: ('A' for Active; 'I' for Inactive)
REMARK       I    between atoms: N_5  and  C_13 
REMARK    1  A    between atoms: N_5  and  C_14 
REMARK    2  A    between atoms: N_6  and  C_17 
REMARK    3  A    between atoms: N_6  and  C_20 
REMARK    4  A    between atoms: N_7  and  C_21 
REMARK    5  A    between atoms: N_7  and  C_23 
REMARK    6  A    between atoms: C_10  and  C_13 
REMARK    7  A    between atoms: C_24  and  C_29 
ROOT
HETATM    1  N   UNL     1     -18.309 -66.416  25.395  1.00  0.00    -0.224 NA
HETATM    2  N   UNL     1     -18.002 -64.128  24.704  1.00  0.00    -0.224 NA
HETATM    3  C   UNL     1     -17.563 -66.796  24.338  1.00  0.00     0.133 A 
HETATM    4  C   UNL     1     -17.010 -65.914  23.432  1.00  0.00     0.100 A 
HETATM    5  C   UNL     1     -17.262 -64.573  23.662  1.00  0.00     0.133 A 
HETATM    6  C   UNL     1     -18.487 -65.086  25.516  1.00  0.00     0.237 A 
ENDROOT
BRANCH   3   7
HETATM    7  N   UNL     1     -17.325 -68.177  24.132  1.00  0.00    -0.341 N 
HETATM    8  H   UNL     1     -16.489 -68.518  24.598  1.00  0.00     0.167 HD
BRANCH   7   9
HETATM    9  C   UNL     1     -18.024 -69.163  23.415  1.00  0.00     0.035 A 
HETATM   10  C   UNL     1     -19.003 -68.798  22.487  1.00  0.00     0.059 A 
HETATM   11  C   UNL     1     -19.695 -69.778  21.776  1.00  0.00     0.036 A 
HETATM   12  C   UNL     1     -19.411 -71.127  21.989  1.00  0.00     0.029 A 
HETATM   13  C   UNL     1     -18.436 -71.496  22.914  1.00  0.00     0.004 A 
HETATM   14  C   UNL     1     -17.744 -70.516  23.627  1.00  0.00     0.029 A 
BRANCH  11  15
HETATM   15  N   UNL     1     -20.671 -69.408  20.849  1.00  0.00    -0.327 N 
HETATM   16  C   UNL     1     -22.057 -69.382  21.021  1.00  0.00     0.226 C 
HETATM   17  O   UNL     1     -22.693 -69.678  22.024  1.00  0.00    -0.273 OA
HETATM   18  H   UNL     1     -20.318 -69.131  19.935  1.00  0.00     0.169 HD
BRANCH  16  19
HETATM   19  C   UNL     1     -22.809 -68.931  19.809  1.00  0.00     0.078 A 
HETATM   20  C   UNL     1     -22.754 -69.779  18.588  1.00  0.00     0.015 A 
HETATM   21  C   UNL     1     -22.030 -68.466  18.629  1.00  0.00     0.015 A 
ENDBRANCH  16  19
ENDBRANCH  11  15
ENDBRANCH   7   9
ENDBRANCH   3   7
BRANCH   5  22
HETATM   22  N   UNL     1     -16.715 -63.640  22.761  1.00  0.00    -0.341 N 
HETATM   23  H   UNL     1     -15.874 -63.981  22.301  1.00  0.00     0.167 HD
BRANCH  22  24
HETATM   24  C   UNL     1     -16.892 -62.250  22.602  1.00  0.00     0.034 A 
HETATM   25  C   UNL     1     -15.971 -61.361  23.157  1.00  0.00     0.045 A 
HETATM   26  C   UNL     1     -16.145 -59.987  22.998  1.00  0.00     0.050 A 
HETATM   27  C   UNL     1     -17.240 -59.500  22.284  1.00  0.00     0.016 A 
HETATM   28  C   UNL     1     -18.162 -60.388  21.730  1.00  0.00     0.003 A 
HETATM   29  C   UNL     1     -17.987 -61.763  21.889  1.00  0.00     0.029 A 
BRANCH  26  30
HETATM   30  C   UNL     1     -15.160 -59.036  23.591  1.00  0.00     0.417 C 
HETATM   31  F   UNL     1     -14.805 -59.344  24.873  1.00  0.00    -0.166 F 
HETATM   32  F   UNL     1     -13.983 -58.967  22.901  1.00  0.00    -0.166 F 
HETATM   33  F   UNL     1     -15.631 -57.755  23.640  1.00  0.00    -0.166 F 
ENDBRANCH  26  30
ENDBRANCH  22  24
ENDBRANCH   5  22
TORSDOF 7
ENDMDL
MODEL 6
REMARK VINA RESULT:      -6.1      6.362     11.806
REMARK  7 active torsions:
REMARK  status: ('A' for Active; 'I' for Inactive)
REMARK       I    between atoms: N_5  and  C_13 
REMARK    1  A    between atoms: N_5  and  C_14 
REMARK    2  A    between atoms: N_6  and  C_17 
REMARK    3  A    between atoms: N_6  and  C_20 
REMARK    4  A    between atoms: N_7  and  C_21 
REMARK    5  A    between atoms: N_7  and  C_23 
REMARK    6  A    between atoms: C_10  and  C_13 
REMARK    7  A    between atoms: C_24  and  C_29 
ROOT
HETATM    1  N   UNL     1     -17.086 -66.938  24.426  1.00  0.00    -0.224 NA
HETATM    2  N   UNL     1     -17.580 -69.280  24.150  1.00  0.00    -0.224 NA
HETATM    3  C   UNL     1     -17.359 -66.764  23.116  1.00  0.00     0.133 A 
HETATM    4  C   UNL     1     -17.744 -67.785  22.271  1.00  0.00     0.100 A 
HETATM    5  C   UNL     1     -17.840 -69.040  22.843  1.00  0.00     0.133 A 
HETATM    6  C   UNL     1     -17.214 -68.203  24.870  1.00  0.00     0.237 A 
ENDROOT
BRANCH   3   7
HETATM    7  N   UNL     1     -17.249 -65.465  22.562  1.00  0.00    -0.341 N 
HETATM    8  H   UNL     1     -16.763 -65.445  21.670  1.00  0.00     0.167 HD
BRANCH   7   9
HETATM    9  C   UNL     1     -17.687 -64.205  23.005  1.00  0.00     0.035 A 
HETATM   10  C   UNL     1     -16.759 -63.228  23.376  1.00  0.00     0.059 A 
HETATM   11  C   UNL     1     -17.195 -61.978  23.814  1.00  0.00     0.036 A 
HETATM   12  C   UNL     1     -18.560 -61.699  23.883  1.00  0.00     0.029 A 
HETATM   13  C   UNL     1     -19.490 -62.671  23.514  1.00  0.00     0.004 A 
HETATM   14  C   UNL     1     -19.054 -63.922  23.077  1.00  0.00     0.029 A 
BRANCH  11  15
HETATM   15  N   UNL     1     -16.265 -61.004  24.183  1.00  0.00    -0.327 N 
HETATM   16  C   UNL     1     -15.973 -59.803  23.533  1.00  0.00     0.226 C 
HETATM   17  O   UNL     1     -16.477 -59.362  22.509  1.00  0.00    -0.273 OA
HETATM   18  H   UNL     1     -15.736 -61.208  25.028  1.00  0.00     0.169 HD
BRANCH  16  19
HETATM   19  C   UNL     1     -14.913 -58.991  24.210  1.00  0.00     0.078 A 
HETATM   20  C   UNL     1     -14.985 -57.509  24.106  1.00  0.00     0.015 A 
HETATM   21  C   UNL     1     -13.929 -58.268  23.359  1.00  0.00     0.015 A 
ENDBRANCH  16  19
ENDBRANCH  11  15
ENDBRANCH   7   9
ENDBRANCH   3   7
BRANCH   5  22
HETATM   22  N   UNL     1     -18.231 -70.110  22.015  1.00  0.00    -0.341 N 
HETATM   23  H   UNL     1     -17.986 -69.962  21.038  1.00  0.00     0.167 HD
BRANCH  22  24
HETATM   24  C   UNL     1     -19.150 -71.165  22.188  1.00  0.00     0.034 A 
HETATM   25  C   UNL     1     -18.754 -72.338  22.830  1.00  0.00     0.045 A 
HETATM   26  C   UNL     1     -19.664 -73.381  23.002  1.00  0.00     0.050 A 
HETATM   27  C   UNL     1     -20.970 -73.251  22.531  1.00  0.00     0.016 A 
HETATM   28  C   UNL     1     -21.367 -72.079  21.888  1.00  0.00     0.003 A 
HETATM   29  C   UNL     1     -20.456 -71.035  21.717  1.00  0.00     0.029 A 
BRANCH  26  30
HETATM   30  C   UNL     1     -19.240 -74.635  23.690  1.00  0.00     0.417 C 
HETATM   31  F   UNL     1     -18.189 -75.263  23.086  1.00  0.00    -0.166 F 
HETATM   32  F   UNL     1     -18.846 -74.443  24.983  1.00  0.00    -0.166 F 
HETATM   33  F   UNL     1     -20.239 -75.566  23.746  1.00  0.00    -0.166 F 
ENDBRANCH  26  30
ENDBRANCH  22  24
ENDBRANCH   5  22
TORSDOF 7
ENDMDL
MODEL 7
REMARK VINA RESULT:      -6.0      5.747     11.126
REMARK  7 active torsions:
REMARK  status: ('A' for Active; 'I' for Inactive)
REMARK       I    between atoms: N_5  and  C_13 
REMARK    1  A    between atoms: N_5  and  C_14 
REMARK    2  A    between atoms: N_6  and  C_17 
REMARK    3  A    between atoms: N_6  and  C_20 
REMARK    4  A    between atoms: N_7  and  C_21 
REMARK    5  A    between atoms: N_7  and  C_23 
REMARK    6  A    between atoms: C_10  and  C_13 
REMARK    7  A    between atoms: C_24  and  C_29 
ROOT
HETATM    1  N   UNL     1     -18.339 -64.726  23.975  1.00  0.00    -0.224 NA
HETATM    2  N   UNL     1     -18.431 -67.071  24.519  1.00  0.00    -0.224 NA
HETATM    3  C   UNL     1     -17.514 -65.033  22.952  1.00  0.00     0.133 A 
HETATM    4  C   UNL     1     -17.109 -66.318  22.654  1.00  0.00     0.100 A 
HETATM    5  C   UNL     1     -17.601 -67.315  23.478  1.00  0.00     0.133 A 
HETATM    6  C   UNL     1     -18.752 -65.777  24.708  1.00  0.00     0.237 A 
ENDROOT
BRANCH   3   7
HETATM    7  N   UNL     1     -17.028 -63.988  22.129  1.00  0.00    -0.341 N 
HETATM    8  H   UNL     1     -16.241 -64.262  21.549  1.00  0.00     0.167 HD
BRANCH   7   9
HETATM    9  C   UNL     1     -17.429 -62.653  21.958  1.00  0.00     0.035 A 
HETATM   10  C   UNL     1     -16.928 -61.653  22.796  1.00  0.00     0.059 A 
HETATM   11  C   UNL     1     -17.325 -60.328  22.624  1.00  0.00     0.036 A 
HETATM   12  C   UNL     1     -18.226 -59.995  21.612  1.00  0.00     0.029 A 
HETATM   13  C   UNL     1     -18.729 -60.989  20.772  1.00  0.00     0.004 A 
HETATM   14  C   UNL     1     -18.332 -62.315  20.945  1.00  0.00     0.029 A 
BRANCH  11  15
HETATM   15  N   UNL     1     -16.822 -59.333  23.464  1.00  0.00    -0.327 N 
HETATM   16  C   UNL     1     -15.513 -58.852  23.540  1.00  0.00     0.226 C 
HETATM   17  O   UNL     1     -14.543 -59.208  22.883  1.00  0.00    -0.273 OA
HETATM   18  H   UNL     1     -17.500 -58.918  24.099  1.00  0.00     0.169 HD
BRANCH  16  19
HETATM   19  C   UNL     1     -15.323 -57.773  24.560  1.00  0.00     0.078 A 
HETATM   20  C   UNL     1     -16.326 -57.650  25.652  1.00  0.00     0.015 A 
HETATM   21  C   UNL     1     -16.271 -56.626  24.557  1.00  0.00     0.015 A 
ENDBRANCH  16  19
ENDBRANCH  11  15
ENDBRANCH   7   9
ENDBRANCH   3   7
BRANCH   5  22
HETATM   22  N   UNL     1     -17.212 -68.640  23.207  1.00  0.00    -0.341 N 
HETATM   23  H   UNL     1     -16.310 -68.699  22.738  1.00  0.00     0.167 HD
BRANCH  22  24
HETATM   24  C   UNL     1     -17.929 -69.854  23.153  1.00  0.00     0.034 A 
HETATM   25  C   UNL     1     -18.231 -70.540  24.329  1.00  0.00     0.045 A 
HETATM   26  C   UNL     1     -18.941 -71.738  24.275  1.00  0.00     0.050 A 
HETATM   27  C   UNL     1     -19.349 -72.252  23.045  1.00  0.00     0.016 A 
HETATM   28  C   UNL     1     -19.048 -71.567  21.868  1.00  0.00     0.003 A 
HETATM   29  C   UNL     1     -18.337 -70.368  21.922  1.00  0.00     0.029 A 
BRANCH  26  30
HETATM   30  C   UNL     1     -19.264 -72.472  25.534  1.00  0.00     0.417 C 
HETATM   31  F   UNL     1     -18.664 -73.696  25.623  1.00  0.00    -0.166 F 
HETATM   32  F   UNL     1     -18.887 -71.807  26.665  1.00  0.00    -0.166 F 
HETATM   33  F   UNL     1     -20.601 -72.709  25.675  1.00  0.00    -0.166 F 
ENDBRANCH  26  30
ENDBRANCH  22  24
ENDBRANCH   5  22
TORSDOF 7
ENDMDL
MODEL 8
REMARK VINA RESULT:      -6.0      3.504      4.032
REMARK  7 active torsions:
REMARK  status: ('A' for Active; 'I' for Inactive)
REMARK       I    between atoms: N_5  and  C_13 
REMARK    1  A    between atoms: N_5  and  C_14 
REMARK    2  A    between atoms: N_6  and  C_17 
REMARK    3  A    between atoms: N_6  and  C_20 
REMARK    4  A    between atoms: N_7  and  C_21 
REMARK    5  A    between atoms: N_7  and  C_23 
REMARK    6  A    between atoms: C_10  and  C_13 
REMARK    7  A    between atoms: C_24  and  C_29 
ROOT
HETATM    1  N   UNL     1     -19.555 -63.169  28.131  1.00  0.00    -0.224 NA
HETATM    2  N   UNL     1     -18.834 -60.983  28.843  1.00  0.00    -0.224 NA
HETATM    3  C   UNL     1     -18.554 -63.163  27.226  1.00  0.00     0.133 A 
HETATM    4  C   UNL     1     -17.665 -62.119  27.073  1.00  0.00     0.100 A 
HETATM    5  C   UNL     1     -17.850 -61.038  27.916  1.00  0.00     0.133 A 
HETATM    6  C   UNL     1     -19.636 -62.063  28.895  1.00  0.00     0.237 A 
ENDROOT
BRANCH   3   7
HETATM    7  N   UNL     1     -18.394 -64.286  26.378  1.00  0.00    -0.341 N 
HETATM    8  H   UNL     1     -18.630 -64.098  25.408  1.00  0.00     0.167 HD
BRANCH   7   9
HETATM    9  C   UNL     1     -17.966 -65.603  26.619  1.00  0.00     0.035 A 
HETATM   10  C   UNL     1     -17.708 -66.466  25.551  1.00  0.00     0.059 A 
HETATM   11  C   UNL     1     -17.283 -67.772  25.791  1.00  0.00     0.036 A 
HETATM   12  C   UNL     1     -17.113 -68.221  27.102  1.00  0.00     0.029 A 
HETATM   13  C   UNL     1     -17.369 -67.363  28.171  1.00  0.00     0.004 A 
HETATM   14  C   UNL     1     -17.796 -66.057  27.930  1.00  0.00     0.029 A 
BRANCH  11  15
HETATM   15  N   UNL     1     -17.025 -68.630  24.721  1.00  0.00    -0.327 N 
HETATM   16  C   UNL     1     -17.902 -69.526  24.106  1.00  0.00     0.226 C 
HETATM   17  O   UNL     1     -19.076 -69.737  24.382  1.00  0.00    -0.273 OA
HETATM   18  H   UNL     1     -16.076 -68.595  24.356  1.00  0.00     0.169 HD
BRANCH  16  19
HETATM   19  C   UNL     1     -17.288 -70.296  22.978  1.00  0.00     0.078 A 
HETATM   20  C   UNL     1     -17.474 -69.787  21.593  1.00  0.00     0.015 A 
HETATM   21  C   UNL     1     -18.193 -71.023  22.046  1.00  0.00     0.015 A 
ENDBRANCH  16  19
ENDBRANCH  11  15
ENDBRANCH   7   9
ENDBRANCH   3   7
BRANCH   5  22
HETATM   22  N   UNL     1     -16.963 -59.951  27.792  1.00  0.00    -0.341 N 
HETATM   23  H   UNL     1     -16.668 -59.577  28.691  1.00  0.00     0.167 HD
BRANCH  22  24
HETATM   24  C   UNL     1     -16.658 -59.086  26.721  1.00  0.00     0.034 A 
HETATM   25  C   UNL     1     -15.983 -59.572  25.600  1.00  0.00     0.045 A 
HETATM   26  C   UNL     1     -15.683 -58.716  24.541  1.00  0.00     0.050 A 
HETATM   27  C   UNL     1     -16.057 -57.373  24.602  1.00  0.00     0.016 A 
HETATM   28  C   UNL     1     -16.730 -56.886  25.722  1.00  0.00     0.003 A 
HETATM   29  C   UNL     1     -17.031 -57.743  26.782  1.00  0.00     0.029 A 
BRANCH  26  30
HETATM   30  C   UNL     1     -14.962 -59.235  23.343  1.00  0.00     0.417 C 
HETATM   31  F   UNL     1     -14.312 -60.415  23.564  1.00  0.00    -0.166 F 
HETATM   32  F   UNL     1     -15.779 -59.473  22.275  1.00  0.00    -0.166 F 
HETATM   33  F   UNL     1     -14.008 -58.370  22.889  1.00  0.00    -0.166 F 
ENDBRANCH  26  30
ENDBRANCH  22  24
ENDBRANCH   5  22
TORSDOF 7
ENDMDL
MODEL 9
REMARK VINA RESULT:      -5.9      2.685      4.196
REMARK  7 active torsions:
REMARK  status: ('A' for Active; 'I' for Inactive)
REMARK       I    between atoms: N_5  and  C_13 
REMARK    1  A    between atoms: N_5  and  C_14 
REMARK    2  A    between atoms: N_6  and  C_17 
REMARK    3  A    between atoms: N_6  and  C_20 
REMARK    4  A    between atoms: N_7  and  C_21 
REMARK    5  A    between atoms: N_7  and  C_23 
REMARK    6  A    between atoms: C_10  and  C_13 
REMARK    7  A    between atoms: C_24  and  C_29 
ROOT
HETATM    1  N   UNL     1     -18.027 -66.681  25.665  1.00  0.00    -0.224 NA
HETATM    2  N   UNL     1     -17.976 -64.449  24.758  1.00  0.00    -0.224 NA
HETATM    3  C   UNL     1     -17.307 -67.091  24.600  1.00  0.00     0.133 A 
HETATM    4  C   UNL     1     -16.891 -66.251  23.587  1.00  0.00     0.100 A 
HETATM    5  C   UNL     1     -17.256 -64.922  23.714  1.00  0.00     0.133 A 
HETATM    6  C   UNL     1     -18.322 -65.367  25.680  1.00  0.00     0.237 A 
ENDROOT
BRANCH   3   7
HETATM    7  N   UNL     1     -16.952 -68.458  24.502  1.00  0.00    -0.341 N 
HETATM    8  H   UNL     1     -16.032 -68.666  24.881  1.00  0.00     0.167 HD
BRANCH   7   9
HETATM    9  C   UNL     1     -17.627 -69.578  23.989  1.00  0.00     0.035 A 
HETATM   10  C   UNL     1     -18.512 -70.298  24.796  1.00  0.00     0.059 A 
HETATM   11  C   UNL     1     -19.182 -71.409  24.285  1.00  0.00     0.036 A 
HETATM   12  C   UNL     1     -18.970 -71.806  22.965  1.00  0.00     0.029 A 
HETATM   13  C   UNL     1     -18.088 -71.091  22.155  1.00  0.00     0.004 A 
HETATM   14  C   UNL     1     -17.416 -69.980  22.667  1.00  0.00     0.029 A 
BRANCH  11  15
HETATM   15  N   UNL     1     -20.067 -72.123  25.095  1.00  0.00    -0.327 N 
HETATM   16  C   UNL     1     -19.762 -73.052  26.093  1.00  0.00     0.226 C 
HETATM   17  O   UNL     1     -18.655 -73.425  26.458  1.00  0.00    -0.273 OA
HETATM   18  H   UNL     1     -21.053 -71.942  24.925  1.00  0.00     0.169 HD
BRANCH  16  19
HETATM   19  C   UNL     1     -20.966 -73.632  26.768  1.00  0.00     0.078 A 
HETATM   20  C   UNL     1     -22.052 -72.707  27.189  1.00  0.00     0.015 A 
HETATM   21  C   UNL     1     -21.166 -73.349  28.216  1.00  0.00     0.015 A 
ENDBRANCH  16  19
ENDBRANCH  11  15
ENDBRANCH   7   9
ENDBRANCH   3   7
BRANCH   5  22
HETATM   22  N   UNL     1     -16.850 -64.032  22.702  1.00  0.00    -0.341 N 
HETATM   23  H   UNL     1     -16.077 -64.392  22.146  1.00  0.00     0.167 HD
BRANCH  22  24
HETATM   24  C   UNL     1     -17.061 -62.652  22.502  1.00  0.00     0.034 A 
HETATM   25  C   UNL     1     -16.162 -61.724  23.028  1.00  0.00     0.045 A 
HETATM   26  C   UNL     1     -16.371 -60.360  22.829  1.00  0.00     0.050 A 
HETATM   27  C   UNL     1     -17.480 -59.923  22.105  1.00  0.00     0.016 A 
HETATM   28  C   UNL     1     -18.380 -60.850  21.579  1.00  0.00     0.003 A 
HETATM   29  C   UNL     1     -18.170 -62.215  21.778  1.00  0.00     0.029 A 
BRANCH  26  30
HETATM   30  C   UNL     1     -15.409 -59.368  23.391  1.00  0.00     0.417 C 
HETATM   31  F   UNL     1     -14.299 -59.182  22.618  1.00  0.00    -0.166 F 
HETATM   32  F   UNL     1     -15.943 -58.122  23.554  1.00  0.00    -0.166 F 
HETATM   33  F   UNL     1     -14.941 -59.729  24.622  1.00  0.00    -0.166 F 
ENDBRANCH  26  30
ENDBRANCH  22  24
ENDBRANCH   5  22
TORSDOF 7
ENDMDL
