MODEL 1
REMARK VINA RESULT:      -6.4      0.000      0.000
REMARK  7 active torsions:
REMARK  status: ('A' for Active; 'I' for Inactive)
REMARK       I    between atoms: N_5  and  C_13 
REMARK    1  A    between atoms: N_5  and  C_14 
REMARK    2  A    between atoms: N_6  and  C_17 
REMARK    3  A    between atoms: N_6  and  C_20 
REMARK    4  A    between atoms: N_7  and  C_21 
REMARK    5  A    between atoms: N_7  and  C_23 
REMARK    6  A    between atoms: C_10  and  C_13 
REMARK    7  A    between atoms: C_24  and  C_29 
ROOT
HETATM    1  N   UNL     1     -19.271 -63.966  22.886  1.00  0.00    -0.224 NA
HETATM    2  N   UNL     1     -19.409 -61.581  22.576  1.00  0.00    -0.224 NA
HETATM    3  C   UNL     1     -17.954 -63.889  22.603  1.00  0.00     0.133 A 
HETATM    4  C   UNL     1     -17.302 -62.711  22.302  1.00  0.00     0.100 A 
HETATM    5  C   UNL     1     -18.084 -61.570  22.301  1.00  0.00     0.133 A 
HETATM    6  C   UNL     1     -19.929 -62.792  22.854  1.00  0.00     0.237 A 
ENDROOT
BRANCH   3   7
HETATM    7  N   UNL     1     -17.183 -65.077  22.613  1.00  0.00    -0.341 N 
HETATM    8  H   UNL     1     -16.453 -65.092  21.906  1.00  0.00     0.167 HD
BRANCH   7   9
HETATM    9  C   UNL     1     -17.230 -66.231  23.412  1.00  0.00     0.035 A 
HETATM   10  C   UNL     1     -17.917 -67.366  22.972  1.00  0.00     0.059 A 
HETATM   11  C   UNL     1     -17.962 -68.511  23.766  1.00  0.00     0.036 A 
HETATM   12  C   UNL     1     -17.319 -68.528  25.004  1.00  0.00     0.029 A 
HETATM   13  C   UNL     1     -16.632 -67.398  25.448  1.00  0.00     0.004 A 
HETATM   14  C   UNL     1     -16.588 -66.252  24.654  1.00  0.00     0.029 A 
BRANCH  11  15
HETATM   15  N   UNL     1     -18.649 -69.642  23.322  1.00  0.00    -0.327 N 
HETATM   16  C   UNL     1     -18.246 -70.572  22.360  1.00  0.00     0.226 C 
HETATM   17  O   UNL     1     -17.207 -70.580  21.713  1.00  0.00    -0.273 OA
HETATM   18  H   UNL     1     -19.557 -69.796  23.755  1.00  0.00     0.169 HD
BRANCH  16  19
HETATM   19  C   UNL     1     -19.236 -71.670  22.128  1.00  0.00     0.078 A 
HETATM   20  C   UNL     1     -20.259 -71.931  23.177  1.00  0.00     0.015 A 
HETATM   21  C   UNL     1     -19.133 -72.899  22.963  1.00  0.00     0.015 A 
ENDBRANCH  16  19
ENDBRANCH  11  15
ENDBRANCH   7   9
ENDBRANCH   3   7
BRANCH   5  22
HETATM   22  N   UNL     1     -17.457 -60.346  21.998  1.00  0.00    -0.341 N 
HETATM   23  H   UNL     1     -17.414 -60.161  20.998  1.00  0.00     0.167 HD
BRANCH  22  24
HETATM   24  C   UNL     1     -16.611 -59.498  22.741  1.00  0.00     0.034 A 
HETATM   25  C   UNL     1     -17.150 -58.440  23.474  1.00  0.00     0.045 A 
HETATM   26  C   UNL     1     -16.312 -57.603  24.211  1.00  0.00     0.050 A 
HETATM   27  C   UNL     1     -14.935 -57.823  24.214  1.00  0.00     0.016 A 
HETATM   28  C   UNL     1     -14.395 -58.879  23.481  1.00  0.00     0.003 A 
HETATM   29  C   UNL     1     -15.233 -59.717  22.745  1.00  0.00     0.029 A 
BRANCH  26  30
HETATM   30  C   UNL     1     -16.889 -56.472  24.995  1.00  0.00     0.417 C 
HETATM   31  F   UNL     1     -16.657 -56.562  26.337  1.00  0.00    -0.166 F 
HETATM   32  F   UNL     1     -16.401 -55.250  24.630  1.00  0.00    -0.166 F 
HETATM   33  F   UNL     1     -18.245 -56.379  24.863  1.00  0.00    -0.166 F 
ENDBRANCH  26  30
ENDBRANCH  22  24
ENDBRANCH   5  22
TORSDOF 7
ENDMDL
MODEL 2
REMARK VINA RESULT:      -6.2      2.475      3.416
REMARK  7 active torsions:
REMARK  status: ('A' for Active; 'I' for Inactive)
REMARK       I    between atoms: N_5  and  C_13 
REMARK    1  A    between atoms: N_5  and  C_14 
REMARK    2  A    between atoms: N_6  and  C_17 
REMARK    3  A    between atoms: N_6  and  C_20 
REMARK    4  A    between atoms: N_7  and  C_21 
REMARK    5  A    between atoms: N_7  and  C_23 
REMARK    6  A    between atoms: C_10  and  C_13 
REMARK    7  A    between atoms: C_24  and  C_29 
ROOT
HETATM    1  N   UNL     1     -18.958 -65.811  24.866  1.00  0.00    -0.224 NA
HETATM    2  N   UNL     1     -17.774 -63.715  24.962  1.00  0.00    -0.224 NA
HETATM    3  C   UNL     1     -18.597 -65.912  23.569  1.00  0.00     0.133 A 
HETATM    4  C   UNL     1     -17.836 -64.969  22.909  1.00  0.00     0.100 A 
HETATM    5  C   UNL     1     -17.445 -63.874  23.659  1.00  0.00     0.133 A 
HETATM    6  C   UNL     1     -18.519 -64.703  25.492  1.00  0.00     0.237 A 
ENDROOT
BRANCH   3   7
HETATM    7  N   UNL     1     -19.016 -67.046  22.831  1.00  0.00    -0.341 N 
HETATM    8  H   UNL     1     -19.821 -66.868  22.237  1.00  0.00     0.167 HD
BRANCH   7   9
HETATM    9  C   UNL     1     -18.530 -68.362  22.757  1.00  0.00     0.035 A 
HETATM   10  C   UNL     1     -18.506 -69.169  23.897  1.00  0.00     0.059 A 
HETATM   11  C   UNL     1     -18.024 -70.475  23.822  1.00  0.00     0.036 A 
HETATM   12  C   UNL     1     -17.564 -70.981  22.606  1.00  0.00     0.029 A 
HETATM   13  C   UNL     1     -17.586 -70.179  21.465  1.00  0.00     0.004 A 
HETATM   14  C   UNL     1     -18.067 -68.872  21.541  1.00  0.00     0.029 A 
BRANCH  11  15
HETATM   15  N   UNL     1     -18.003 -71.278  24.964  1.00  0.00    -0.327 N 
HETATM   16  C   UNL     1     -18.952 -72.217  25.374  1.00  0.00     0.226 C 
HETATM   17  O   UNL     1     -19.995 -72.524  24.812  1.00  0.00    -0.273 OA
HETATM   18  H   UNL     1     -17.194 -71.152  25.568  1.00  0.00     0.169 HD
BRANCH  16  19
HETATM   19  C   UNL     1     -18.608 -72.904  26.659  1.00  0.00     0.078 A 
HETATM   20  C   UNL     1     -19.640 -72.956  27.729  1.00  0.00     0.015 A 
HETATM   21  C   UNL     1     -18.439 -72.070  27.880  1.00  0.00     0.015 A 
ENDBRANCH  16  19
ENDBRANCH  11  15
ENDBRANCH   7   9
ENDBRANCH   3   7
BRANCH   5  22
HETATM   22  N   UNL     1     -16.667 -62.889  23.023  1.00  0.00    -0.341 N 
HETATM   23  H   UNL     1     -15.731 -63.213  22.790  1.00  0.00     0.167 HD
BRANCH  22  24
HETATM   24  C   UNL     1     -16.790 -61.487  22.931  1.00  0.00     0.034 A 
HETATM   25  C   UNL     1     -15.782 -60.663  23.432  1.00  0.00     0.045 A 
HETATM   26  C   UNL     1     -15.904 -59.277  23.339  1.00  0.00     0.050 A 
HETATM   27  C   UNL     1     -17.034 -58.714  22.747  1.00  0.00     0.016 A 
HETATM   28  C   UNL     1     -18.043 -59.537  22.246  1.00  0.00     0.003 A 
HETATM   29  C   UNL     1     -17.920 -60.924  22.339  1.00  0.00     0.029 A 
BRANCH  26  30
HETATM   30  C   UNL     1     -14.826 -58.395  23.875  1.00  0.00     0.417 C 
HETATM   31  F   UNL     1     -13.717 -58.342  23.080  1.00  0.00    -0.166 F 
HETATM   32  F   UNL     1     -15.213 -57.095  24.034  1.00  0.00    -0.166 F 
HETATM   33  F   UNL     1     -14.379 -58.798  25.101  1.00  0.00    -0.166 F 
ENDBRANCH  26  30
ENDBRANCH  22  24
ENDBRANCH   5  22
TORSDOF 7
ENDMDL
MODEL 3
REMARK VINA RESULT:      -6.2      5.572     11.051
REMARK  7 active torsions:
REMARK  status: ('A' for Active; 'I' for Inactive)
REMARK       I    between atoms: N_5  and  C_13 
REMARK    1  A    between atoms: N_5  and  C_14 
REMARK    2  A    between atoms: N_6  and  C_17 
REMARK    3  A    between atoms: N_6  and  C_20 
REMARK    4  A    between atoms: N_7  and  C_21 
REMARK    5  A    between atoms: N_7  and  C_23 
REMARK    6  A    between atoms: C_10  and  C_13 
REMARK    7  A    between atoms: C_24  and  C_29 
ROOT
HETATM    1  N   UNL     1     -19.456 -61.736  22.209  1.00  0.00    -0.224 NA
HETATM    2  N   UNL     1     -19.163 -64.082  22.679  1.00  0.00    -0.224 NA
HETATM    3  C   UNL     1     -18.113 -61.609  22.198  1.00  0.00     0.133 A 
HETATM    4  C   UNL     1     -17.241 -62.657  22.415  1.00  0.00     0.100 A 
HETATM    5  C   UNL     1     -17.823 -63.888  22.655  1.00  0.00     0.133 A 
HETATM    6  C   UNL     1     -19.906 -62.982  22.454  1.00  0.00     0.237 A 
ENDROOT
BRANCH   3   7
HETATM    7  N   UNL     1     -17.550 -60.333  21.950  1.00  0.00    -0.341 N 
HETATM    8  H   UNL     1     -17.802 -59.949  21.043  1.00  0.00     0.167 HD
BRANCH   7   9
HETATM    9  C   UNL     1     -16.721 -59.497  22.716  1.00  0.00     0.035 A 
HETATM   10  C   UNL     1     -17.271 -58.451  23.462  1.00  0.00     0.059 A 
HETATM   11  C   UNL     1     -16.446 -57.623  24.223  1.00  0.00     0.036 A 
HETATM   12  C   UNL     1     -15.068 -57.838  24.242  1.00  0.00     0.029 A 
HETATM   13  C   UNL     1     -14.514 -58.881  23.500  1.00  0.00     0.004 A 
HETATM   14  C   UNL     1     -15.339 -59.709  22.738  1.00  0.00     0.029 A 
BRANCH  11  15
HETATM   15  N   UNL     1     -17.000 -56.580  24.967  1.00  0.00    -0.327 N 
HETATM   16  C   UNL     1     -16.743 -55.212  24.855  1.00  0.00     0.226 C 
HETATM   17  O   UNL     1     -15.980 -54.653  24.078  1.00  0.00    -0.273 OA
HETATM   18  H   UNL     1     -17.668 -56.863  25.681  1.00  0.00     0.169 HD
BRANCH  16  19
HETATM   19  C   UNL     1     -17.519 -54.369  25.819  1.00  0.00     0.078 A 
HETATM   20  C   UNL     1     -16.834 -53.210  26.451  1.00  0.00     0.015 A 
HETATM   21  C   UNL     1     -17.154 -54.432  27.261  1.00  0.00     0.015 A 
ENDBRANCH  16  19
ENDBRANCH  11  15
ENDBRANCH   7   9
ENDBRANCH   3   7
BRANCH   5  22
HETATM   22  N   UNL     1     -16.968 -64.984  22.881  1.00  0.00    -0.341 N 
HETATM   23  H   UNL     1     -16.059 -64.874  22.437  1.00  0.00     0.167 HD
BRANCH  22  24
HETATM   24  C   UNL     1     -17.205 -66.308  23.305  1.00  0.00     0.034 A 
HETATM   25  C   UNL     1     -17.406 -67.318  22.365  1.00  0.00     0.045 A 
HETATM   26  C   UNL     1     -17.638 -68.627  22.785  1.00  0.00     0.050 A 
HETATM   27  C   UNL     1     -17.669 -68.927  24.147  1.00  0.00     0.016 A 
HETATM   28  C   UNL     1     -17.469 -67.917  25.089  1.00  0.00     0.003 A 
HETATM   29  C   UNL     1     -17.236 -66.608  24.667  1.00  0.00     0.029 A 
BRANCH  26  30
HETATM   30  C   UNL     1     -17.854 -69.708  21.779  1.00  0.00     0.417 C 
HETATM   31  F   UNL     1     -17.368 -70.923  22.169  1.00  0.00    -0.166 F 
HETATM   32  F   UNL     1     -19.169 -69.926  21.486  1.00  0.00    -0.166 F 
HETATM   33  F   UNL     1     -17.252 -69.439  20.583  1.00  0.00    -0.166 F 
ENDBRANCH  26  30
ENDBRANCH  22  24
ENDBRANCH   5  22
TORSDOF 7
ENDMDL
MODEL 4
REMARK VINA RESULT:      -6.1      1.647      2.186
REMARK  7 active torsions:
REMARK  status: ('A' for Active; 'I' for Inactive)
REMARK       I    between atoms: N_5  and  C_13 
REMARK    1  A    between atoms: N_5  and  C_14 
REMARK    2  A    between atoms: N_6  and  C_17 
REMARK    3  A    between atoms: N_6  and  C_20 
REMARK    4  A    between atoms: N_7  and  C_21 
REMARK    5  A    between atoms: N_7  and  C_23 
REMARK    6  A    between atoms: C_10  and  C_13 
REMARK    7  A    between atoms: C_24  and  C_29 
ROOT
HETATM    1  N   UNL     1     -19.747 -63.712  24.514  1.00  0.00    -0.224 NA
HETATM    2  N   UNL     1     -19.161 -62.162  22.764  1.00  0.00    -0.224 NA
HETATM    3  C   UNL     1     -18.523 -63.516  25.047  1.00  0.00     0.133 A 
HETATM    4  C   UNL     1     -17.577 -62.669  24.505  1.00  0.00     0.100 A 
HETATM    5  C   UNL     1     -17.950 -62.008  23.348  1.00  0.00     0.133 A 
HETATM    6  C   UNL     1     -19.995 -63.015  23.389  1.00  0.00     0.237 A 
ENDROOT
BRANCH   3   7
HETATM    7  N   UNL     1     -18.175 -64.210  26.232  1.00  0.00    -0.341 N 
HETATM    8  H   UNL     1     -18.185 -63.624  27.062  1.00  0.00     0.167 HD
BRANCH   7   9
HETATM    9  C   UNL     1     -17.828 -65.548  26.478  1.00  0.00     0.035 A 
HETATM   10  C   UNL     1     -17.587 -66.421  25.414  1.00  0.00     0.059 A 
HETATM   11  C   UNL     1     -17.240 -67.749  25.660  1.00  0.00     0.036 A 
HETATM   12  C   UNL     1     -17.133 -68.211  26.972  1.00  0.00     0.029 A 
HETATM   13  C   UNL     1     -17.372 -67.344  28.038  1.00  0.00     0.004 A 
HETATM   14  C   UNL     1     -17.720 -66.015  27.791  1.00  0.00     0.029 A 
BRANCH  11  15
HETATM   15  N   UNL     1     -17.000 -68.617  24.594  1.00  0.00    -0.327 N 
HETATM   16  C   UNL     1     -17.867 -69.561  24.039  1.00  0.00     0.226 C 
HETATM   17  O   UNL     1     -19.015 -69.815  24.377  1.00  0.00    -0.273 OA
HETATM   18  H   UNL     1     -16.072 -68.550  24.181  1.00  0.00     0.169 HD
BRANCH  16  19
HETATM   19  C   UNL     1     -17.277 -70.326  22.895  1.00  0.00     0.078 A 
HETATM   20  C   UNL     1     -17.500 -69.816  21.516  1.00  0.00     0.015 A 
HETATM   21  C   UNL     1     -18.202 -71.056  21.985  1.00  0.00     0.015 A 
ENDBRANCH  16  19
ENDBRANCH  11  15
ENDBRANCH   7   9
ENDBRANCH   3   7
BRANCH   5  22
HETATM   22  N   UNL     1     -17.013 -61.135  22.763  1.00  0.00    -0.341 N 
HETATM   23  H   UNL     1     -16.554 -61.536  21.948  1.00  0.00     0.167 HD
BRANCH  22  24
HETATM   24  C   UNL     1     -16.356 -59.981  23.238  1.00  0.00     0.034 A 
HETATM   25  C   UNL     1     -17.073 -59.004  23.930  1.00  0.00     0.045 A 
HETATM   26  C   UNL     1     -16.423 -57.865  24.402  1.00  0.00     0.050 A 
HETATM   27  C   UNL     1     -15.055 -57.700  24.181  1.00  0.00     0.016 A 
HETATM   28  C   UNL     1     -14.338 -58.676  23.489  1.00  0.00     0.003 A 
HETATM   29  C   UNL     1     -14.989 -59.817  23.018  1.00  0.00     0.029 A 
BRANCH  26  30
HETATM   30  C   UNL     1     -17.189 -56.820  25.141  1.00  0.00     0.417 C 
HETATM   31  F   UNL     1     -17.274 -55.630  24.477  1.00  0.00    -0.166 F 
HETATM   32  F   UNL     1     -18.481 -57.174  25.405  1.00  0.00    -0.166 F 
HETATM   33  F   UNL     1     -16.636 -56.523  26.354  1.00  0.00    -0.166 F 
ENDBRANCH  26  30
ENDBRANCH  22  24
ENDBRANCH   5  22
TORSDOF 7
ENDMDL
MODEL 5
REMARK VINA RESULT:      -6.0      5.946     11.197
REMARK  7 active torsions:
REMARK  status: ('A' for Active; 'I' for Inactive)
REMARK       I    between atoms: N_5  and  C_13 
REMARK    1  A    between atoms: N_5  and  C_14 
REMARK    2  A    between atoms: N_6  and  C_17 
REMARK    3  A    between atoms: N_6  and  C_20 
REMARK    4  A    between atoms: N_7  and  C_21 
REMARK    5  A    between atoms: N_7  and  C_23 
REMARK    6  A    between atoms: C_10  and  C_13 
REMARK    7  A    between atoms: C_24  and  C_29 
ROOT
HETATM    1  N   UNL     1     -18.690 -64.722  24.162  1.00  0.00    -0.224 NA
HETATM    2  N   UNL     1     -18.829 -67.012  24.899  1.00  0.00    -0.224 NA
HETATM    3  C   UNL     1     -17.586 -65.054  23.461  1.00  0.00     0.133 A 
HETATM    4  C   UNL     1     -17.050 -66.326  23.430  1.00  0.00     0.100 A 
HETATM    5  C   UNL     1     -17.717 -67.281  24.176  1.00  0.00     0.133 A 
HETATM    6  C   UNL     1     -19.252 -65.735  24.849  1.00  0.00     0.237 A 
ENDROOT
BRANCH   3   7
HETATM    7  N   UNL     1     -16.927 -64.050  22.709  1.00  0.00    -0.341 N 
HETATM    8  H   UNL     1     -16.018 -64.338  22.359  1.00  0.00     0.167 HD
BRANCH   7   9
HETATM    9  C   UNL     1     -17.292 -62.742  22.351  1.00  0.00     0.035 A 
HETATM   10  C   UNL     1     -16.846 -61.655  23.108  1.00  0.00     0.059 A 
HETATM   11  C   UNL     1     -17.207 -60.356  22.751  1.00  0.00     0.036 A 
HETATM   12  C   UNL     1     -18.016 -60.138  21.635  1.00  0.00     0.029 A 
HETATM   13  C   UNL     1     -18.463 -61.220  20.876  1.00  0.00     0.004 A 
HETATM   14  C   UNL     1     -18.102 -62.519  21.234  1.00  0.00     0.029 A 
BRANCH  11  15
HETATM   15  N   UNL     1     -16.759 -59.273  23.509  1.00  0.00    -0.327 N 
HETATM   16  C   UNL     1     -15.470 -58.739  23.569  1.00  0.00     0.226 C 
HETATM   17  O   UNL     1     -14.473 -59.114  22.966  1.00  0.00    -0.273 OA
HETATM   18  H   UNL     1     -17.467 -58.829  24.090  1.00  0.00     0.169 HD
BRANCH  16  19
HETATM   19  C   UNL     1     -15.343 -57.568  24.493  1.00  0.00     0.078 A 
HETATM   20  C   UNL     1     -16.293 -57.463  25.634  1.00  0.00     0.015 A 
HETATM   21  C   UNL     1     -16.409 -56.529  24.465  1.00  0.00     0.015 A 
ENDBRANCH  16  19
ENDBRANCH  11  15
ENDBRANCH   7   9
ENDBRANCH   3   7
BRANCH   5  22
HETATM   22  N   UNL     1     -17.203 -68.592  24.171  1.00  0.00    -0.341 N 
HETATM   23  H   UNL     1     -16.199 -68.623  24.334  1.00  0.00     0.167 HD
BRANCH  22  24
HETATM   24  C   UNL     1     -17.709 -69.814  23.681  1.00  0.00     0.034 A 
HETATM   25  C   UNL     1     -18.337 -70.708  24.548  1.00  0.00     0.045 A 
HETATM   26  C   UNL     1     -18.838 -71.915  24.062  1.00  0.00     0.050 A 
HETATM   27  C   UNL     1     -18.711 -72.229  22.709  1.00  0.00     0.016 A 
HETATM   28  C   UNL     1     -18.083 -71.335  21.841  1.00  0.00     0.003 A 
HETATM   29  C   UNL     1     -17.582 -70.127  22.328  1.00  0.00     0.029 A 
BRANCH  26  30
HETATM   30  C   UNL     1     -19.510 -72.872  24.989  1.00  0.00     0.417 C 
HETATM   31  F   UNL     1     -18.707 -73.902  25.388  1.00  0.00    -0.166 F 
HETATM   32  F   UNL     1     -19.950 -72.294  26.145  1.00  0.00    -0.166 F 
HETATM   33  F   UNL     1     -20.609 -73.459  24.431  1.00  0.00    -0.166 F 
ENDBRANCH  26  30
ENDBRANCH  22  24
ENDBRANCH   5  22
TORSDOF 7
ENDMDL
MODEL 6
REMARK VINA RESULT:      -5.9      6.048     10.941
REMARK  7 active torsions:
REMARK  status: ('A' for Active; 'I' for Inactive)
REMARK       I    between atoms: N_5  and  C_13 
REMARK    1  A    between atoms: N_5  and  C_14 
REMARK    2  A    between atoms: N_6  and  C_17 
REMARK    3  A    between atoms: N_6  and  C_20 
REMARK    4  A    between atoms: N_7  and  C_21 
REMARK    5  A    between atoms: N_7  and  C_23 
REMARK    6  A    between atoms: C_10  and  C_13 
REMARK    7  A    between atoms: C_24  and  C_29 
ROOT
HETATM    1  N   UNL     1     -18.676 -64.729  23.545  1.00  0.00    -0.224 NA
HETATM    2  N   UNL     1     -18.821 -67.076  24.071  1.00  0.00    -0.224 NA
HETATM    3  C   UNL     1     -17.613 -65.008  22.762  1.00  0.00     0.133 A 
HETATM    4  C   UNL     1     -17.104 -66.278  22.586  1.00  0.00     0.100 A 
HETATM    5  C   UNL     1     -17.751 -67.290  23.271  1.00  0.00     0.133 A 
HETATM    6  C   UNL     1     -19.223 -65.794  24.161  1.00  0.00     0.237 A 
ENDROOT
BRANCH   3   7
HETATM    7  N   UNL     1     -16.974 -63.946  22.076  1.00  0.00    -0.341 N 
HETATM    8  H   UNL     1     -16.259 -64.258  21.424  1.00  0.00     0.167 HD
BRANCH   7   9
HETATM    9  C   UNL     1     -17.142 -62.552  22.119  1.00  0.00     0.035 A 
HETATM   10  C   UNL     1     -18.033 -61.923  21.245  1.00  0.00     0.059 A 
HETATM   11  C   UNL     1     -18.200 -60.540  21.289  1.00  0.00     0.036 A 
HETATM   12  C   UNL     1     -17.477 -59.778  22.208  1.00  0.00     0.029 A 
HETATM   13  C   UNL     1     -16.587 -60.401  23.083  1.00  0.00     0.004 A 
HETATM   14  C   UNL     1     -16.419 -61.786  23.038  1.00  0.00     0.029 A 
BRANCH  11  15
HETATM   15  N   UNL     1     -19.091 -59.916  20.415  1.00  0.00    -0.327 N 
HETATM   16  C   UNL     1     -20.376 -59.443  20.687  1.00  0.00     0.226 C 
HETATM   17  O   UNL     1     -20.980 -59.481  21.752  1.00  0.00    -0.273 OA
HETATM   18  H   UNL     1     -18.754 -59.801  19.461  1.00  0.00     0.169 HD
BRANCH  16  19
HETATM   19  C   UNL     1     -21.057 -58.823  19.507  1.00  0.00     0.078 A 
HETATM   20  C   UNL     1     -20.279 -57.879  18.660  1.00  0.00     0.015 A 
HETATM   21  C   UNL     1     -21.368 -57.369  19.557  1.00  0.00     0.015 A 
ENDBRANCH  16  19
ENDBRANCH  11  15
ENDBRANCH   7   9
ENDBRANCH   3   7
BRANCH   5  22
HETATM   22  N   UNL     1     -17.262 -68.602  23.117  1.00  0.00    -0.341 N 
HETATM   23  H   UNL     1     -16.338 -68.632  22.692  1.00  0.00     0.167 HD
BRANCH  22  24
HETATM   24  C   UNL     1     -17.893 -69.863  23.127  1.00  0.00     0.034 A 
HETATM   25  C   UNL     1     -18.097 -70.533  24.333  1.00  0.00     0.045 A 
HETATM   26  C   UNL     1     -18.722 -71.780  24.341  1.00  0.00     0.050 A 
HETATM   27  C   UNL     1     -19.143 -72.357  23.143  1.00  0.00     0.016 A 
HETATM   28  C   UNL     1     -18.939 -71.688  21.937  1.00  0.00     0.003 A 
HETATM   29  C   UNL     1     -18.314 -70.440  21.929  1.00  0.00     0.029 A 
BRANCH  26  30
HETATM   30  C   UNL     1     -18.940 -72.497  25.631  1.00  0.00     0.417 C 
HETATM   31  F   UNL     1     -17.990 -72.229  26.574  1.00  0.00    -0.166 F 
HETATM   32  F   UNL     1     -20.130 -72.195  26.229  1.00  0.00    -0.166 F 
HETATM   33  F   UNL     1     -18.938 -73.854  25.484  1.00  0.00    -0.166 F 
ENDBRANCH  26  30
ENDBRANCH  22  24
ENDBRANCH   5  22
TORSDOF 7
ENDMDL
MODEL 7
REMARK VINA RESULT:      -5.8      4.757     10.458
REMARK  7 active torsions:
REMARK  status: ('A' for Active; 'I' for Inactive)
REMARK       I    between atoms: N_5  and  C_13 
REMARK    1  A    between atoms: N_5  and  C_14 
REMARK    2  A    between atoms: N_6  and  C_17 
REMARK    3  A    between atoms: N_6  and  C_20 
REMARK    4  A    between atoms: N_7  and  C_21 
REMARK    5  A    between atoms: N_7  and  C_23 
REMARK    6  A    between atoms: C_10  and  C_13 
REMARK    7  A    between atoms: C_24  and  C_29 
ROOT
HETATM    1  N   UNL     1     -19.447 -61.548  22.348  1.00  0.00    -0.224 NA
HETATM    2  N   UNL     1     -19.255 -63.919  22.736  1.00  0.00    -0.224 NA
HETATM    3  C   UNL     1     -18.102 -61.491  22.260  1.00  0.00     0.133 A 
HETATM    4  C   UNL     1     -17.277 -62.590  22.396  1.00  0.00     0.100 A 
HETATM    5  C   UNL     1     -17.911 -63.796  22.636  1.00  0.00     0.133 A 
HETATM    6  C   UNL     1     -19.949 -62.775  22.585  1.00  0.00     0.237 A 
ENDROOT
BRANCH   3   7
HETATM    7  N   UNL     1     -17.486 -60.240  22.014  1.00  0.00    -0.341 N 
HETATM    8  H   UNL     1     -17.734 -59.837  21.114  1.00  0.00     0.167 HD
BRANCH   7   9
HETATM    9  C   UNL     1     -16.608 -59.450  22.773  1.00  0.00     0.035 A 
HETATM   10  C   UNL     1     -17.107 -58.456  23.619  1.00  0.00     0.059 A 
HETATM   11  C   UNL     1     -16.235 -57.673  24.374  1.00  0.00     0.036 A 
HETATM   12  C   UNL     1     -14.858 -57.880  24.287  1.00  0.00     0.029 A 
HETATM   13  C   UNL     1     -14.354 -58.871  23.445  1.00  0.00     0.004 A 
HETATM   14  C   UNL     1     -15.227 -59.654  22.689  1.00  0.00     0.029 A 
BRANCH  11  15
HETATM   15  N   UNL     1     -16.738 -56.682  25.218  1.00  0.00    -0.327 N 
HETATM   16  C   UNL     1     -17.270 -55.439  24.866  1.00  0.00     0.226 C 
HETATM   17  O   UNL     1     -17.401 -54.970  23.743  1.00  0.00    -0.273 OA
HETATM   18  H   UNL     1     -16.704 -56.900  26.212  1.00  0.00     0.169 HD
BRANCH  16  19
HETATM   19  C   UNL     1     -17.720 -54.620  26.035  1.00  0.00     0.078 A 
HETATM   20  C   UNL     1     -16.719 -53.756  26.718  1.00  0.00     0.015 A 
HETATM   21  C   UNL     1     -17.230 -54.997  27.389  1.00  0.00     0.015 A 
ENDBRANCH  16  19
ENDBRANCH  11  15
ENDBRANCH   7   9
ENDBRANCH   3   7
BRANCH   5  22
HETATM   22  N   UNL     1     -17.105 -64.942  22.781  1.00  0.00    -0.341 N 
HETATM   23  H   UNL     1     -16.357 -64.988  22.092  1.00  0.00     0.167 HD
BRANCH  22  24
HETATM   24  C   UNL     1     -17.301 -66.168  23.449  1.00  0.00     0.034 A 
HETATM   25  C   UNL     1     -17.223 -66.226  24.840  1.00  0.00     0.045 A 
HETATM   26  C   UNL     1     -17.418 -67.439  25.500  1.00  0.00     0.050 A 
HETATM   27  C   UNL     1     -17.690 -68.595  24.769  1.00  0.00     0.016 A 
HETATM   28  C   UNL     1     -17.768 -68.538  23.378  1.00  0.00     0.003 A 
HETATM   29  C   UNL     1     -17.574 -67.324  22.717  1.00  0.00     0.029 A 
BRANCH  26  30
HETATM   30  C   UNL     1     -17.334 -67.501  26.989  1.00  0.00     0.417 C 
HETATM   31  F   UNL     1     -16.635 -66.466  27.541  1.00  0.00    -0.166 F 
HETATM   32  F   UNL     1     -18.552 -67.478  27.605  1.00  0.00    -0.166 F 
HETATM   33  F   UNL     1     -16.720 -68.636  27.433  1.00  0.00    -0.166 F 
ENDBRANCH  26  30
ENDBRANCH  22  24
ENDBRANCH   5  22
TORSDOF 7
ENDMDL
MODEL 8
REMARK VINA RESULT:      -5.7      2.200      2.889
REMARK  7 active torsions:
REMARK  status: ('A' for Active; 'I' for Inactive)
REMARK       I    between atoms: N_5  and  C_13 
REMARK    1  A    between atoms: N_5  and  C_14 
REMARK    2  A    between atoms: N_6  and  C_17 
REMARK    3  A    between atoms: N_6  and  C_20 
REMARK    4  A    between atoms: N_7  and  C_21 
REMARK    5  A    between atoms: N_7  and  C_23 
REMARK    6  A    between atoms: C_10  and  C_13 
REMARK    7  A    between atoms: C_24  and  C_29 
ROOT
HETATM    1  N   UNL     1     -18.036 -62.086  21.302  1.00  0.00    -0.224 NA
HETATM    2  N   UNL     1     -17.547 -59.851  22.060  1.00  0.00    -0.224 NA
HETATM    3  C   UNL     1     -17.120 -62.544  22.180  1.00  0.00     0.133 A 
HETATM    4  C   UNL     1     -16.388 -61.730  23.020  1.00  0.00     0.100 A 
HETATM    5  C   UNL     1     -16.642 -60.373  22.919  1.00  0.00     0.133 A 
HETATM    6  C   UNL     1     -18.196 -60.749  21.294  1.00  0.00     0.237 A 
ENDROOT
BRANCH   3   7
HETATM    7  N   UNL     1     -16.886 -63.939  22.256  1.00  0.00    -0.341 N 
HETATM    8  H   UNL     1     -16.075 -64.243  21.723  1.00  0.00     0.167 HD
BRANCH   7   9
HETATM    9  C   UNL     1     -17.551 -64.977  22.929  1.00  0.00     0.035 A 
HETATM   10  C   UNL     1     -17.700 -66.227  22.322  1.00  0.00     0.059 A 
HETATM   11  C   UNL     1     -18.360 -67.257  22.992  1.00  0.00     0.036 A 
HETATM   12  C   UNL     1     -18.874 -67.042  24.271  1.00  0.00     0.029 A 
HETATM   13  C   UNL     1     -18.727 -65.796  24.880  1.00  0.00     0.004 A 
HETATM   14  C   UNL     1     -18.068 -64.765  24.210  1.00  0.00     0.029 A 
BRANCH  11  15
HETATM   15  N   UNL     1     -18.506 -68.505  22.383  1.00  0.00    -0.327 N 
HETATM   16  C   UNL     1     -17.942 -69.723  22.769  1.00  0.00     0.226 C 
HETATM   17  O   UNL     1     -17.206 -69.940  23.722  1.00  0.00    -0.273 OA
HETATM   18  H   UNL     1     -19.094 -68.516  21.552  1.00  0.00     0.169 HD
BRANCH  16  19
HETATM   19  C   UNL     1     -18.313 -70.870  21.881  1.00  0.00     0.078 A 
HETATM   20  C   UNL     1     -19.736 -71.300  21.841  1.00  0.00     0.015 A 
HETATM   21  C   UNL     1     -18.707 -72.155  22.519  1.00  0.00     0.015 A 
ENDBRANCH  16  19
ENDBRANCH  11  15
ENDBRANCH   7   9
ENDBRANCH   3   7
BRANCH   5  22
HETATM   22  N   UNL     1     -15.916 -59.508  23.760  1.00  0.00    -0.341 N 
HETATM   23  H   UNL     1     -14.910 -59.646  23.694  1.00  0.00     0.167 HD
BRANCH  22  24
HETATM   24  C   UNL     1     -16.283 -58.735  24.881  1.00  0.00     0.034 A 
HETATM   25  C   UNL     1     -16.458 -59.345  26.123  1.00  0.00     0.045 A 
HETATM   26  C   UNL     1     -16.819 -58.579  27.231  1.00  0.00     0.050 A 
HETATM   27  C   UNL     1     -17.007 -57.203  27.097  1.00  0.00     0.016 A 
HETATM   28  C   UNL     1     -16.833 -56.593  25.856  1.00  0.00     0.003 A 
HETATM   29  C   UNL     1     -16.470 -57.359  24.747  1.00  0.00     0.029 A 
BRANCH  26  30
HETATM   30  C   UNL     1     -17.006 -59.231  28.560  1.00  0.00     0.417 C 
HETATM   31  F   UNL     1     -16.748 -58.406  29.616  1.00  0.00    -0.166 F 
HETATM   32  F   UNL     1     -18.275 -59.691  28.768  1.00  0.00    -0.166 F 
HETATM   33  F   UNL     1     -16.191 -60.313  28.733  1.00  0.00    -0.166 F 
ENDBRANCH  26  30
ENDBRANCH  22  24
ENDBRANCH   5  22
TORSDOF 7
ENDMDL
MODEL 9
REMARK VINA RESULT:      -5.6      2.026      2.639
REMARK  7 active torsions:
REMARK  status: ('A' for Active; 'I' for Inactive)
REMARK       I    between atoms: N_5  and  C_13 
REMARK    1  A    between atoms: N_5  and  C_14 
REMARK    2  A    between atoms: N_6  and  C_17 
REMARK    3  A    between atoms: N_6  and  C_20 
REMARK    4  A    between atoms: N_7  and  C_21 
REMARK    5  A    between atoms: N_7  and  C_23 
REMARK    6  A    between atoms: C_10  and  C_13 
REMARK    7  A    between atoms: C_24  and  C_29 
ROOT
HETATM    1  N   UNL     1     -21.391 -63.975  21.548  1.00  0.00    -0.224 NA
HETATM    2  N   UNL     1     -20.667 -62.058  20.281  1.00  0.00    -0.224 NA
HETATM    3  C   UNL     1     -20.336 -63.786  22.367  1.00  0.00     0.133 A 
HETATM    4  C   UNL     1     -19.417 -62.769  22.211  1.00  0.00     0.100 A 
HETATM    5  C   UNL     1     -19.629 -61.921  21.138  1.00  0.00     0.133 A 
HETATM    6  C   UNL     1     -21.494 -63.088  20.540  1.00  0.00     0.237 A 
ENDROOT
BRANCH   3   7
HETATM    7  N   UNL     1     -20.149 -64.673  23.455  1.00  0.00    -0.341 N 
HETATM    8  H   UNL     1     -20.940 -64.705  24.093  1.00  0.00     0.167 HD
BRANCH   7   9
HETATM    9  C   UNL     1     -19.088 -65.520  23.816  1.00  0.00     0.035 A 
HETATM   10  C   UNL     1     -19.119 -66.874  23.473  1.00  0.00     0.059 A 
HETATM   11  C   UNL     1     -18.064 -67.713  23.831  1.00  0.00     0.036 A 
HETATM   12  C   UNL     1     -16.973 -67.201  24.533  1.00  0.00     0.029 A 
HETATM   13  C   UNL     1     -16.936 -65.850  24.878  1.00  0.00     0.004 A 
HETATM   14  C   UNL     1     -17.993 -65.011  24.520  1.00  0.00     0.029 A 
BRANCH  11  15
HETATM   15  N   UNL     1     -18.099 -69.065  23.486  1.00  0.00    -0.327 N 
HETATM   16  C   UNL     1     -18.083 -69.628  22.208  1.00  0.00     0.226 C 
HETATM   17  O   UNL     1     -18.034 -69.046  21.132  1.00  0.00    -0.273 OA
HETATM   18  H   UNL     1     -18.148 -69.712  24.270  1.00  0.00     0.169 HD
BRANCH  16  19
HETATM   19  C   UNL     1     -18.132 -71.124  22.205  1.00  0.00     0.078 A 
HETATM   20  C   UNL     1     -19.411 -71.788  21.835  1.00  0.00     0.015 A 
HETATM   21  C   UNL     1     -18.935 -71.805  23.257  1.00  0.00     0.015 A 
ENDBRANCH  16  19
ENDBRANCH  11  15
ENDBRANCH   7   9
ENDBRANCH   3   7
BRANCH   5  22
HETATM   22  N   UNL     1     -18.713 -60.870  20.943  1.00  0.00    -0.341 N 
HETATM   23  H   UNL     1     -18.202 -60.948  20.066  1.00  0.00     0.167 HD
BRANCH  22  24
HETATM   24  C   UNL     1     -18.132 -59.934  21.824  1.00  0.00     0.034 A 
HETATM   25  C   UNL     1     -16.807 -60.086  22.232  1.00  0.00     0.045 A 
HETATM   26  C   UNL     1     -16.233 -59.159  23.101  1.00  0.00     0.050 A 
HETATM   27  C   UNL     1     -16.985 -58.079  23.563  1.00  0.00     0.016 A 
HETATM   28  C   UNL     1     -18.310 -57.926  23.156  1.00  0.00     0.003 A 
HETATM   29  C   UNL     1     -18.884 -58.853  22.286  1.00  0.00     0.029 A 
BRANCH  26  30
HETATM   30  C   UNL     1     -14.816 -59.322  23.537  1.00  0.00     0.417 C 
HETATM   31  F   UNL     1     -14.582 -58.889  24.811  1.00  0.00    -0.166 F 
HETATM   32  F   UNL     1     -14.384 -60.618  23.516  1.00  0.00    -0.166 F 
HETATM   33  F   UNL     1     -13.941 -58.631  22.749  1.00  0.00    -0.166 F 
ENDBRANCH  26  30
ENDBRANCH  22  24
ENDBRANCH   5  22
TORSDOF 7
ENDMDL
