MODEL 1
REMARK VINA RESULT:      -6.3      0.000      0.000
REMARK  7 active torsions:
REMARK  status: ('A' for Active; 'I' for Inactive)
REMARK       I    between atoms: N_5  and  C_13 
REMARK    1  A    between atoms: N_5  and  C_14 
REMARK    2  A    between atoms: N_6  and  C_17 
REMARK    3  A    between atoms: N_6  and  C_20 
REMARK    4  A    between atoms: N_7  and  C_21 
REMARK    5  A    between atoms: N_7  and  C_23 
REMARK    6  A    between atoms: C_10  and  C_13 
REMARK    7  A    between atoms: C_24  and  C_29 
ROOT
HETATM    1  N   UNL     1     -19.244 -63.925  22.792  1.00  0.00    -0.224 NA
HETATM    2  N   UNL     1     -19.343 -61.536  22.495  1.00  0.00    -0.224 NA
HETATM    3  C   UNL     1     -17.920 -63.864  22.535  1.00  0.00     0.133 A 
HETATM    4  C   UNL     1     -17.247 -62.693  22.254  1.00  0.00     0.100 A 
HETATM    5  C   UNL     1     -18.013 -61.541  22.246  1.00  0.00     0.133 A 
HETATM    6  C   UNL     1     -19.884 -62.741  22.755  1.00  0.00     0.237 A 
ENDROOT
BRANCH   3   7
HETATM    7  N   UNL     1     -17.166 -65.063  22.551  1.00  0.00    -0.341 N 
HETATM    8  H   UNL     1     -16.448 -65.099  21.833  1.00  0.00     0.167 HD
BRANCH   7   9
HETATM    9  C   UNL     1     -17.216 -66.203  23.370  1.00  0.00     0.035 A 
HETATM   10  C   UNL     1     -17.913 -67.340  22.952  1.00  0.00     0.059 A 
HETATM   11  C   UNL     1     -17.960 -68.472  23.765  1.00  0.00     0.036 A 
HETATM   12  C   UNL     1     -17.311 -68.472  25.000  1.00  0.00     0.029 A 
HETATM   13  C   UNL     1     -16.614 -67.340  25.422  1.00  0.00     0.004 A 
HETATM   14  C   UNL     1     -16.568 -66.207  24.608  1.00  0.00     0.029 A 
BRANCH  11  15
HETATM   15  N   UNL     1     -18.656 -69.606  23.344  1.00  0.00    -0.327 N 
HETATM   16  C   UNL     1     -18.275 -70.542  22.379  1.00  0.00     0.226 C 
HETATM   17  O   UNL     1     -17.250 -70.555  21.710  1.00  0.00    -0.273 OA
HETATM   18  H   UNL     1     -19.555 -69.757  23.797  1.00  0.00     0.169 HD
BRANCH  16  19
HETATM   19  C   UNL     1     -19.269 -71.642  22.177  1.00  0.00     0.078 A 
HETATM   20  C   UNL     1     -20.231 -71.935  23.274  1.00  0.00     0.015 A 
HETATM   21  C   UNL     1     -19.112 -72.889  22.974  1.00  0.00     0.015 A 
ENDBRANCH  16  19
ENDBRANCH  11  15
ENDBRANCH   7   9
ENDBRANCH   3   7
BRANCH   5  22
HETATM   22  N   UNL     1     -17.364 -60.324  21.964  1.00  0.00    -0.341 N 
HETATM   23  H   UNL     1     -17.223 -60.173  20.967  1.00  0.00     0.167 HD
BRANCH  22  24
HETATM   24  C   UNL     1     -16.597 -59.445  22.757  1.00  0.00     0.034 A 
HETATM   25  C   UNL     1     -17.224 -58.430  23.479  1.00  0.00     0.045 A 
HETATM   26  C   UNL     1     -16.466 -57.562  24.264  1.00  0.00     0.050 A 
HETATM   27  C   UNL     1     -15.080 -57.709  24.327  1.00  0.00     0.016 A 
HETATM   28  C   UNL     1     -14.452 -58.723  23.604  1.00  0.00     0.003 A 
HETATM   29  C   UNL     1     -15.212 -59.592  22.819  1.00  0.00     0.029 A 
BRANCH  26  30
HETATM   30  C   UNL     1     -17.136 -56.476  25.037  1.00  0.00     0.417 C 
HETATM   31  F   UNL     1     -16.448 -55.296  25.032  1.00  0.00    -0.166 F 
HETATM   32  F   UNL     1     -18.381 -56.164  24.573  1.00  0.00    -0.166 F 
HETATM   33  F   UNL     1     -17.305 -56.796  26.354  1.00  0.00    -0.166 F 
ENDBRANCH  26  30
ENDBRANCH  22  24
ENDBRANCH   5  22
TORSDOF 7
ENDMDL
MODEL 2
REMARK VINA RESULT:      -6.2      1.685      2.040
REMARK  7 active torsions:
REMARK  status: ('A' for Active; 'I' for Inactive)
REMARK       I    between atoms: N_5  and  C_13 
REMARK    1  A    between atoms: N_5  and  C_14 
REMARK    2  A    between atoms: N_6  and  C_17 
REMARK    3  A    between atoms: N_6  and  C_20 
REMARK    4  A    between atoms: N_7  and  C_21 
REMARK    5  A    between atoms: N_7  and  C_23 
REMARK    6  A    between atoms: C_10  and  C_13 
REMARK    7  A    between atoms: C_24  and  C_29 
ROOT
HETATM    1  N   UNL     1     -19.340 -63.504  23.610  1.00  0.00    -0.224 NA
HETATM    2  N   UNL     1     -17.923 -62.012  22.356  1.00  0.00    -0.224 NA
HETATM    3  C   UNL     1     -18.396 -63.532  24.573  1.00  0.00     0.133 A 
HETATM    4  C   UNL     1     -17.206 -62.836  24.501  1.00  0.00     0.100 A 
HETATM    5  C   UNL     1     -17.015 -62.081  23.357  1.00  0.00     0.133 A 
HETATM    6  C   UNL     1     -19.043 -62.735  22.544  1.00  0.00     0.237 A 
ENDROOT
BRANCH   3   7
HETATM    7  N   UNL     1     -18.624 -64.316  25.730  1.00  0.00    -0.341 N 
HETATM    8  H   UNL     1     -19.286 -63.898  26.378  1.00  0.00     0.167 HD
BRANCH   7   9
HETATM    9  C   UNL     1     -18.118 -65.558  26.148  1.00  0.00     0.035 A 
HETATM   10  C   UNL     1     -17.857 -66.563  25.213  1.00  0.00     0.059 A 
HETATM   11  C   UNL     1     -17.354 -67.795  25.630  1.00  0.00     0.036 A 
HETATM   12  C   UNL     1     -17.109 -68.028  26.983  1.00  0.00     0.029 A 
HETATM   13  C   UNL     1     -17.368 -67.028  27.921  1.00  0.00     0.004 A 
HETATM   14  C   UNL     1     -17.873 -65.796  27.504  1.00  0.00     0.029 A 
BRANCH  11  15
HETATM   15  N   UNL     1     -17.093 -68.796  24.692  1.00  0.00    -0.327 N 
HETATM   16  C   UNL     1     -18.010 -69.509  23.917  1.00  0.00     0.226 C 
HETATM   17  O   UNL     1     -19.229 -69.398  23.904  1.00  0.00    -0.273 OA
HETATM   18  H   UNL     1     -16.110 -69.031  24.570  1.00  0.00     0.169 HD
BRANCH  16  19
HETATM   19  C   UNL     1     -17.378 -70.517  23.008  1.00  0.00     0.078 A 
HETATM   20  C   UNL     1     -17.620 -70.396  21.545  1.00  0.00     0.015 A 
HETATM   21  C   UNL     1     -18.262 -71.503  22.327  1.00  0.00     0.015 A 
ENDBRANCH  16  19
ENDBRANCH  11  15
ENDBRANCH   7   9
ENDBRANCH   3   7
BRANCH   5  22
HETATM   22  N   UNL     1     -15.813 -61.356  23.245  1.00  0.00    -0.341 N 
HETATM   23  H   UNL     1     -14.996 -61.956  23.155  1.00  0.00     0.167 HD
BRANCH  22  24
HETATM   24  C   UNL     1     -15.472 -60.021  23.546  1.00  0.00     0.034 A 
HETATM   25  C   UNL     1     -16.286 -59.265  24.390  1.00  0.00     0.045 A 
HETATM   26  C   UNL     1     -15.948 -57.946  24.689  1.00  0.00     0.050 A 
HETATM   27  C   UNL     1     -14.795 -57.382  24.143  1.00  0.00     0.016 A 
HETATM   28  C   UNL     1     -13.981 -58.136  23.299  1.00  0.00     0.003 A 
HETATM   29  C   UNL     1     -14.320 -59.456  23.000  1.00  0.00     0.029 A 
BRANCH  26  30
HETATM   30  C   UNL     1     -16.818 -57.138  25.591  1.00  0.00     0.417 C 
HETATM   31  F   UNL     1     -16.596 -55.793  25.506  1.00  0.00    -0.166 F 
HETATM   32  F   UNL     1     -18.152 -57.295  25.348  1.00  0.00    -0.166 F 
HETATM   33  F   UNL     1     -16.646 -57.455  26.909  1.00  0.00    -0.166 F 
ENDBRANCH  26  30
ENDBRANCH  22  24
ENDBRANCH   5  22
TORSDOF 7
ENDMDL
MODEL 3
REMARK VINA RESULT:      -6.1      5.568     10.866
REMARK  7 active torsions:
REMARK  status: ('A' for Active; 'I' for Inactive)
REMARK       I    between atoms: N_5  and  C_13 
REMARK    1  A    between atoms: N_5  and  C_14 
REMARK    2  A    between atoms: N_6  and  C_17 
REMARK    3  A    between atoms: N_6  and  C_20 
REMARK    4  A    between atoms: N_7  and  C_21 
REMARK    5  A    between atoms: N_7  and  C_23 
REMARK    6  A    between atoms: C_10  and  C_13 
REMARK    7  A    between atoms: C_24  and  C_29 
ROOT
HETATM    1  N   UNL     1     -19.467 -61.730  22.314  1.00  0.00    -0.224 NA
HETATM    2  N   UNL     1     -19.168 -64.088  22.711  1.00  0.00    -0.224 NA
HETATM    3  C   UNL     1     -18.124 -61.607  22.264  1.00  0.00     0.133 A 
HETATM    4  C   UNL     1     -17.250 -62.663  22.425  1.00  0.00     0.100 A 
HETATM    5  C   UNL     1     -17.830 -63.899  22.649  1.00  0.00     0.133 A 
HETATM    6  C   UNL     1     -19.914 -62.981  22.539  1.00  0.00     0.237 A 
ENDROOT
BRANCH   3   7
HETATM    7  N   UNL     1     -17.565 -60.326  22.033  1.00  0.00    -0.341 N 
HETATM    8  H   UNL     1     -17.865 -59.905  21.159  1.00  0.00     0.167 HD
BRANCH   7   9
HETATM    9  C   UNL     1     -16.683 -59.528  22.780  1.00  0.00     0.035 A 
HETATM   10  C   UNL     1     -17.181 -58.551  23.646  1.00  0.00     0.059 A 
HETATM   11  C   UNL     1     -16.305 -57.760  24.389  1.00  0.00     0.036 A 
HETATM   12  C   UNL     1     -14.927 -57.943  24.270  1.00  0.00     0.029 A 
HETATM   13  C   UNL     1     -14.425 -58.917  23.407  1.00  0.00     0.004 A 
HETATM   14  C   UNL     1     -15.302 -59.708  22.663  1.00  0.00     0.029 A 
BRANCH  11  15
HETATM   15  N   UNL     1     -16.806 -56.785  25.253  1.00  0.00    -0.327 N 
HETATM   16  C   UNL     1     -16.815 -55.400  25.077  1.00  0.00     0.226 C 
HETATM   17  O   UNL     1     -16.384 -54.762  24.125  1.00  0.00    -0.273 OA
HETATM   18  H   UNL     1     -17.208 -57.138  26.119  1.00  0.00     0.169 HD
BRANCH  16  19
HETATM   19  C   UNL     1     -17.437 -54.648  26.212  1.00  0.00     0.078 A 
HETATM   20  C   UNL     1     -17.119 -55.078  27.601  1.00  0.00     0.015 A 
HETATM   21  C   UNL     1     -18.480 -55.335  27.023  1.00  0.00     0.015 A 
ENDBRANCH  16  19
ENDBRANCH  11  15
ENDBRANCH   7   9
ENDBRANCH   3   7
BRANCH   5  22
HETATM   22  N   UNL     1     -16.973 -65.003  22.818  1.00  0.00    -0.341 N 
HETATM   23  H   UNL     1     -16.096 -64.904  22.311  1.00  0.00     0.167 HD
BRANCH  22  24
HETATM   24  C   UNL     1     -17.192 -66.323  23.264  1.00  0.00     0.034 A 
HETATM   25  C   UNL     1     -17.377 -67.351  22.339  1.00  0.00     0.045 A 
HETATM   26  C   UNL     1     -17.592 -68.656  22.781  1.00  0.00     0.050 A 
HETATM   27  C   UNL     1     -17.624 -68.934  24.147  1.00  0.00     0.016 A 
HETATM   28  C   UNL     1     -17.440 -67.906  25.072  1.00  0.00     0.003 A 
HETATM   29  C   UNL     1     -17.224 -66.601  24.630  1.00  0.00     0.029 A 
BRANCH  26  30
HETATM   30  C   UNL     1     -17.789 -69.756  21.792  1.00  0.00     0.417 C 
HETATM   31  F   UNL     1     -17.259 -69.488  20.562  1.00  0.00    -0.166 F 
HETATM   32  F   UNL     1     -17.226 -70.940  22.173  1.00  0.00    -0.166 F 
HETATM   33  F   UNL     1     -19.108 -70.032  21.570  1.00  0.00    -0.166 F 
ENDBRANCH  26  30
ENDBRANCH  22  24
ENDBRANCH   5  22
TORSDOF 7
ENDMDL
MODEL 4
REMARK VINA RESULT:      -6.0      2.569      3.617
REMARK  7 active torsions:
REMARK  status: ('A' for Active; 'I' for Inactive)
REMARK       I    between atoms: N_5  and  C_13 
REMARK    1  A    between atoms: N_5  and  C_14 
REMARK    2  A    between atoms: N_6  and  C_17 
REMARK    3  A    between atoms: N_6  and  C_20 
REMARK    4  A    between atoms: N_7  and  C_21 
REMARK    5  A    between atoms: N_7  and  C_23 
REMARK    6  A    between atoms: C_10  and  C_13 
REMARK    7  A    between atoms: C_24  and  C_29 
ROOT
HETATM    1  N   UNL     1     -19.067 -66.275  24.285  1.00  0.00    -0.224 NA
HETATM    2  N   UNL     1     -17.928 -64.212  24.784  1.00  0.00    -0.224 NA
HETATM    3  C   UNL     1     -18.465 -66.272  23.077  1.00  0.00     0.133 A 
HETATM    4  C   UNL     1     -17.593 -65.288  22.658  1.00  0.00     0.100 A 
HETATM    5  C   UNL     1     -17.355 -64.266  23.559  1.00  0.00     0.133 A 
HETATM    6  C   UNL     1     -18.759 -65.230  25.076  1.00  0.00     0.237 A 
ENDROOT
BRANCH   3   7
HETATM    7  N   UNL     1     -18.732 -67.334  22.179  1.00  0.00    -0.341 N 
HETATM    8  H   UNL     1     -19.006 -67.020  21.252  1.00  0.00     0.167 HD
BRANCH   7   9
HETATM    9  C   UNL     1     -18.685 -68.731  22.321  1.00  0.00     0.035 A 
HETATM   10  C   UNL     1     -19.613 -69.538  21.657  1.00  0.00     0.059 A 
HETATM   11  C   UNL     1     -19.564 -70.924  21.797  1.00  0.00     0.036 A 
HETATM   12  C   UNL     1     -18.586 -71.510  22.602  1.00  0.00     0.029 A 
HETATM   13  C   UNL     1     -17.658 -70.709  23.266  1.00  0.00     0.004 A 
HETATM   14  C   UNL     1     -17.708 -69.322  23.126  1.00  0.00     0.029 A 
BRANCH  11  15
HETATM   15  N   UNL     1     -20.492 -71.726  21.132  1.00  0.00    -0.327 N 
HETATM   16  C   UNL     1     -21.765 -72.108  21.561  1.00  0.00     0.226 C 
HETATM   17  O   UNL     1     -22.323 -71.813  22.610  1.00  0.00    -0.273 OA
HETATM   18  H   UNL     1     -20.191 -72.076  20.224  1.00  0.00     0.169 HD
BRANCH  16  19
HETATM   19  C   UNL     1     -22.496 -72.980  20.588  1.00  0.00     0.078 A 
HETATM   20  C   UNL     1     -21.879 -73.221  19.256  1.00  0.00     0.015 A 
HETATM   21  C   UNL     1     -23.090 -72.343  19.381  1.00  0.00     0.015 A 
ENDBRANCH  16  19
ENDBRANCH  11  15
ENDBRANCH   7   9
ENDBRANCH   3   7
BRANCH   5  22
HETATM   22  N   UNL     1     -16.471 -63.241  23.170  1.00  0.00    -0.341 N 
HETATM   23  H   UNL     1     -15.494 -63.502  23.274  1.00  0.00     0.167 HD
BRANCH  22  24
HETATM   24  C   UNL     1     -16.642 -61.855  22.978  1.00  0.00     0.034 A 
HETATM   25  C   UNL     1     -15.667 -60.962  23.423  1.00  0.00     0.045 A 
HETATM   26  C   UNL     1     -15.836 -59.592  23.232  1.00  0.00     0.050 A 
HETATM   27  C   UNL     1     -16.981 -59.112  22.595  1.00  0.00     0.016 A 
HETATM   28  C   UNL     1     -17.957 -60.004  22.150  1.00  0.00     0.003 A 
HETATM   29  C   UNL     1     -17.787 -61.375  22.341  1.00  0.00     0.029 A 
BRANCH  26  30
HETATM   30  C   UNL     1     -14.793 -58.637  23.708  1.00  0.00     0.417 C 
HETATM   31  F   UNL     1     -13.661 -58.637  22.945  1.00  0.00    -0.166 F 
HETATM   32  F   UNL     1     -15.211 -57.337  23.727  1.00  0.00    -0.166 F 
HETATM   33  F   UNL     1     -14.377 -58.906  24.981  1.00  0.00    -0.166 F 
ENDBRANCH  26  30
ENDBRANCH  22  24
ENDBRANCH   5  22
TORSDOF 7
ENDMDL
MODEL 5
REMARK VINA RESULT:      -6.0      2.411      3.884
REMARK  7 active torsions:
REMARK  status: ('A' for Active; 'I' for Inactive)
REMARK       I    between atoms: N_5  and  C_13 
REMARK    1  A    between atoms: N_5  and  C_14 
REMARK    2  A    between atoms: N_6  and  C_17 
REMARK    3  A    between atoms: N_6  and  C_20 
REMARK    4  A    between atoms: N_7  and  C_21 
REMARK    5  A    between atoms: N_7  and  C_23 
REMARK    6  A    between atoms: C_10  and  C_13 
REMARK    7  A    between atoms: C_24  and  C_29 
ROOT
HETATM    1  N   UNL     1     -18.164 -66.466  25.515  1.00  0.00    -0.224 NA
HETATM    2  N   UNL     1     -17.847 -64.191  24.787  1.00  0.00    -0.224 NA
HETATM    3  C   UNL     1     -17.535 -66.874  24.393  1.00  0.00     0.133 A 
HETATM    4  C   UNL     1     -17.040 -66.012  23.436  1.00  0.00     0.100 A 
HETATM    5  C   UNL     1     -17.224 -64.663  23.682  1.00  0.00     0.133 A 
HETATM    6  C   UNL     1     -18.285 -65.131  25.646  1.00  0.00     0.237 A 
ENDROOT
BRANCH   3   7
HETATM    7  N   UNL     1     -17.364 -68.262  24.173  1.00  0.00    -0.341 N 
HETATM    8  H   UNL     1     -16.510 -68.635  24.578  1.00  0.00     0.167 HD
BRANCH   7   9
HETATM    9  C   UNL     1     -18.150 -69.220  23.510  1.00  0.00     0.035 A 
HETATM   10  C   UNL     1     -18.102 -70.562  23.900  1.00  0.00     0.059 A 
HETATM   11  C   UNL     1     -18.883 -71.511  23.242  1.00  0.00     0.036 A 
HETATM   12  C   UNL     1     -19.716 -71.124  22.192  1.00  0.00     0.029 A 
HETATM   13  C   UNL     1     -19.767 -69.787  21.799  1.00  0.00     0.004 A 
HETATM   14  C   UNL     1     -18.985 -68.837  22.457  1.00  0.00     0.029 A 
BRANCH  11  15
HETATM   15  N   UNL     1     -18.833 -72.850  23.635  1.00  0.00    -0.327 N 
HETATM   16  C   UNL     1     -19.611 -73.494  24.599  1.00  0.00     0.226 C 
HETATM   17  O   UNL     1     -20.496 -73.012  25.294  1.00  0.00    -0.273 OA
HETATM   18  H   UNL     1     -18.135 -73.416  23.157  1.00  0.00     0.169 HD
BRANCH  16  19
HETATM   19  C   UNL     1     -19.288 -74.946  24.766  1.00  0.00     0.078 A 
HETATM   20  C   UNL     1     -18.828 -75.708  23.574  1.00  0.00     0.015 A 
HETATM   21  C   UNL     1     -20.197 -75.946  24.141  1.00  0.00     0.015 A 
ENDBRANCH  16  19
ENDBRANCH  11  15
ENDBRANCH   7   9
ENDBRANCH   3   7
BRANCH   5  22
HETATM   22  N   UNL     1     -16.733 -63.750  22.729  1.00  0.00    -0.341 N 
HETATM   23  H   UNL     1     -15.930 -64.108  22.217  1.00  0.00     0.167 HD
BRANCH  22  24
HETATM   24  C   UNL     1     -16.907 -62.361  22.560  1.00  0.00     0.034 A 
HETATM   25  C   UNL     1     -15.965 -61.471  23.076  1.00  0.00     0.045 A 
HETATM   26  C   UNL     1     -16.137 -60.098  22.907  1.00  0.00     0.050 A 
HETATM   27  C   UNL     1     -17.251 -59.614  22.221  1.00  0.00     0.016 A 
HETATM   28  C   UNL     1     -18.193 -60.502  21.705  1.00  0.00     0.003 A 
HETATM   29  C   UNL     1     -18.021 -61.877  21.874  1.00  0.00     0.029 A 
BRANCH  26  30
HETATM   30  C   UNL     1     -15.130 -59.146  23.460  1.00  0.00     0.417 C 
HETATM   31  F   UNL     1     -13.988 -59.063  22.715  1.00  0.00    -0.166 F 
HETATM   32  F   UNL     1     -15.587 -57.863  23.556  1.00  0.00    -0.166 F 
HETATM   33  F   UNL     1     -14.722 -59.485  24.718  1.00  0.00    -0.166 F 
ENDBRANCH  26  30
ENDBRANCH  22  24
ENDBRANCH   5  22
TORSDOF 7
ENDMDL
MODEL 6
REMARK VINA RESULT:      -5.9      2.544      3.421
REMARK  7 active torsions:
REMARK  status: ('A' for Active; 'I' for Inactive)
REMARK       I    between atoms: N_5  and  C_13 
REMARK    1  A    between atoms: N_5  and  C_14 
REMARK    2  A    between atoms: N_6  and  C_17 
REMARK    3  A    between atoms: N_6  and  C_20 
REMARK    4  A    between atoms: N_7  and  C_21 
REMARK    5  A    between atoms: N_7  and  C_23 
REMARK    6  A    between atoms: C_10  and  C_13 
REMARK    7  A    between atoms: C_24  and  C_29 
ROOT
HETATM    1  N   UNL     1     -19.498 -65.764  24.529  1.00  0.00    -0.224 NA
HETATM    2  N   UNL     1     -18.363 -63.679  24.944  1.00  0.00    -0.224 NA
HETATM    3  C   UNL     1     -18.742 -65.913  23.422  1.00  0.00     0.133 A 
HETATM    4  C   UNL     1     -17.788 -65.001  23.016  1.00  0.00     0.100 A 
HETATM    5  C   UNL     1     -17.636 -63.887  23.821  1.00  0.00     0.133 A 
HETATM    6  C   UNL     1     -19.261 -64.640  25.233  1.00  0.00     0.237 A 
ENDROOT
BRANCH   3   7
HETATM    7  N   UNL     1     -18.926 -67.065  22.620  1.00  0.00    -0.341 N 
HETATM    8  H   UNL     1     -19.488 -66.896  21.790  1.00  0.00     0.167 HD
BRANCH   7   9
HETATM    9  C   UNL     1     -18.476 -68.390  22.747  1.00  0.00     0.035 A 
HETATM   10  C   UNL     1     -18.666 -69.086  23.944  1.00  0.00     0.059 A 
HETATM   11  C   UNL     1     -18.221 -70.402  24.068  1.00  0.00     0.036 A 
HETATM   12  C   UNL     1     -17.583 -71.028  22.997  1.00  0.00     0.029 A 
HETATM   13  C   UNL     1     -17.391 -70.337  21.800  1.00  0.00     0.004 A 
HETATM   14  C   UNL     1     -17.836 -69.021  21.676  1.00  0.00     0.029 A 
BRANCH  11  15
HETATM   15  N   UNL     1     -18.413 -71.094  25.265  1.00  0.00    -0.327 N 
HETATM   16  C   UNL     1     -19.392 -72.044  25.563  1.00  0.00     0.226 C 
HETATM   17  O   UNL     1     -20.279 -72.463  24.830  1.00  0.00    -0.273 OA
HETATM   18  H   UNL     1     -17.757 -70.865  26.009  1.00  0.00     0.169 HD
BRANCH  16  19
HETATM   19  C   UNL     1     -19.304 -72.589  26.954  1.00  0.00     0.078 A 
HETATM   20  C   UNL     1     -18.688 -71.738  28.007  1.00  0.00     0.015 A 
HETATM   21  C   UNL     1     -17.961 -72.943  27.489  1.00  0.00     0.015 A 
ENDBRANCH  16  19
ENDBRANCH  11  15
ENDBRANCH   7   9
ENDBRANCH   3   7
BRANCH   5  22
HETATM   22  N   UNL     1     -16.672 -62.932  23.443  1.00  0.00    -0.341 N 
HETATM   23  H   UNL     1     -15.719 -63.242  23.618  1.00  0.00     0.167 HD
BRANCH  22  24
HETATM   24  C   UNL     1     -16.751 -61.548  23.181  1.00  0.00     0.034 A 
HETATM   25  C   UNL     1     -15.735 -60.697  23.616  1.00  0.00     0.045 A 
HETATM   26  C   UNL     1     -15.813 -59.329  23.355  1.00  0.00     0.050 A 
HETATM   27  C   UNL     1     -16.906 -58.812  22.660  1.00  0.00     0.016 A 
HETATM   28  C   UNL     1     -17.922 -59.663  22.225  1.00  0.00     0.003 A 
HETATM   29  C   UNL     1     -17.844 -61.032  22.486  1.00  0.00     0.029 A 
BRANCH  26  30
HETATM   30  C   UNL     1     -14.727 -58.418  23.820  1.00  0.00     0.417 C 
HETATM   31  F   UNL     1     -13.629 -58.415  23.008  1.00  0.00    -0.166 F 
HETATM   32  F   UNL     1     -15.110 -57.110  23.904  1.00  0.00    -0.166 F 
HETATM   33  F   UNL     1     -14.263 -58.744  25.062  1.00  0.00    -0.166 F 
ENDBRANCH  26  30
ENDBRANCH  22  24
ENDBRANCH   5  22
TORSDOF 7
ENDMDL
MODEL 7
REMARK VINA RESULT:      -5.9      4.825     10.524
REMARK  7 active torsions:
REMARK  status: ('A' for Active; 'I' for Inactive)
REMARK       I    between atoms: N_5  and  C_13 
REMARK    1  A    between atoms: N_5  and  C_14 
REMARK    2  A    between atoms: N_6  and  C_17 
REMARK    3  A    between atoms: N_6  and  C_20 
REMARK    4  A    between atoms: N_7  and  C_21 
REMARK    5  A    between atoms: N_7  and  C_23 
REMARK    6  A    between atoms: C_10  and  C_13 
REMARK    7  A    between atoms: C_24  and  C_29 
ROOT
HETATM    1  N   UNL     1     -19.280 -61.533  22.423  1.00  0.00    -0.224 NA
HETATM    2  N   UNL     1     -19.145 -63.899  22.859  1.00  0.00    -0.224 NA
HETATM    3  C   UNL     1     -17.938 -61.520  22.285  1.00  0.00     0.133 A 
HETATM    4  C   UNL     1     -17.142 -62.640  22.417  1.00  0.00     0.100 A 
HETATM    5  C   UNL     1     -17.802 -63.820  22.708  1.00  0.00     0.133 A 
HETATM    6  C   UNL     1     -19.810 -62.738  22.707  1.00  0.00     0.237 A 
ENDROOT
BRANCH   3   7
HETATM    7  N   UNL     1     -17.294 -60.294  21.987  1.00  0.00    -0.341 N 
HETATM    8  H   UNL     1     -17.445 -59.979  21.033  1.00  0.00     0.167 HD
BRANCH   7   9
HETATM    9  C   UNL     1     -16.497 -59.430  22.757  1.00  0.00     0.035 A 
HETATM   10  C   UNL     1     -17.089 -58.428  23.530  1.00  0.00     0.059 A 
HETATM   11  C   UNL     1     -16.296 -57.572  24.294  1.00  0.00     0.036 A 
HETATM   12  C   UNL     1     -14.908 -57.715  24.290  1.00  0.00     0.029 A 
HETATM   13  C   UNL     1     -14.313 -58.715  23.520  1.00  0.00     0.004 A 
HETATM   14  C   UNL     1     -15.106 -59.570  22.755  1.00  0.00     0.029 A 
BRANCH  11  15
HETATM   15  N   UNL     1     -16.891 -56.572  25.065  1.00  0.00    -0.327 N 
HETATM   16  C   UNL     1     -16.820 -55.189  24.886  1.00  0.00     0.226 C 
HETATM   17  O   UNL     1     -16.219 -54.576  24.014  1.00  0.00    -0.273 OA
HETATM   18  H   UNL     1     -17.438 -56.903  25.857  1.00  0.00     0.169 HD
BRANCH  16  19
HETATM   19  C   UNL     1     -17.585 -54.406  25.907  1.00  0.00     0.078 A 
HETATM   20  C   UNL     1     -16.926 -54.105  27.206  1.00  0.00     0.015 A 
HETATM   21  C   UNL     1     -18.040 -55.108  27.138  1.00  0.00     0.015 A 
ENDBRANCH  16  19
ENDBRANCH  11  15
ENDBRANCH   7   9
ENDBRANCH   3   7
BRANCH   5  22
HETATM   22  N   UNL     1     -17.027 -64.987  22.850  1.00  0.00    -0.341 N 
HETATM   23  H   UNL     1     -16.256 -65.032  22.188  1.00  0.00     0.167 HD
BRANCH  22  24
HETATM   24  C   UNL     1     -17.272 -66.226  23.478  1.00  0.00     0.034 A 
HETATM   25  C   UNL     1     -17.201 -66.331  24.867  1.00  0.00     0.045 A 
HETATM   26  C   UNL     1     -17.445 -67.556  25.487  1.00  0.00     0.050 A 
HETATM   27  C   UNL     1     -17.759 -68.676  24.719  1.00  0.00     0.016 A 
HETATM   28  C   UNL     1     -17.830 -68.572  23.330  1.00  0.00     0.003 A 
HETATM   29  C   UNL     1     -17.586 -67.346  22.709  1.00  0.00     0.029 A 
BRANCH  26  30
HETATM   30  C   UNL     1     -17.370 -67.669  26.973  1.00  0.00     0.417 C 
HETATM   31  F   UNL     1     -16.684 -68.768  27.405  1.00  0.00    -0.166 F 
HETATM   32  F   UNL     1     -16.753 -66.607  27.571  1.00  0.00    -0.166 F 
HETATM   33  F   UNL     1     -18.601 -67.753  27.557  1.00  0.00    -0.166 F 
ENDBRANCH  26  30
ENDBRANCH  22  24
ENDBRANCH   5  22
TORSDOF 7
ENDMDL
MODEL 8
REMARK VINA RESULT:      -5.8      6.665     10.377
REMARK  7 active torsions:
REMARK  status: ('A' for Active; 'I' for Inactive)
REMARK       I    between atoms: N_5  and  C_13 
REMARK    1  A    between atoms: N_5  and  C_14 
REMARK    2  A    between atoms: N_6  and  C_17 
REMARK    3  A    between atoms: N_6  and  C_20 
REMARK    4  A    between atoms: N_7  and  C_21 
REMARK    5  A    between atoms: N_7  and  C_23 
REMARK    6  A    between atoms: C_10  and  C_13 
REMARK    7  A    between atoms: C_24  and  C_29 
ROOT
HETATM    1  N   UNL     1     -22.761 -59.291  20.112  1.00  0.00    -0.224 NA
HETATM    2  N   UNL     1     -20.845 -59.878  21.450  1.00  0.00    -0.224 NA
HETATM    3  C   UNL     1     -21.979 -59.389  19.016  1.00  0.00     0.133 A 
HETATM    4  C   UNL     1     -20.641 -59.723  19.057  1.00  0.00     0.100 A 
HETATM    5  C   UNL     1     -20.114 -59.961  20.314  1.00  0.00     0.133 A 
HETATM    6  C   UNL     1     -22.138 -59.544  21.279  1.00  0.00     0.237 A 
ENDROOT
BRANCH   3   7
HETATM    7  N   UNL     1     -22.551 -59.139  17.745  1.00  0.00    -0.341 N 
HETATM    8  H   UNL     1     -23.511 -58.808  17.791  1.00  0.00     0.167 HD
BRANCH   7   9
HETATM    9  C   UNL     1     -22.046 -59.253  16.439  1.00  0.00     0.035 A 
HETATM   10  C   UNL     1     -21.261 -58.232  15.897  1.00  0.00     0.059 A 
HETATM   11  C   UNL     1     -20.759 -58.347  14.601  1.00  0.00     0.036 A 
HETATM   12  C   UNL     1     -21.040 -59.483  13.841  1.00  0.00     0.029 A 
HETATM   13  C   UNL     1     -21.823 -60.505  14.379  1.00  0.00     0.004 A 
HETATM   14  C   UNL     1     -22.326 -60.389  15.675  1.00  0.00     0.029 A 
BRANCH  11  15
HETATM   15  N   UNL     1     -19.974 -57.326  14.063  1.00  0.00    -0.327 N 
HETATM   16  C   UNL     1     -18.651 -57.002  14.372  1.00  0.00     0.226 C 
HETATM   17  O   UNL     1     -17.913 -57.553  15.179  1.00  0.00    -0.273 OA
HETATM   18  H   UNL     1     -20.435 -56.747  13.364  1.00  0.00     0.169 HD
BRANCH  16  19
HETATM   19  C   UNL     1     -18.116 -55.838  13.598  1.00  0.00     0.078 A 
HETATM   20  C   UNL     1     -19.009 -54.670  13.374  1.00  0.00     0.015 A 
HETATM   21  C   UNL     1     -18.663 -55.586  12.237  1.00  0.00     0.015 A 
ENDBRANCH  16  19
ENDBRANCH  11  15
ENDBRANCH   7   9
ENDBRANCH   3   7
BRANCH   5  22
HETATM   22  N   UNL     1     -18.751 -60.304  20.399  1.00  0.00    -0.341 N 
HETATM   23  H   UNL     1     -18.357 -60.581  19.502  1.00  0.00     0.167 HD
BRANCH  22  24
HETATM   24  C   UNL     1     -17.920 -60.651  21.484  1.00  0.00     0.034 A 
HETATM   25  C   UNL     1     -17.115 -59.683  22.084  1.00  0.00     0.045 A 
HETATM   26  C   UNL     1     -16.294 -60.026  23.158  1.00  0.00     0.050 A 
HETATM   27  C   UNL     1     -16.278 -61.338  23.632  1.00  0.00     0.016 A 
HETATM   28  C   UNL     1     -17.083 -62.307  23.032  1.00  0.00     0.003 A 
HETATM   29  C   UNL     1     -17.904 -61.963  21.958  1.00  0.00     0.029 A 
BRANCH  26  30
HETATM   30  C   UNL     1     -15.433 -58.991  23.800  1.00  0.00     0.417 C 
HETATM   31  F   UNL     1     -15.261 -59.177  25.142  1.00  0.00    -0.166 F 
HETATM   32  F   UNL     1     -14.170 -58.935  23.283  1.00  0.00    -0.166 F 
HETATM   33  F   UNL     1     -15.940 -57.730  23.667  1.00  0.00    -0.166 F 
ENDBRANCH  26  30
ENDBRANCH  22  24
ENDBRANCH   5  22
TORSDOF 7
ENDMDL
MODEL 9
REMARK VINA RESULT:      -5.8      2.113      2.923
REMARK  7 active torsions:
REMARK  status: ('A' for Active; 'I' for Inactive)
REMARK       I    between atoms: N_5  and  C_13 
REMARK    1  A    between atoms: N_5  and  C_14 
REMARK    2  A    between atoms: N_6  and  C_17 
REMARK    3  A    between atoms: N_6  and  C_20 
REMARK    4  A    between atoms: N_7  and  C_21 
REMARK    5  A    between atoms: N_7  and  C_23 
REMARK    6  A    between atoms: C_10  and  C_13 
REMARK    7  A    between atoms: C_24  and  C_29 
ROOT
HETATM    1  N   UNL     1     -17.880 -61.978  21.629  1.00  0.00    -0.224 NA
HETATM    2  N   UNL     1     -17.631 -59.593  21.860  1.00  0.00    -0.224 NA
HETATM    3  C   UNL     1     -16.956 -62.132  22.600  1.00  0.00     0.133 A 
HETATM    4  C   UNL     1     -16.334 -61.079  23.240  1.00  0.00     0.100 A 
HETATM    5  C   UNL     1     -16.711 -59.813  22.828  1.00  0.00     0.133 A 
HETATM    6  C   UNL     1     -18.165 -60.701  21.312  1.00  0.00     0.237 A 
ENDROOT
BRANCH   3   7
HETATM    7  N   UNL     1     -16.593 -63.442  22.996  1.00  0.00    -0.341 N 
HETATM    8  H   UNL     1     -15.597 -63.627  22.919  1.00  0.00     0.167 HD
BRANCH   7   9
HETATM    9  C   UNL     1     -17.342 -64.528  23.479  1.00  0.00     0.035 A 
HETATM   10  C   UNL     1     -17.146 -65.808  22.954  1.00  0.00     0.059 A 
HETATM   11  C   UNL     1     -17.889 -66.885  23.435  1.00  0.00     0.036 A 
HETATM   12  C   UNL     1     -18.832 -66.688  24.444  1.00  0.00     0.029 A 
HETATM   13  C   UNL     1     -19.032 -65.412  24.971  1.00  0.00     0.004 A 
HETATM   14  C   UNL     1     -18.289 -64.334  24.489  1.00  0.00     0.029 A 
BRANCH  11  15
HETATM   15  N   UNL     1     -17.688 -68.162  22.909  1.00  0.00    -0.327 N 
HETATM   16  C   UNL     1     -18.247 -68.716  21.755  1.00  0.00     0.226 C 
HETATM   17  O   UNL     1     -19.026 -68.188  20.971  1.00  0.00    -0.273 OA
HETATM   18  H   UNL     1     -17.060 -68.758  23.444  1.00  0.00     0.169 HD
BRANCH  16  19
HETATM   19  C   UNL     1     -17.810 -70.122  21.485  1.00  0.00     0.078 A 
HETATM   20  C   UNL     1     -18.533 -71.229  22.167  1.00  0.00     0.015 A 
HETATM   21  C   UNL     1     -17.135 -70.872  22.579  1.00  0.00     0.015 A 
ENDBRANCH  16  19
ENDBRANCH  11  15
ENDBRANCH   7   9
ENDBRANCH   3   7
BRANCH   5  22
HETATM   22  N   UNL     1     -16.100 -58.711  23.456  1.00  0.00    -0.341 N 
HETATM   23  H   UNL     1     -15.118 -58.609  23.209  1.00  0.00     0.167 HD
BRANCH  22  24
HETATM   24  C   UNL     1     -16.458 -57.931  24.575  1.00  0.00     0.034 A 
HETATM   25  C   UNL     1     -16.628 -58.533  25.822  1.00  0.00     0.045 A 
HETATM   26  C   UNL     1     -16.980 -57.761  26.928  1.00  0.00     0.050 A 
HETATM   27  C   UNL     1     -17.163 -56.385  26.788  1.00  0.00     0.016 A 
HETATM   28  C   UNL     1     -16.993 -55.782  25.542  1.00  0.00     0.003 A 
HETATM   29  C   UNL     1     -16.640 -56.555  24.435  1.00  0.00     0.029 A 
BRANCH  26  30
HETATM   30  C   UNL     1     -17.163 -58.405  28.261  1.00  0.00     0.417 C 
HETATM   31  F   UNL     1     -18.452 -58.777  28.517  1.00  0.00    -0.166 F 
HETATM   32  F   UNL     1     -16.425 -59.542  28.423  1.00  0.00    -0.166 F 
HETATM   33  F   UNL     1     -16.806 -57.586  29.293  1.00  0.00    -0.166 F 
ENDBRANCH  26  30
ENDBRANCH  22  24
ENDBRANCH   5  22
TORSDOF 7
ENDMDL
