MODEL 1
REMARK VINA RESULT:      -6.3      0.000      0.000
REMARK  7 active torsions:
REMARK  status: ('A' for Active; 'I' for Inactive)
REMARK       I    between atoms: N_5  and  C_13 
REMARK    1  A    between atoms: N_5  and  C_14 
REMARK    2  A    between atoms: N_6  and  C_17 
REMARK    3  A    between atoms: N_6  and  C_20 
REMARK    4  A    between atoms: N_7  and  C_21 
REMARK    5  A    between atoms: N_7  and  C_23 
REMARK    6  A    between atoms: C_10  and  C_13 
REMARK    7  A    between atoms: C_24  and  C_29 
ROOT
HETATM    1  N   UNL     1     -19.290 -63.946  22.806  1.00  0.00    -0.224 NA
HETATM    2  N   UNL     1     -19.415 -61.560  22.494  1.00  0.00    -0.224 NA
HETATM    3  C   UNL     1     -17.965 -63.871  22.560  1.00  0.00     0.133 A 
HETATM    4  C   UNL     1     -17.303 -62.693  22.278  1.00  0.00     0.100 A 
HETATM    5  C   UNL     1     -18.083 -61.551  22.256  1.00  0.00     0.133 A 
HETATM    6  C   UNL     1     -19.944 -62.770  22.757  1.00  0.00     0.237 A 
ENDROOT
BRANCH   3   7
HETATM    7  N   UNL     1     -17.197 -65.060  22.589  1.00  0.00    -0.341 N 
HETATM    8  H   UNL     1     -16.507 -65.115  21.846  1.00  0.00     0.167 HD
BRANCH   7   9
HETATM    9  C   UNL     1     -17.203 -66.171  23.449  1.00  0.00     0.035 A 
HETATM   10  C   UNL     1     -17.845 -67.353  23.069  1.00  0.00     0.059 A 
HETATM   11  C   UNL     1     -17.849 -68.455  23.922  1.00  0.00     0.036 A 
HETATM   12  C   UNL     1     -17.210 -68.382  25.160  1.00  0.00     0.029 A 
HETATM   13  C   UNL     1     -16.568 -67.205  25.545  1.00  0.00     0.004 A 
HETATM   14  C   UNL     1     -16.565 -66.102  24.691  1.00  0.00     0.029 A 
BRANCH  11  15
HETATM   15  N   UNL     1     -18.491 -69.634  23.538  1.00  0.00    -0.327 N 
HETATM   16  C   UNL     1     -18.124 -70.524  22.526  1.00  0.00     0.226 C 
HETATM   17  O   UNL     1     -17.162 -70.448  21.773  1.00  0.00    -0.273 OA
HETATM   18  H   UNL     1     -19.333 -69.860  24.063  1.00  0.00     0.169 HD
BRANCH  16  19
HETATM   19  C   UNL     1     -19.046 -71.695  22.386  1.00  0.00     0.078 A 
HETATM   20  C   UNL     1     -20.334 -71.496  21.667  1.00  0.00     0.015 A 
HETATM   21  C   UNL     1     -20.320 -71.684  23.156  1.00  0.00     0.015 A 
ENDBRANCH  16  19
ENDBRANCH  11  15
ENDBRANCH   7   9
ENDBRANCH   3   7
BRANCH   5  22
HETATM   22  N   UNL     1     -17.446 -60.328  21.973  1.00  0.00    -0.341 N 
HETATM   23  H   UNL     1     -17.389 -60.134  20.975  1.00  0.00     0.167 HD
BRANCH  22  24
HETATM   24  C   UNL     1     -16.604 -59.491  22.734  1.00  0.00     0.034 A 
HETATM   25  C   UNL     1     -17.145 -58.428  23.457  1.00  0.00     0.045 A 
HETATM   26  C   UNL     1     -16.312 -57.602  24.211  1.00  0.00     0.050 A 
HETATM   27  C   UNL     1     -14.938 -57.838  24.242  1.00  0.00     0.016 A 
HETATM   28  C   UNL     1     -14.396 -58.900  23.519  1.00  0.00     0.003 A 
HETATM   29  C   UNL     1     -15.230 -59.727  22.765  1.00  0.00     0.029 A 
BRANCH  26  30
HETATM   30  C   UNL     1     -16.891 -56.465  24.985  1.00  0.00     0.417 C 
HETATM   31  F   UNL     1     -18.247 -56.360  24.873  1.00  0.00    -0.166 F 
HETATM   32  F   UNL     1     -16.649 -56.538  26.327  1.00  0.00    -0.166 F 
HETATM   33  F   UNL     1     -16.396 -55.255  24.589  1.00  0.00    -0.166 F 
ENDBRANCH  26  30
ENDBRANCH  22  24
ENDBRANCH   5  22
TORSDOF 7
ENDMDL
MODEL 2
REMARK VINA RESULT:      -6.2      2.504      3.554
REMARK  7 active torsions:
REMARK  status: ('A' for Active; 'I' for Inactive)
REMARK       I    between atoms: N_5  and  C_13 
REMARK    1  A    between atoms: N_5  and  C_14 
REMARK    2  A    between atoms: N_6  and  C_17 
REMARK    3  A    between atoms: N_6  and  C_20 
REMARK    4  A    between atoms: N_7  and  C_21 
REMARK    5  A    between atoms: N_7  and  C_23 
REMARK    6  A    between atoms: C_10  and  C_13 
REMARK    7  A    between atoms: C_24  and  C_29 
ROOT
HETATM    1  N   UNL     1     -19.241 -65.847  24.891  1.00  0.00    -0.224 NA
HETATM    2  N   UNL     1     -17.994 -63.799  25.133  1.00  0.00    -0.224 NA
HETATM    3  C   UNL     1     -18.725 -65.971  23.650  1.00  0.00     0.133 A 
HETATM    4  C   UNL     1     -17.849 -65.063  23.090  1.00  0.00     0.100 A 
HETATM    5  C   UNL     1     -17.511 -63.980  23.882  1.00  0.00     0.133 A 
HETATM    6  C   UNL     1     -18.840 -64.753  25.566  1.00  0.00     0.237 A 
ENDROOT
BRANCH   3   7
HETATM    7  N   UNL     1     -19.094 -67.091  22.867  1.00  0.00    -0.341 N 
HETATM    8  H   UNL     1     -19.869 -66.907  22.237  1.00  0.00     0.167 HD
BRANCH   7   9
HETATM    9  C   UNL     1     -18.590 -68.400  22.789  1.00  0.00     0.035 A 
HETATM   10  C   UNL     1     -18.650 -69.245  23.901  1.00  0.00     0.059 A 
HETATM   11  C   UNL     1     -18.152 -70.545  23.822  1.00  0.00     0.036 A 
HETATM   12  C   UNL     1     -17.591 -71.007  22.631  1.00  0.00     0.029 A 
HETATM   13  C   UNL     1     -17.529 -70.168  21.518  1.00  0.00     0.004 A 
HETATM   14  C   UNL     1     -18.027 -68.867  21.598  1.00  0.00     0.029 A 
BRANCH  11  15
HETATM   15  N   UNL     1     -18.215 -71.385  24.935  1.00  0.00    -0.327 N 
HETATM   16  C   UNL     1     -19.004 -72.524  25.110  1.00  0.00     0.226 C 
HETATM   17  O   UNL     1     -19.799 -73.015  24.320  1.00  0.00    -0.273 OA
HETATM   18  H   UNL     1     -17.611 -71.123  25.711  1.00  0.00     0.169 HD
BRANCH  16  19
HETATM   19  C   UNL     1     -18.818 -73.191  26.438  1.00  0.00     0.078 A 
HETATM   20  C   UNL     1     -19.578 -72.665  27.604  1.00  0.00     0.015 A 
HETATM   21  C   UNL     1     -18.097 -72.445  27.505  1.00  0.00     0.015 A 
ENDBRANCH  16  19
ENDBRANCH  11  15
ENDBRANCH   7   9
ENDBRANCH   3   7
BRANCH   5  22
HETATM   22  N   UNL     1     -16.619 -63.031  23.347  1.00  0.00    -0.341 N 
HETATM   23  H   UNL     1     -15.651 -63.346  23.362  1.00  0.00     0.167 HD
BRANCH  22  24
HETATM   24  C   UNL     1     -16.733 -61.647  23.100  1.00  0.00     0.034 A 
HETATM   25  C   UNL     1     -15.746 -60.773  23.556  1.00  0.00     0.045 A 
HETATM   26  C   UNL     1     -15.859 -59.405  23.309  1.00  0.00     0.050 A 
HETATM   27  C   UNL     1     -16.958 -58.911  22.607  1.00  0.00     0.016 A 
HETATM   28  C   UNL     1     -17.945 -59.785  22.151  1.00  0.00     0.003 A 
HETATM   29  C   UNL     1     -17.832 -61.153  22.397  1.00  0.00     0.029 A 
BRANCH  26  30
HETATM   30  C   UNL     1     -14.804 -58.469  23.797  1.00  0.00     0.417 C 
HETATM   31  F   UNL     1     -13.689 -58.443  23.010  1.00  0.00    -0.166 F 
HETATM   32  F   UNL     1     -15.219 -57.170  23.870  1.00  0.00    -0.166 F 
HETATM   33  F   UNL     1     -14.362 -58.784  25.050  1.00  0.00    -0.166 F 
ENDBRANCH  26  30
ENDBRANCH  22  24
ENDBRANCH   5  22
TORSDOF 7
ENDMDL
MODEL 3
REMARK VINA RESULT:      -6.1      6.025     11.179
REMARK  7 active torsions:
REMARK  status: ('A' for Active; 'I' for Inactive)
REMARK       I    between atoms: N_5  and  C_13 
REMARK    1  A    between atoms: N_5  and  C_14 
REMARK    2  A    between atoms: N_6  and  C_17 
REMARK    3  A    between atoms: N_6  and  C_20 
REMARK    4  A    between atoms: N_7  and  C_21 
REMARK    5  A    between atoms: N_7  and  C_23 
REMARK    6  A    between atoms: C_10  and  C_13 
REMARK    7  A    between atoms: C_24  and  C_29 
ROOT
HETATM    1  N   UNL     1     -18.395 -64.749  24.683  1.00  0.00    -0.224 NA
HETATM    2  N   UNL     1     -18.577 -67.053  25.365  1.00  0.00    -0.224 NA
HETATM    3  C   UNL     1     -17.390 -65.111  23.858  1.00  0.00     0.133 A 
HETATM    4  C   UNL     1     -16.930 -66.407  23.733  1.00  0.00     0.100 A 
HETATM    5  C   UNL     1     -17.564 -67.352  24.519  1.00  0.00     0.133 A 
HETATM    6  C   UNL     1     -18.934 -65.755  25.398  1.00  0.00     0.237 A 
ENDROOT
BRANCH   3   7
HETATM    7  N   UNL     1     -16.763 -64.117  23.069  1.00  0.00    -0.341 N 
HETATM    8  H   UNL     1     -15.834 -64.378  22.751  1.00  0.00     0.167 HD
BRANCH   7   9
HETATM    9  C   UNL     1     -17.179 -62.847  22.637  1.00  0.00     0.035 A 
HETATM   10  C   UNL     1     -16.789 -61.702  23.337  1.00  0.00     0.059 A 
HETATM   11  C   UNL     1     -17.202 -60.441  22.906  1.00  0.00     0.036 A 
HETATM   12  C   UNL     1     -18.007 -60.320  21.774  1.00  0.00     0.029 A 
HETATM   13  C   UNL     1     -18.400 -61.459  21.072  1.00  0.00     0.004 A 
HETATM   14  C   UNL     1     -17.987 -62.720  21.504  1.00  0.00     0.029 A 
BRANCH  11  15
HETATM   15  N   UNL     1     -16.808 -59.301  23.608  1.00  0.00    -0.327 N 
HETATM   16  C   UNL     1     -15.548 -58.699  23.636  1.00  0.00     0.226 C 
HETATM   17  O   UNL     1     -14.534 -59.054  23.049  1.00  0.00    -0.273 OA
HETATM   18  H   UNL     1     -17.536 -58.864  24.169  1.00  0.00     0.169 HD
BRANCH  16  19
HETATM   19  C   UNL     1     -15.479 -57.479  24.500  1.00  0.00     0.078 A 
HETATM   20  C   UNL     1     -16.387 -57.394  25.676  1.00  0.00     0.015 A 
HETATM   21  C   UNL     1     -16.627 -56.531  24.473  1.00  0.00     0.015 A 
ENDBRANCH  16  19
ENDBRANCH  11  15
ENDBRANCH   7   9
ENDBRANCH   3   7
BRANCH   5  22
HETATM   22  N   UNL     1     -17.125 -68.686  24.421  1.00  0.00    -0.341 N 
HETATM   23  H   UNL     1     -16.141 -68.796  24.656  1.00  0.00     0.167 HD
BRANCH  22  24
HETATM   24  C   UNL     1     -17.655 -69.821  23.772  1.00  0.00     0.034 A 
HETATM   25  C   UNL     1     -18.194 -70.867  24.522  1.00  0.00     0.045 A 
HETATM   26  C   UNL     1     -18.719 -71.987  23.880  1.00  0.00     0.050 A 
HETATM   27  C   UNL     1     -18.706 -72.063  22.487  1.00  0.00     0.016 A 
HETATM   28  C   UNL     1     -18.167 -71.018  21.736  1.00  0.00     0.003 A 
HETATM   29  C   UNL     1     -17.642 -69.897  22.379  1.00  0.00     0.029 A 
BRANCH  26  30
HETATM   30  C   UNL     1     -19.295 -73.106  24.682  1.00  0.00     0.417 C 
HETATM   31  F   UNL     1     -20.656 -73.064  24.781  1.00  0.00    -0.166 F 
HETATM   32  F   UNL     1     -19.012 -74.342  24.176  1.00  0.00    -0.166 F 
HETATM   33  F   UNL     1     -18.835 -73.122  25.967  1.00  0.00    -0.166 F 
ENDBRANCH  26  30
ENDBRANCH  22  24
ENDBRANCH   5  22
TORSDOF 7
ENDMDL
MODEL 4
REMARK VINA RESULT:      -6.1      1.589      2.059
REMARK  7 active torsions:
REMARK  status: ('A' for Active; 'I' for Inactive)
REMARK       I    between atoms: N_5  and  C_13 
REMARK    1  A    between atoms: N_5  and  C_14 
REMARK    2  A    between atoms: N_6  and  C_17 
REMARK    3  A    between atoms: N_6  and  C_20 
REMARK    4  A    between atoms: N_7  and  C_21 
REMARK    5  A    between atoms: N_7  and  C_23 
REMARK    6  A    between atoms: C_10  and  C_13 
REMARK    7  A    between atoms: C_24  and  C_29 
ROOT
HETATM    1  N   UNL     1     -19.704 -63.752  24.571  1.00  0.00    -0.224 NA
HETATM    2  N   UNL     1     -19.344 -62.166  22.792  1.00  0.00    -0.224 NA
HETATM    3  C   UNL     1     -18.461 -63.475  25.018  1.00  0.00     0.133 A 
HETATM    4  C   UNL     1     -17.613 -62.569  24.415  1.00  0.00     0.100 A 
HETATM    5  C   UNL     1     -18.108 -61.933  23.291  1.00  0.00     0.133 A 
HETATM    6  C   UNL     1     -20.075 -63.072  23.469  1.00  0.00     0.237 A 
ENDROOT
BRANCH   3   7
HETATM    7  N   UNL     1     -17.986 -64.146  26.172  1.00  0.00    -0.341 N 
HETATM    8  H   UNL     1     -17.817 -63.526  26.959  1.00  0.00     0.167 HD
BRANCH   7   9
HETATM    9  C   UNL     1     -17.712 -65.498  26.437  1.00  0.00     0.035 A 
HETATM   10  C   UNL     1     -17.481 -66.389  25.386  1.00  0.00     0.059 A 
HETATM   11  C   UNL     1     -17.208 -67.730  25.650  1.00  0.00     0.036 A 
HETATM   12  C   UNL     1     -17.164 -68.187  26.968  1.00  0.00     0.029 A 
HETATM   13  C   UNL     1     -17.393 -67.302  28.021  1.00  0.00     0.004 A 
HETATM   14  C   UNL     1     -17.668 -65.960  27.756  1.00  0.00     0.029 A 
BRANCH  11  15
HETATM   15  N   UNL     1     -16.976 -68.617  24.597  1.00  0.00    -0.327 N 
HETATM   16  C   UNL     1     -17.889 -69.472  23.976  1.00  0.00     0.226 C 
HETATM   17  O   UNL     1     -19.077 -69.615  24.231  1.00  0.00    -0.273 OA
HETATM   18  H   UNL     1     -16.020 -68.638  24.251  1.00  0.00     0.169 HD
BRANCH  16  19
HETATM   19  C   UNL     1     -17.296 -70.290  22.871  1.00  0.00     0.078 A 
HETATM   20  C   UNL     1     -17.519 -69.848  21.468  1.00  0.00     0.015 A 
HETATM   21  C   UNL     1     -18.217 -71.066  21.997  1.00  0.00     0.015 A 
ENDBRANCH  16  19
ENDBRANCH  11  15
ENDBRANCH   7   9
ENDBRANCH   3   7
BRANCH   5  22
HETATM   22  N   UNL     1     -17.273 -61.000  22.645  1.00  0.00    -0.341 N 
HETATM   23  H   UNL     1     -17.018 -61.285  21.702  1.00  0.00     0.167 HD
BRANCH  22  24
HETATM   24  C   UNL     1     -16.473 -59.943  23.126  1.00  0.00     0.034 A 
HETATM   25  C   UNL     1     -17.067 -58.841  23.740  1.00  0.00     0.045 A 
HETATM   26  C   UNL     1     -16.275 -57.796  24.216  1.00  0.00     0.050 A 
HETATM   27  C   UNL     1     -14.889 -57.853  24.077  1.00  0.00     0.016 A 
HETATM   28  C   UNL     1     -14.294 -58.955  23.462  1.00  0.00     0.003 A 
HETATM   29  C   UNL     1     -15.086 -60.000  22.986  1.00  0.00     0.029 A 
BRANCH  26  30
HETATM   30  C   UNL     1     -16.911 -56.618  24.874  1.00  0.00     0.417 C 
HETATM   31  F   UNL     1     -16.857 -56.657  26.238  1.00  0.00    -0.166 F 
HETATM   32  F   UNL     1     -16.339 -55.426  24.529  1.00  0.00    -0.166 F 
HETATM   33  F   UNL     1     -18.234 -56.493  24.563  1.00  0.00    -0.166 F 
ENDBRANCH  26  30
ENDBRANCH  22  24
ENDBRANCH   5  22
TORSDOF 7
ENDMDL
MODEL 5
REMARK VINA RESULT:      -6.1      1.596      2.201
REMARK  7 active torsions:
REMARK  status: ('A' for Active; 'I' for Inactive)
REMARK       I    between atoms: N_5  and  C_13 
REMARK    1  A    between atoms: N_5  and  C_14 
REMARK    2  A    between atoms: N_6  and  C_17 
REMARK    3  A    between atoms: N_6  and  C_20 
REMARK    4  A    between atoms: N_7  and  C_21 
REMARK    5  A    between atoms: N_7  and  C_23 
REMARK    6  A    between atoms: C_10  and  C_13 
REMARK    7  A    between atoms: C_24  and  C_29 
ROOT
HETATM    1  N   UNL     1     -17.987 -62.082  21.348  1.00  0.00    -0.224 NA
HETATM    2  N   UNL     1     -17.488 -59.904  22.249  1.00  0.00    -0.224 NA
HETATM    3  C   UNL     1     -17.097 -62.605  22.217  1.00  0.00     0.133 A 
HETATM    4  C   UNL     1     -16.375 -61.851  23.120  1.00  0.00     0.100 A 
HETATM    5  C   UNL     1     -16.609 -60.488  23.095  1.00  0.00     0.133 A 
HETATM    6  C   UNL     1     -18.130 -60.745  21.416  1.00  0.00     0.237 A 
ENDROOT
BRANCH   3   7
HETATM    7  N   UNL     1     -16.881 -64.004  22.214  1.00  0.00    -0.341 N 
HETATM    8  H   UNL     1     -16.307 -64.324  21.438  1.00  0.00     0.167 HD
BRANCH   7   9
HETATM    9  C   UNL     1     -17.300 -65.030  23.077  1.00  0.00     0.035 A 
HETATM   10  C   UNL     1     -17.267 -66.362  22.656  1.00  0.00     0.059 A 
HETATM   11  C   UNL     1     -17.682 -67.380  23.514  1.00  0.00     0.036 A 
HETATM   12  C   UNL     1     -18.133 -67.070  24.798  1.00  0.00     0.029 A 
HETATM   13  C   UNL     1     -18.168 -65.742  25.222  1.00  0.00     0.004 A 
HETATM   14  C   UNL     1     -17.754 -64.724  24.363  1.00  0.00     0.029 A 
BRANCH  11  15
HETATM   15  N   UNL     1     -17.646 -68.709  23.090  1.00  0.00    -0.327 N 
HETATM   16  C   UNL     1     -18.706 -69.498  22.639  1.00  0.00     0.226 C 
HETATM   17  O   UNL     1     -19.883 -69.180  22.525  1.00  0.00    -0.273 OA
HETATM   18  H   UNL     1     -16.729 -69.150  23.123  1.00  0.00     0.169 HD
BRANCH  16  19
HETATM   19  C   UNL     1     -18.306 -70.891  22.261  1.00  0.00     0.078 A 
HETATM   20  C   UNL     1     -19.367 -71.832  21.812  1.00  0.00     0.015 A 
HETATM   21  C   UNL     1     -18.719 -72.009  23.153  1.00  0.00     0.015 A 
ENDBRANCH  16  19
ENDBRANCH  11  15
ENDBRANCH   7   9
ENDBRANCH   3   7
BRANCH   5  22
HETATM   22  N   UNL     1     -15.892 -59.684  24.002  1.00  0.00    -0.341 N 
HETATM   23  H   UNL     1     -14.980 -60.069  24.236  1.00  0.00     0.167 HD
BRANCH  22  24
HETATM   24  C   UNL     1     -16.285 -58.655  24.882  1.00  0.00     0.034 A 
HETATM   25  C   UNL     1     -16.298 -57.330  24.446  1.00  0.00     0.045 A 
HETATM   26  C   UNL     1     -16.688 -56.313  25.316  1.00  0.00     0.050 A 
HETATM   27  C   UNL     1     -17.065 -56.620  26.624  1.00  0.00     0.016 A 
HETATM   28  C   UNL     1     -17.052 -57.944  27.061  1.00  0.00     0.003 A 
HETATM   29  C   UNL     1     -16.662 -58.962  26.189  1.00  0.00     0.029 A 
BRANCH  26  30
HETATM   30  C   UNL     1     -16.702 -54.895  24.850  1.00  0.00     0.417 C 
HETATM   31  F   UNL     1     -17.911 -54.492  24.359  1.00  0.00    -0.166 F 
HETATM   32  F   UNL     1     -16.397 -53.995  25.831  1.00  0.00    -0.166 F 
HETATM   33  F   UNL     1     -15.804 -54.663  23.848  1.00  0.00    -0.166 F 
ENDBRANCH  26  30
ENDBRANCH  22  24
ENDBRANCH   5  22
TORSDOF 7
ENDMDL
MODEL 6
REMARK VINA RESULT:      -6.1      3.423      4.181
REMARK  7 active torsions:
REMARK  status: ('A' for Active; 'I' for Inactive)
REMARK       I    between atoms: N_5  and  C_13 
REMARK    1  A    between atoms: N_5  and  C_14 
REMARK    2  A    between atoms: N_6  and  C_17 
REMARK    3  A    between atoms: N_6  and  C_20 
REMARK    4  A    between atoms: N_7  and  C_21 
REMARK    5  A    between atoms: N_7  and  C_23 
REMARK    6  A    between atoms: C_10  and  C_13 
REMARK    7  A    between atoms: C_24  and  C_29 
ROOT
HETATM    1  N   UNL     1     -17.744 -63.569  28.334  1.00  0.00    -0.224 NA
HETATM    2  N   UNL     1     -16.880 -61.457  29.108  1.00  0.00    -0.224 NA
HETATM    3  C   UNL     1     -18.105 -62.958  27.186  1.00  0.00     0.133 A 
HETATM    4  C   UNL     1     -17.890 -61.619  26.929  1.00  0.00     0.100 A 
HETATM    5  C   UNL     1     -17.266 -60.903  27.935  1.00  0.00     0.133 A 
HETATM    6  C   UNL     1     -17.146 -62.771  29.238  1.00  0.00     0.237 A 
ENDROOT
BRANCH   3   7
HETATM    7  N   UNL     1     -18.743 -63.722  26.178  1.00  0.00    -0.341 N 
HETATM    8  H   UNL     1     -19.731 -63.881  26.354  1.00  0.00     0.167 HD
BRANCH   7   9
HETATM    9  C   UNL     1     -18.275 -64.292  24.982  1.00  0.00     0.035 A 
HETATM   10  C   UNL     1     -17.996 -65.660  24.916  1.00  0.00     0.059 A 
HETATM   11  C   UNL     1     -17.533 -66.225  23.729  1.00  0.00     0.036 A 
HETATM   12  C   UNL     1     -17.346 -65.425  22.601  1.00  0.00     0.029 A 
HETATM   13  C   UNL     1     -17.623 -64.060  22.662  1.00  0.00     0.004 A 
HETATM   14  C   UNL     1     -18.086 -63.494  23.850  1.00  0.00     0.029 A 
BRANCH  11  15
HETATM   15  N   UNL     1     -17.257 -67.592  23.668  1.00  0.00    -0.327 N 
HETATM   16  C   UNL     1     -18.145 -68.640  23.415  1.00  0.00     0.226 C 
HETATM   17  O   UNL     1     -19.347 -68.568  23.196  1.00  0.00    -0.273 OA
HETATM   18  H   UNL     1     -16.285 -67.846  23.835  1.00  0.00     0.169 HD
BRANCH  16  19
HETATM   19  C   UNL     1     -17.504 -69.992  23.423  1.00  0.00     0.078 A 
HETATM   20  C   UNL     1     -17.440 -70.750  22.143  1.00  0.00     0.015 A 
HETATM   21  C   UNL     1     -18.374 -71.185  23.234  1.00  0.00     0.015 A 
ENDBRANCH  16  19
ENDBRANCH  11  15
ENDBRANCH   7   9
ENDBRANCH   3   7
BRANCH   5  22
HETATM   22  N   UNL     1     -17.027 -59.534  27.713  1.00  0.00    -0.341 N 
HETATM   23  H   UNL     1     -17.427 -58.940  28.436  1.00  0.00     0.167 HD
BRANCH  22  24
HETATM   24  C   UNL     1     -16.644 -58.805  26.568  1.00  0.00     0.034 A 
HETATM   25  C   UNL     1     -15.996 -59.450  25.514  1.00  0.00     0.045 A 
HETATM   26  C   UNL     1     -15.619 -58.729  24.382  1.00  0.00     0.050 A 
HETATM   27  C   UNL     1     -15.889 -57.363  24.303  1.00  0.00     0.016 A 
HETATM   28  C   UNL     1     -16.536 -56.717  25.356  1.00  0.00     0.003 A 
HETATM   29  C   UNL     1     -16.914 -57.439  26.489  1.00  0.00     0.029 A 
BRANCH  26  30
HETATM   30  C   UNL     1     -14.926 -59.418  23.254  1.00  0.00     0.417 C 
HETATM   31  F   UNL     1     -13.830 -58.747  22.793  1.00  0.00    -0.166 F 
HETATM   32  F   UNL     1     -14.472 -60.666  23.574  1.00  0.00    -0.166 F 
HETATM   33  F   UNL     1     -15.735 -59.590  22.167  1.00  0.00    -0.166 F 
ENDBRANCH  26  30
ENDBRANCH  22  24
ENDBRANCH   5  22
TORSDOF 7
ENDMDL
MODEL 7
REMARK VINA RESULT:      -6.0      5.371     10.670
REMARK  7 active torsions:
REMARK  status: ('A' for Active; 'I' for Inactive)
REMARK       I    between atoms: N_5  and  C_13 
REMARK    1  A    between atoms: N_5  and  C_14 
REMARK    2  A    between atoms: N_6  and  C_17 
REMARK    3  A    between atoms: N_6  and  C_20 
REMARK    4  A    between atoms: N_7  and  C_21 
REMARK    5  A    between atoms: N_7  and  C_23 
REMARK    6  A    between atoms: C_10  and  C_13 
REMARK    7  A    between atoms: C_24  and  C_29 
ROOT
HETATM    1  N   UNL     1     -19.496 -61.670  22.374  1.00  0.00    -0.224 NA
HETATM    2  N   UNL     1     -19.195 -64.034  22.731  1.00  0.00    -0.224 NA
HETATM    3  C   UNL     1     -18.155 -61.552  22.280  1.00  0.00     0.133 A 
HETATM    4  C   UNL     1     -17.281 -62.613  22.398  1.00  0.00     0.100 A 
HETATM    5  C   UNL     1     -17.859 -63.850  22.627  1.00  0.00     0.133 A 
HETATM    6  C   UNL     1     -19.941 -62.921  22.598  1.00  0.00     0.237 A 
ENDROOT
BRANCH   3   7
HETATM    7  N   UNL     1     -17.598 -60.271  22.047  1.00  0.00    -0.341 N 
HETATM    8  H   UNL     1     -17.940 -59.829  21.198  1.00  0.00     0.167 HD
BRANCH   7   9
HETATM    9  C   UNL     1     -16.674 -59.494  22.765  1.00  0.00     0.035 A 
HETATM   10  C   UNL     1     -17.115 -58.447  23.579  1.00  0.00     0.059 A 
HETATM   11  C   UNL     1     -16.197 -57.677  24.292  1.00  0.00     0.036 A 
HETATM   12  C   UNL     1     -14.832 -57.952  24.195  1.00  0.00     0.029 A 
HETATM   13  C   UNL     1     -14.387 -58.996  23.385  1.00  0.00     0.004 A 
HETATM   14  C   UNL     1     -15.306 -59.765  22.671  1.00  0.00     0.029 A 
BRANCH  11  15
HETATM   15  N   UNL     1     -16.642 -56.633  25.104  1.00  0.00    -0.327 N 
HETATM   16  C   UNL     1     -16.995 -56.683  26.454  1.00  0.00     0.226 C 
HETATM   17  O   UNL     1     -16.984 -57.655  27.198  1.00  0.00    -0.273 OA
HETATM   18  H   UNL     1     -16.721 -55.729  24.643  1.00  0.00     0.169 HD
BRANCH  16  19
HETATM   19  C   UNL     1     -17.432 -55.365  27.015  1.00  0.00     0.078 A 
HETATM   20  C   UNL     1     -18.615 -54.697  26.408  1.00  0.00     0.015 A 
HETATM   21  C   UNL     1     -17.238 -54.147  26.182  1.00  0.00     0.015 A 
ENDBRANCH  16  19
ENDBRANCH  11  15
ENDBRANCH   7   9
ENDBRANCH   3   7
BRANCH   5  22
HETATM   22  N   UNL     1     -17.001 -64.959  22.753  1.00  0.00    -0.341 N 
HETATM   23  H   UNL     1     -16.151 -64.867  22.201  1.00  0.00     0.167 HD
BRANCH  22  24
HETATM   24  C   UNL     1     -17.207 -66.278  23.210  1.00  0.00     0.034 A 
HETATM   25  C   UNL     1     -17.389 -67.314  22.295  1.00  0.00     0.045 A 
HETATM   26  C   UNL     1     -17.591 -68.617  22.748  1.00  0.00     0.050 A 
HETATM   27  C   UNL     1     -17.610 -68.885  24.117  1.00  0.00     0.016 A 
HETATM   28  C   UNL     1     -17.428 -67.849  25.033  1.00  0.00     0.003 A 
HETATM   29  C   UNL     1     -17.226 -66.545  24.579  1.00  0.00     0.029 A 
BRANCH  26  30
HETATM   30  C   UNL     1     -17.786 -69.726  21.770  1.00  0.00     0.417 C 
HETATM   31  F   UNL     1     -17.241 -69.477  20.543  1.00  0.00    -0.166 F 
HETATM   32  F   UNL     1     -17.236 -70.911  22.170  1.00  0.00    -0.166 F 
HETATM   33  F   UNL     1     -19.104 -69.995  21.536  1.00  0.00    -0.166 F 
ENDBRANCH  26  30
ENDBRANCH  22  24
ENDBRANCH   5  22
TORSDOF 7
ENDMDL
MODEL 8
REMARK VINA RESULT:      -6.0      2.689      4.198
REMARK  7 active torsions:
REMARK  status: ('A' for Active; 'I' for Inactive)
REMARK       I    between atoms: N_5  and  C_13 
REMARK    1  A    between atoms: N_5  and  C_14 
REMARK    2  A    between atoms: N_6  and  C_17 
REMARK    3  A    between atoms: N_6  and  C_20 
REMARK    4  A    between atoms: N_7  and  C_21 
REMARK    5  A    between atoms: N_7  and  C_23 
REMARK    6  A    between atoms: C_10  and  C_13 
REMARK    7  A    between atoms: C_24  and  C_29 
ROOT
HETATM    1  N   UNL     1     -18.679 -66.883  24.812  1.00  0.00    -0.224 NA
HETATM    2  N   UNL     1     -18.618 -64.628  23.965  1.00  0.00    -0.224 NA
HETATM    3  C   UNL     1     -17.654 -67.181  23.987  1.00  0.00     0.133 A 
HETATM    4  C   UNL     1     -17.066 -66.269  23.134  1.00  0.00     0.100 A 
HETATM    5  C   UNL     1     -17.592 -64.989  23.161  1.00  0.00     0.133 A 
HETATM    6  C   UNL     1     -19.106 -65.607  24.750  1.00  0.00     0.237 A 
ENDROOT
BRANCH   3   7
HETATM    7  N   UNL     1     -17.141 -68.501  23.985  1.00  0.00    -0.341 N 
HETATM    8  H   UNL     1     -16.168 -68.558  24.273  1.00  0.00     0.167 HD
BRANCH   7   9
HETATM    9  C   UNL     1     -17.718 -69.742  23.669  1.00  0.00     0.035 A 
HETATM   10  C   UNL     1     -18.410 -70.466  24.644  1.00  0.00     0.059 A 
HETATM   11  C   UNL     1     -18.984 -71.697  24.328  1.00  0.00     0.036 A 
HETATM   12  C   UNL     1     -18.869 -72.210  23.036  1.00  0.00     0.029 A 
HETATM   13  C   UNL     1     -18.181 -71.491  22.059  1.00  0.00     0.004 A 
HETATM   14  C   UNL     1     -17.605 -70.260  22.375  1.00  0.00     0.029 A 
BRANCH  11  15
HETATM   15  N   UNL     1     -19.674 -72.416  25.305  1.00  0.00    -0.327 N 
HETATM   16  C   UNL     1     -19.191 -72.894  26.526  1.00  0.00     0.226 C 
HETATM   17  O   UNL     1     -18.062 -72.775  26.984  1.00  0.00    -0.273 OA
HETATM   18  H   UNL     1     -20.648 -72.617  25.089  1.00  0.00     0.169 HD
BRANCH  16  19
HETATM   19  C   UNL     1     -20.213 -73.630  27.335  1.00  0.00     0.078 A 
HETATM   20  C   UNL     1     -20.552 -75.024  26.943  1.00  0.00     0.015 A 
HETATM   21  C   UNL     1     -21.534 -73.914  26.711  1.00  0.00     0.015 A 
ENDBRANCH  16  19
ENDBRANCH  11  15
ENDBRANCH   7   9
ENDBRANCH   3   7
BRANCH   5  22
HETATM   22  N   UNL     1     -17.020 -64.028  22.306  1.00  0.00    -0.341 N 
HETATM   23  H   UNL     1     -16.196 -64.374  21.818  1.00  0.00     0.167 HD
BRANCH  22  24
HETATM   24  C   UNL     1     -17.146 -62.626  22.225  1.00  0.00     0.034 A 
HETATM   25  C   UNL     1     -16.305 -61.804  22.975  1.00  0.00     0.045 A 
HETATM   26  C   UNL     1     -16.429 -60.418  22.894  1.00  0.00     0.050 A 
HETATM   27  C   UNL     1     -17.396 -59.852  22.062  1.00  0.00     0.016 A 
HETATM   28  C   UNL     1     -18.238 -60.673  21.312  1.00  0.00     0.003 A 
HETATM   29  C   UNL     1     -18.113 -62.060  21.394  1.00  0.00     0.029 A 
BRANCH  26  30
HETATM   30  C   UNL     1     -15.529 -59.539  23.696  1.00  0.00     0.417 C 
HETATM   31  F   UNL     1     -15.659 -58.211  23.405  1.00  0.00    -0.166 F 
HETATM   32  F   UNL     1     -15.735 -59.631  25.043  1.00  0.00    -0.166 F 
HETATM   33  F   UNL     1     -14.208 -59.828  23.506  1.00  0.00    -0.166 F 
ENDBRANCH  26  30
ENDBRANCH  22  24
ENDBRANCH   5  22
TORSDOF 7
ENDMDL
MODEL 9
REMARK VINA RESULT:      -5.8      2.634      4.192
REMARK  7 active torsions:
REMARK  status: ('A' for Active; 'I' for Inactive)
REMARK       I    between atoms: N_5  and  C_13 
REMARK    1  A    between atoms: N_5  and  C_14 
REMARK    2  A    between atoms: N_6  and  C_17 
REMARK    3  A    between atoms: N_6  and  C_20 
REMARK    4  A    between atoms: N_7  and  C_21 
REMARK    5  A    between atoms: N_7  and  C_23 
REMARK    6  A    between atoms: C_10  and  C_13 
REMARK    7  A    between atoms: C_24  and  C_29 
ROOT
HETATM    1  N   UNL     1     -18.047 -62.130  21.262  1.00  0.00    -0.224 NA
HETATM    2  N   UNL     1     -17.490 -59.919  22.042  1.00  0.00    -0.224 NA
HETATM    3  C   UNL     1     -17.182 -62.628  22.170  1.00  0.00     0.133 A 
HETATM    4  C   UNL     1     -16.445 -61.845  23.037  1.00  0.00     0.100 A 
HETATM    5  C   UNL     1     -16.638 -60.480  22.931  1.00  0.00     0.133 A 
HETATM    6  C   UNL     1     -18.150 -60.788  21.252  1.00  0.00     0.237 A 
ENDROOT
BRANCH   3   7
HETATM    7  N   UNL     1     -17.009 -64.031  22.251  1.00  0.00    -0.341 N 
HETATM    8  H   UNL     1     -16.331 -64.394  21.587  1.00  0.00     0.167 HD
BRANCH   7   9
HETATM    9  C   UNL     1     -17.588 -65.012  23.073  1.00  0.00     0.035 A 
HETATM   10  C   UNL     1     -17.389 -64.978  24.456  1.00  0.00     0.059 A 
HETATM   11  C   UNL     1     -17.965 -65.952  25.271  1.00  0.00     0.036 A 
HETATM   12  C   UNL     1     -18.744 -66.963  24.708  1.00  0.00     0.029 A 
HETATM   13  C   UNL     1     -18.945 -67.001  23.328  1.00  0.00     0.004 A 
HETATM   14  C   UNL     1     -18.368 -66.028  22.512  1.00  0.00     0.029 A 
BRANCH  11  15
HETATM   15  N   UNL     1     -17.765 -65.914  26.652  1.00  0.00    -0.327 N 
HETATM   16  C   UNL     1     -17.316 -66.941  27.486  1.00  0.00     0.226 C 
HETATM   17  O   UNL     1     -17.007 -68.082  27.170  1.00  0.00    -0.273 OA
HETATM   18  H   UNL     1     -17.981 -65.025  27.097  1.00  0.00     0.169 HD
BRANCH  16  19
HETATM   19  C   UNL     1     -17.216 -66.550  28.927  1.00  0.00     0.078 A 
HETATM   20  C   UNL     1     -17.573 -65.156  29.307  1.00  0.00     0.015 A 
HETATM   21  C   UNL     1     -16.140 -65.602  29.327  1.00  0.00     0.015 A 
ENDBRANCH  16  19
ENDBRANCH  11  15
ENDBRANCH   7   9
ENDBRANCH   3   7
BRANCH   5  22
HETATM   22  N   UNL     1     -15.905 -59.646  23.797  1.00  0.00    -0.341 N 
HETATM   23  H   UNL     1     -14.958 -59.980  23.959  1.00  0.00     0.167 HD
BRANCH  22  24
HETATM   24  C   UNL     1     -16.292 -58.652  24.720  1.00  0.00     0.034 A 
HETATM   25  C   UNL     1     -16.306 -57.311  24.336  1.00  0.00     0.045 A 
HETATM   26  C   UNL     1     -16.690 -56.329  25.249  1.00  0.00     0.050 A 
HETATM   27  C   UNL     1     -17.061 -56.687  26.545  1.00  0.00     0.016 A 
HETATM   28  C   UNL     1     -17.048 -58.028  26.928  1.00  0.00     0.003 A 
HETATM   29  C   UNL     1     -16.663 -59.011  26.015  1.00  0.00     0.029 A 
BRANCH  26  30
HETATM   30  C   UNL     1     -16.705 -54.894  24.839  1.00  0.00     0.417 C 
HETATM   31  F   UNL     1     -15.773 -54.586  23.890  1.00  0.00    -0.166 F 
HETATM   32  F   UNL     1     -17.897 -54.488  24.313  1.00  0.00    -0.166 F 
HETATM   33  F   UNL     1     -16.458 -54.048  25.882  1.00  0.00    -0.166 F 
ENDBRANCH  26  30
ENDBRANCH  22  24
ENDBRANCH   5  22
TORSDOF 7
ENDMDL
