MODEL 1
REMARK VINA RESULT:      -6.4      0.000      0.000
REMARK  7 active torsions:
REMARK  status: ('A' for Active; 'I' for Inactive)
REMARK       I    between atoms: N_5  and  C_13 
REMARK    1  A    between atoms: N_5  and  C_14 
REMARK    2  A    between atoms: N_6  and  C_17 
REMARK    3  A    between atoms: N_6  and  C_20 
REMARK    4  A    between atoms: N_7  and  C_21 
REMARK    5  A    between atoms: N_7  and  C_23 
REMARK    6  A    between atoms: C_10  and  C_13 
REMARK    7  A    between atoms: C_24  and  C_29 
ROOT
HETATM    1  N   UNL     1     -19.283 -63.946  22.739  1.00  0.00    -0.224 NA
HETATM    2  N   UNL     1     -19.445 -61.562  22.427  1.00  0.00    -0.224 NA
HETATM    3  C   UNL     1     -17.953 -63.845  22.535  1.00  0.00     0.133 A 
HETATM    4  C   UNL     1     -17.306 -62.654  22.276  1.00  0.00     0.100 A 
HETATM    5  C   UNL     1     -18.106 -61.527  22.231  1.00  0.00     0.133 A 
HETATM    6  C   UNL     1     -19.958 -62.783  22.671  1.00  0.00     0.237 A 
ENDROOT
BRANCH   3   7
HETATM    7  N   UNL     1     -17.164 -65.020  22.587  1.00  0.00    -0.341 N 
HETATM    8  H   UNL     1     -16.407 -65.029  21.909  1.00  0.00     0.167 HD
BRANCH   7   9
HETATM    9  C   UNL     1     -17.222 -66.165  23.398  1.00  0.00     0.035 A 
HETATM   10  C   UNL     1     -17.915 -67.299  22.966  1.00  0.00     0.059 A 
HETATM   11  C   UNL     1     -17.970 -68.437  23.771  1.00  0.00     0.036 A 
HETATM   12  C   UNL     1     -17.333 -68.445  25.012  1.00  0.00     0.029 A 
HETATM   13  C   UNL     1     -16.640 -67.316  25.447  1.00  0.00     0.004 A 
HETATM   14  C   UNL     1     -16.585 -66.178  24.642  1.00  0.00     0.029 A 
BRANCH  11  15
HETATM   15  N   UNL     1     -18.663 -69.567  23.335  1.00  0.00    -0.327 N 
HETATM   16  C   UNL     1     -18.243 -70.535  22.419  1.00  0.00     0.226 C 
HETATM   17  O   UNL     1     -17.179 -70.585  21.816  1.00  0.00    -0.273 OA
HETATM   18  H   UNL     1     -19.590 -69.689  23.736  1.00  0.00     0.169 HD
BRANCH  16  19
HETATM   19  C   UNL     1     -19.246 -71.620  22.183  1.00  0.00     0.078 A 
HETATM   20  C   UNL     1     -20.197 -71.953  23.277  1.00  0.00     0.015 A 
HETATM   21  C   UNL     1     -19.088 -72.900  22.926  1.00  0.00     0.015 A 
ENDBRANCH  16  19
ENDBRANCH  11  15
ENDBRANCH   7   9
ENDBRANCH   3   7
BRANCH   5  22
HETATM   22  N   UNL     1     -17.484 -60.291  21.969  1.00  0.00    -0.341 N 
HETATM   23  H   UNL     1     -17.442 -60.073  20.976  1.00  0.00     0.167 HD
BRANCH  22  24
HETATM   24  C   UNL     1     -16.640 -59.465  22.740  1.00  0.00     0.034 A 
HETATM   25  C   UNL     1     -17.181 -58.423  23.493  1.00  0.00     0.045 A 
HETATM   26  C   UNL     1     -16.346 -57.608  24.257  1.00  0.00     0.050 A 
HETATM   27  C   UNL     1     -14.969 -57.834  24.266  1.00  0.00     0.016 A 
HETATM   28  C   UNL     1     -14.428 -58.875  23.513  1.00  0.00     0.003 A 
HETATM   29  C   UNL     1     -15.264 -59.691  22.750  1.00  0.00     0.029 A 
BRANCH  26  30
HETATM   30  C   UNL     1     -16.924 -56.494  25.063  1.00  0.00     0.417 C 
HETATM   31  F   UNL     1     -16.473 -55.259  24.693  1.00  0.00    -0.166 F 
HETATM   32  F   UNL     1     -18.285 -56.413  24.986  1.00  0.00    -0.166 F 
HETATM   33  F   UNL     1     -16.638 -56.605  26.393  1.00  0.00    -0.166 F 
ENDBRANCH  26  30
ENDBRANCH  22  24
ENDBRANCH   5  22
TORSDOF 7
ENDMDL
MODEL 2
REMARK VINA RESULT:      -6.3      5.752     11.109
REMARK  7 active torsions:
REMARK  status: ('A' for Active; 'I' for Inactive)
REMARK       I    between atoms: N_5  and  C_13 
REMARK    1  A    between atoms: N_5  and  C_14 
REMARK    2  A    between atoms: N_6  and  C_17 
REMARK    3  A    between atoms: N_6  and  C_20 
REMARK    4  A    between atoms: N_7  and  C_21 
REMARK    5  A    between atoms: N_7  and  C_23 
REMARK    6  A    between atoms: C_10  and  C_13 
REMARK    7  A    between atoms: C_24  and  C_29 
ROOT
HETATM    1  N   UNL     1     -18.816 -64.693  23.533  1.00  0.00    -0.224 NA
HETATM    2  N   UNL     1     -18.932 -67.052  24.010  1.00  0.00    -0.224 NA
HETATM    3  C   UNL     1     -17.709 -64.934  22.800  1.00  0.00     0.133 A 
HETATM    4  C   UNL     1     -17.161 -66.189  22.627  1.00  0.00     0.100 A 
HETATM    5  C   UNL     1     -17.819 -67.228  23.261  1.00  0.00     0.133 A 
HETATM    6  C   UNL     1     -19.368 -65.781  24.102  1.00  0.00     0.237 A 
ENDROOT
BRANCH   3   7
HETATM    7  N   UNL     1     -17.061 -63.846  22.166  1.00  0.00    -0.341 N 
HETATM    8  H   UNL     1     -16.147 -64.082  21.790  1.00  0.00     0.167 HD
BRANCH   7   9
HETATM    9  C   UNL     1     -17.440 -62.510  21.952  1.00  0.00     0.035 A 
HETATM   10  C   UNL     1     -16.978 -61.502  22.802  1.00  0.00     0.059 A 
HETATM   11  C   UNL     1     -17.354 -60.177  22.587  1.00  0.00     0.036 A 
HETATM   12  C   UNL     1     -18.194 -59.853  21.521  1.00  0.00     0.029 A 
HETATM   13  C   UNL     1     -18.658 -60.856  20.670  1.00  0.00     0.004 A 
HETATM   14  C   UNL     1     -18.282 -62.182  20.885  1.00  0.00     0.029 A 
BRANCH  11  15
HETATM   15  N   UNL     1     -16.890 -59.173  23.438  1.00  0.00    -0.327 N 
HETATM   16  C   UNL     1     -15.583 -58.702  23.582  1.00  0.00     0.226 C 
HETATM   17  O   UNL     1     -14.581 -59.077  22.987  1.00  0.00    -0.273 OA
HETATM   18  H   UNL     1     -17.599 -58.741  24.027  1.00  0.00     0.169 HD
BRANCH  16  19
HETATM   19  C   UNL     1     -15.441 -57.608  24.594  1.00  0.00     0.078 A 
HETATM   20  C   UNL     1     -16.387 -57.582  25.742  1.00  0.00     0.015 A 
HETATM   21  C   UNL     1     -16.495 -56.559  24.649  1.00  0.00     0.015 A 
ENDBRANCH  16  19
ENDBRANCH  11  15
ENDBRANCH   7   9
ENDBRANCH   3   7
BRANCH   5  22
HETATM   22  N   UNL     1     -17.292 -68.525  23.109  1.00  0.00    -0.341 N 
HETATM   23  H   UNL     1     -16.369 -68.529  22.682  1.00  0.00     0.167 HD
BRANCH  22  24
HETATM   24  C   UNL     1     -17.886 -69.804  23.124  1.00  0.00     0.034 A 
HETATM   25  C   UNL     1     -18.104 -70.460  24.335  1.00  0.00     0.045 A 
HETATM   26  C   UNL     1     -18.693 -71.724  24.348  1.00  0.00     0.050 A 
HETATM   27  C   UNL     1     -19.064 -72.333  23.149  1.00  0.00     0.016 A 
HETATM   28  C   UNL     1     -18.845 -71.678  21.937  1.00  0.00     0.003 A 
HETATM   29  C   UNL     1     -18.257 -70.413  21.925  1.00  0.00     0.029 A 
BRANCH  26  30
HETATM   30  C   UNL     1     -18.927 -72.425  25.644  1.00  0.00     0.417 C 
HETATM   31  F   UNL     1     -19.058 -73.778  25.518  1.00  0.00    -0.166 F 
HETATM   32  F   UNL     1     -17.921 -72.247  26.550  1.00  0.00    -0.166 F 
HETATM   33  F   UNL     1     -20.064 -72.004  26.272  1.00  0.00    -0.166 F 
ENDBRANCH  26  30
ENDBRANCH  22  24
ENDBRANCH   5  22
TORSDOF 7
ENDMDL
MODEL 3
REMARK VINA RESULT:      -6.1      5.417     10.852
REMARK  7 active torsions:
REMARK  status: ('A' for Active; 'I' for Inactive)
REMARK       I    between atoms: N_5  and  C_13 
REMARK    1  A    between atoms: N_5  and  C_14 
REMARK    2  A    between atoms: N_6  and  C_17 
REMARK    3  A    between atoms: N_6  and  C_20 
REMARK    4  A    between atoms: N_7  and  C_21 
REMARK    5  A    between atoms: N_7  and  C_23 
REMARK    6  A    between atoms: C_10  and  C_13 
REMARK    7  A    between atoms: C_24  and  C_29 
ROOT
HETATM    1  N   UNL     1     -19.389 -61.666  22.640  1.00  0.00    -0.224 NA
HETATM    2  N   UNL     1     -19.140 -64.042  22.953  1.00  0.00    -0.224 NA
HETATM    3  C   UNL     1     -18.069 -61.601  22.367  1.00  0.00     0.133 A 
HETATM    4  C   UNL     1     -17.231 -62.698  22.367  1.00  0.00     0.100 A 
HETATM    5  C   UNL     1     -17.823 -63.911  22.671  1.00  0.00     0.133 A 
HETATM    6  C   UNL     1     -19.851 -62.899  22.921  1.00  0.00     0.237 A 
ENDROOT
BRANCH   3   7
HETATM    7  N   UNL     1     -17.496 -60.342  22.061  1.00  0.00    -0.341 N 
HETATM    8  H   UNL     1     -17.769 -59.984  21.150  1.00  0.00     0.167 HD
BRANCH   7   9
HETATM    9  C   UNL     1     -16.634 -59.494  22.775  1.00  0.00     0.035 A 
HETATM   10  C   UNL     1     -17.152 -58.451  23.547  1.00  0.00     0.059 A 
HETATM   11  C   UNL     1     -16.294 -57.611  24.257  1.00  0.00     0.036 A 
HETATM   12  C   UNL     1     -14.915 -57.810  24.198  1.00  0.00     0.029 A 
HETATM   13  C   UNL     1     -14.393 -58.851  23.430  1.00  0.00     0.004 A 
HETATM   14  C   UNL     1     -15.251 -59.690  22.719  1.00  0.00     0.029 A 
BRANCH  11  15
HETATM   15  N   UNL     1     -16.816 -56.570  25.027  1.00  0.00    -0.327 N 
HETATM   16  C   UNL     1     -17.116 -56.575  26.391  1.00  0.00     0.226 C 
HETATM   17  O   UNL     1     -16.978 -57.495  27.186  1.00  0.00    -0.273 OA
HETATM   18  H   UNL     1     -17.003 -55.707  24.520  1.00  0.00     0.169 HD
BRANCH  16  19
HETATM   19  C   UNL     1     -17.665 -55.276  26.895  1.00  0.00     0.078 A 
HETATM   20  C   UNL     1     -16.834 -54.052  26.741  1.00  0.00     0.015 A 
HETATM   21  C   UNL     1     -17.036 -54.664  28.096  1.00  0.00     0.015 A 
ENDBRANCH  16  19
ENDBRANCH  11  15
ENDBRANCH   7   9
ENDBRANCH   3   7
BRANCH   5  22
HETATM   22  N   UNL     1     -17.002 -65.055  22.682  1.00  0.00    -0.341 N 
HETATM   23  H   UNL     1     -16.224 -64.989  22.029  1.00  0.00     0.167 HD
BRANCH  22  24
HETATM   24  C   UNL     1     -17.203 -66.370  23.151  1.00  0.00     0.034 A 
HETATM   25  C   UNL     1     -17.391 -67.414  22.246  1.00  0.00     0.045 A 
HETATM   26  C   UNL     1     -17.588 -68.713  22.711  1.00  0.00     0.050 A 
HETATM   27  C   UNL     1     -17.597 -68.970  24.082  1.00  0.00     0.016 A 
HETATM   28  C   UNL     1     -17.409 -67.926  24.988  1.00  0.00     0.003 A 
HETATM   29  C   UNL     1     -17.212 -66.626  24.522  1.00  0.00     0.029 A 
BRANCH  26  30
HETATM   30  C   UNL     1     -17.790 -69.831  21.743  1.00  0.00     0.417 C 
HETATM   31  F   UNL     1     -17.211 -71.004  22.132  1.00  0.00    -0.166 F 
HETATM   32  F   UNL     1     -19.103 -70.136  21.527  1.00  0.00    -0.166 F 
HETATM   33  F   UNL     1     -17.270 -69.557  20.510  1.00  0.00    -0.166 F 
ENDBRANCH  26  30
ENDBRANCH  22  24
ENDBRANCH   5  22
TORSDOF 7
ENDMDL
MODEL 4
REMARK VINA RESULT:      -6.1      1.584      2.240
REMARK  7 active torsions:
REMARK  status: ('A' for Active; 'I' for Inactive)
REMARK       I    between atoms: N_5  and  C_13 
REMARK    1  A    between atoms: N_5  and  C_14 
REMARK    2  A    between atoms: N_6  and  C_17 
REMARK    3  A    between atoms: N_6  and  C_20 
REMARK    4  A    between atoms: N_7  and  C_21 
REMARK    5  A    between atoms: N_7  and  C_23 
REMARK    6  A    between atoms: C_10  and  C_13 
REMARK    7  A    between atoms: C_24  and  C_29 
ROOT
HETATM    1  N   UNL     1     -18.094 -62.221  21.435  1.00  0.00    -0.224 NA
HETATM    2  N   UNL     1     -17.616 -60.010  22.265  1.00  0.00    -0.224 NA
HETATM    3  C   UNL     1     -17.120 -62.693  22.240  1.00  0.00     0.133 A 
HETATM    4  C   UNL     1     -16.362 -61.897  23.075  1.00  0.00     0.100 A 
HETATM    5  C   UNL     1     -16.652 -60.545  23.050  1.00  0.00     0.133 A 
HETATM    6  C   UNL     1     -18.285 -60.889  21.496  1.00  0.00     0.237 A 
ENDROOT
BRANCH   3   7
HETATM    7  N   UNL     1     -16.848 -64.083  22.240  1.00  0.00    -0.341 N 
HETATM    8  H   UNL     1     -16.257 -64.380  21.469  1.00  0.00     0.167 HD
BRANCH   7   9
HETATM    9  C   UNL     1     -17.232 -65.124  23.102  1.00  0.00     0.035 A 
HETATM   10  C   UNL     1     -17.216 -66.449  22.657  1.00  0.00     0.059 A 
HETATM   11  C   UNL     1     -17.596 -67.481  23.514  1.00  0.00     0.036 A 
HETATM   12  C   UNL     1     -17.992 -67.194  24.820  1.00  0.00     0.029 A 
HETATM   13  C   UNL     1     -18.009 -65.874  25.269  1.00  0.00     0.004 A 
HETATM   14  C   UNL     1     -17.630 -64.841  24.411  1.00  0.00     0.029 A 
BRANCH  11  15
HETATM   15  N   UNL     1     -17.578 -68.803  23.065  1.00  0.00    -0.327 N 
HETATM   16  C   UNL     1     -18.582 -69.767  23.186  1.00  0.00     0.226 C 
HETATM   17  O   UNL     1     -19.681 -69.644  23.710  1.00  0.00    -0.273 OA
HETATM   18  H   UNL     1     -16.721 -69.091  22.599  1.00  0.00     0.169 HD
BRANCH  16  19
HETATM   19  C   UNL     1     -18.225 -71.091  22.587  1.00  0.00     0.078 A 
HETATM   20  C   UNL     1     -19.252 -71.799  21.777  1.00  0.00     0.015 A 
HETATM   21  C   UNL     1     -18.876 -72.312  23.136  1.00  0.00     0.015 A 
ENDBRANCH  16  19
ENDBRANCH  11  15
ENDBRANCH   7   9
ENDBRANCH   3   7
BRANCH   5  22
HETATM   22  N   UNL     1     -15.902 -59.698  23.888  1.00  0.00    -0.341 N 
HETATM   23  H   UNL     1     -14.983 -60.076  24.111  1.00  0.00     0.167 HD
BRANCH  22  24
HETATM   24  C   UNL     1     -16.260 -58.621  24.725  1.00  0.00     0.034 A 
HETATM   25  C   UNL     1     -16.213 -57.314  24.240  1.00  0.00     0.045 A 
HETATM   26  C   UNL     1     -16.569 -56.250  25.068  1.00  0.00     0.050 A 
HETATM   27  C   UNL     1     -16.972 -56.492  26.381  1.00  0.00     0.016 A 
HETATM   28  C   UNL     1     -17.019 -57.799  26.866  1.00  0.00     0.003 A 
HETATM   29  C   UNL     1     -16.663 -58.864  26.038  1.00  0.00     0.029 A 
BRANCH  26  30
HETATM   30  C   UNL     1     -16.518 -54.852  24.550  1.00  0.00     0.417 C 
HETATM   31  F   UNL     1     -16.538 -53.903  25.531  1.00  0.00    -0.166 F 
HETATM   32  F   UNL     1     -15.399 -54.582  23.816  1.00  0.00    -0.166 F 
HETATM   33  F   UNL     1     -17.572 -54.556  23.733  1.00  0.00    -0.166 F 
ENDBRANCH  26  30
ENDBRANCH  22  24
ENDBRANCH   5  22
TORSDOF 7
ENDMDL
MODEL 5
REMARK VINA RESULT:      -6.0      2.825      4.108
REMARK  7 active torsions:
REMARK  status: ('A' for Active; 'I' for Inactive)
REMARK       I    between atoms: N_5  and  C_13 
REMARK    1  A    between atoms: N_5  and  C_14 
REMARK    2  A    between atoms: N_6  and  C_17 
REMARK    3  A    between atoms: N_6  and  C_20 
REMARK    4  A    between atoms: N_7  and  C_21 
REMARK    5  A    between atoms: N_7  and  C_23 
REMARK    6  A    between atoms: C_10  and  C_13 
REMARK    7  A    between atoms: C_24  and  C_29 
ROOT
HETATM    1  N   UNL     1     -18.389 -66.428  25.342  1.00  0.00    -0.224 NA
HETATM    2  N   UNL     1     -18.106 -64.143  24.632  1.00  0.00    -0.224 NA
HETATM    3  C   UNL     1     -17.594 -66.806  24.319  1.00  0.00     0.133 A 
HETATM    4  C   UNL     1     -17.025 -65.922  23.424  1.00  0.00     0.100 A 
HETATM    5  C   UNL     1     -17.317 -64.585  23.625  1.00  0.00     0.133 A 
HETATM    6  C   UNL     1     -18.601 -65.102  25.437  1.00  0.00     0.237 A 
ENDROOT
BRANCH   3   7
HETATM    7  N   UNL     1     -17.317 -68.183  24.142  1.00  0.00    -0.341 N 
HETATM    8  H   UNL     1     -16.420 -68.469  24.524  1.00  0.00     0.167 HD
BRANCH   7   9
HETATM    9  C   UNL     1     -18.045 -69.227  23.547  1.00  0.00     0.035 A 
HETATM   10  C   UNL     1     -18.916 -68.964  22.486  1.00  0.00     0.059 A 
HETATM   11  C   UNL     1     -19.637 -70.001  21.896  1.00  0.00     0.036 A 
HETATM   12  C   UNL     1     -19.491 -71.308  22.365  1.00  0.00     0.029 A 
HETATM   13  C   UNL     1     -18.624 -71.576  23.423  1.00  0.00     0.004 A 
HETATM   14  C   UNL     1     -17.903 -70.537  24.014  1.00  0.00     0.029 A 
BRANCH  11  15
HETATM   15  N   UNL     1     -20.504 -69.734  20.836  1.00  0.00    -0.327 N 
HETATM   16  C   UNL     1     -21.895 -69.610  20.871  1.00  0.00     0.226 C 
HETATM   17  O   UNL     1     -22.633 -69.711  21.843  1.00  0.00    -0.273 OA
HETATM   18  H   UNL     1     -20.058 -69.623  19.928  1.00  0.00     0.169 HD
BRANCH  16  19
HETATM   19  C   UNL     1     -22.511 -69.318  19.539  1.00  0.00     0.078 A 
HETATM   20  C   UNL     1     -21.925 -68.226  18.715  1.00  0.00     0.015 A 
HETATM   21  C   UNL     1     -23.261 -68.043  19.374  1.00  0.00     0.015 A 
ENDBRANCH  16  19
ENDBRANCH  11  15
ENDBRANCH   7   9
ENDBRANCH   3   7
BRANCH   5  22
HETATM   22  N   UNL     1     -16.756 -63.651  22.733  1.00  0.00    -0.341 N 
HETATM   23  H   UNL     1     -15.913 -63.995  22.280  1.00  0.00     0.167 HD
BRANCH  22  24
HETATM   24  C   UNL     1     -16.922 -62.259  22.579  1.00  0.00     0.034 A 
HETATM   25  C   UNL     1     -15.979 -61.380  23.113  1.00  0.00     0.045 A 
HETATM   26  C   UNL     1     -16.143 -60.004  22.959  1.00  0.00     0.050 A 
HETATM   27  C   UNL     1     -17.250 -59.506  22.271  1.00  0.00     0.016 A 
HETATM   28  C   UNL     1     -18.194 -60.384  21.738  1.00  0.00     0.003 A 
HETATM   29  C   UNL     1     -18.029 -61.761  21.892  1.00  0.00     0.029 A 
BRANCH  26  30
HETATM   30  C   UNL     1     -15.135 -59.063  23.529  1.00  0.00     0.417 C 
HETATM   31  F   UNL     1     -14.753 -59.376  24.802  1.00  0.00    -0.166 F 
HETATM   32  F   UNL     1     -13.975 -59.006  22.812  1.00  0.00    -0.166 F 
HETATM   33  F   UNL     1     -15.592 -57.778  23.590  1.00  0.00    -0.166 F 
ENDBRANCH  26  30
ENDBRANCH  22  24
ENDBRANCH   5  22
TORSDOF 7
ENDMDL
MODEL 6
REMARK VINA RESULT:      -5.9      2.765      4.260
REMARK  7 active torsions:
REMARK  status: ('A' for Active; 'I' for Inactive)
REMARK       I    between atoms: N_5  and  C_13 
REMARK    1  A    between atoms: N_5  and  C_14 
REMARK    2  A    between atoms: N_6  and  C_17 
REMARK    3  A    between atoms: N_6  and  C_20 
REMARK    4  A    between atoms: N_7  and  C_21 
REMARK    5  A    between atoms: N_7  and  C_23 
REMARK    6  A    between atoms: C_10  and  C_13 
REMARK    7  A    between atoms: C_24  and  C_29 
ROOT
HETATM    1  N   UNL     1     -18.936 -67.170  23.796  1.00  0.00    -0.224 NA
HETATM    2  N   UNL     1     -18.687 -64.794  23.474  1.00  0.00    -0.224 NA
HETATM    3  C   UNL     1     -17.840 -67.350  23.030  1.00  0.00     0.133 A 
HETATM    4  C   UNL     1     -17.124 -66.317  22.460  1.00  0.00     0.100 A 
HETATM    5  C   UNL     1     -17.595 -65.042  22.715  1.00  0.00     0.133 A 
HETATM    6  C   UNL     1     -19.299 -65.885  23.974  1.00  0.00     0.237 A 
ENDROOT
BRANCH   3   7
HETATM    7  N   UNL     1     -17.386 -68.670  22.788  1.00  0.00    -0.341 N 
HETATM    8  H   UNL     1     -16.467 -68.710  22.357  1.00  0.00     0.167 HD
BRANCH   7   9
HETATM    9  C   UNL     1     -17.958 -69.929  23.035  1.00  0.00     0.035 A 
HETATM   10  C   UNL     1     -17.952 -70.464  24.326  1.00  0.00     0.059 A 
HETATM   11  C   UNL     1     -18.521 -71.714  24.570  1.00  0.00     0.036 A 
HETATM   12  C   UNL     1     -19.099 -72.434  23.524  1.00  0.00     0.029 A 
HETATM   13  C   UNL     1     -19.108 -71.904  22.234  1.00  0.00     0.004 A 
HETATM   14  C   UNL     1     -18.538 -70.654  21.990  1.00  0.00     0.029 A 
BRANCH  11  15
HETATM   15  N   UNL     1     -18.514 -72.244  25.861  1.00  0.00    -0.327 N 
HETATM   16  C   UNL     1     -19.008 -71.666  27.033  1.00  0.00     0.226 C 
HETATM   17  O   UNL     1     -19.550 -70.575  27.161  1.00  0.00    -0.273 OA
HETATM   18  H   UNL     1     -18.088 -73.164  25.950  1.00  0.00     0.169 HD
BRANCH  16  19
HETATM   19  C   UNL     1     -18.834 -72.520  28.250  1.00  0.00     0.078 A 
HETATM   20  C   UNL     1     -18.242 -73.875  28.082  1.00  0.00     0.015 A 
HETATM   21  C   UNL     1     -19.701 -73.721  28.397  1.00  0.00     0.015 A 
ENDBRANCH  16  19
ENDBRANCH  11  15
ENDBRANCH   7   9
ENDBRANCH   3   7
BRANCH   5  22
HETATM   22  N   UNL     1     -16.892 -63.959  22.151  1.00  0.00    -0.341 N 
HETATM   23  H   UNL     1     -15.938 -64.200  21.893  1.00  0.00     0.167 HD
BRANCH  22  24
HETATM   24  C   UNL     1     -17.113 -62.567  22.165  1.00  0.00     0.034 A 
HETATM   25  C   UNL     1     -16.306 -61.739  22.946  1.00  0.00     0.045 A 
HETATM   26  C   UNL     1     -16.524 -60.362  22.957  1.00  0.00     0.050 A 
HETATM   27  C   UNL     1     -17.550 -59.812  22.189  1.00  0.00     0.016 A 
HETATM   28  C   UNL     1     -18.358 -60.638  21.409  1.00  0.00     0.003 A 
HETATM   29  C   UNL     1     -18.139 -62.016  21.397  1.00  0.00     0.029 A 
BRANCH  26  30
HETATM   30  C   UNL     1     -15.661 -59.476  23.792  1.00  0.00     0.417 C 
HETATM   31  F   UNL     1     -14.324 -59.661  23.585  1.00  0.00    -0.166 F 
HETATM   32  F   UNL     1     -15.875 -58.145  23.576  1.00  0.00    -0.166 F 
HETATM   33  F   UNL     1     -15.854 -59.665  25.131  1.00  0.00    -0.166 F 
ENDBRANCH  26  30
ENDBRANCH  22  24
ENDBRANCH   5  22
TORSDOF 7
ENDMDL
MODEL 7
REMARK VINA RESULT:      -5.8      4.817     10.653
REMARK  7 active torsions:
REMARK  status: ('A' for Active; 'I' for Inactive)
REMARK       I    between atoms: N_5  and  C_13 
REMARK    1  A    between atoms: N_5  and  C_14 
REMARK    2  A    between atoms: N_6  and  C_17 
REMARK    3  A    between atoms: N_6  and  C_20 
REMARK    4  A    between atoms: N_7  and  C_21 
REMARK    5  A    between atoms: N_7  and  C_23 
REMARK    6  A    between atoms: C_10  and  C_13 
REMARK    7  A    between atoms: C_24  and  C_29 
ROOT
HETATM    1  N   UNL     1     -18.655 -61.377  23.527  1.00  0.00    -0.224 NA
HETATM    2  N   UNL     1     -18.985 -63.536  22.509  1.00  0.00    -0.224 NA
HETATM    3  C   UNL     1     -17.441 -61.798  23.939  1.00  0.00     0.133 A 
HETATM    4  C   UNL     1     -16.937 -63.056  23.678  1.00  0.00     0.100 A 
HETATM    5  C   UNL     1     -17.758 -63.899  22.951  1.00  0.00     0.133 A 
HETATM    6  C   UNL     1     -19.364 -62.284  22.828  1.00  0.00     0.237 A 
ENDROOT
BRANCH   3   7
HETATM    7  N   UNL     1     -16.627 -60.910  24.683  1.00  0.00    -0.341 N 
HETATM    8  H   UNL     1     -16.529 -61.171  25.660  1.00  0.00     0.167 HD
BRANCH   7   9
HETATM    9  C   UNL     1     -15.926 -59.745  24.328  1.00  0.00     0.035 A 
HETATM   10  C   UNL     1     -16.390 -58.492  24.738  1.00  0.00     0.059 A 
HETATM   11  C   UNL     1     -15.693 -57.337  24.387  1.00  0.00     0.036 A 
HETATM   12  C   UNL     1     -14.528 -57.429  23.625  1.00  0.00     0.029 A 
HETATM   13  C   UNL     1     -14.061 -58.677  23.214  1.00  0.00     0.004 A 
HETATM   14  C   UNL     1     -14.759 -59.833  23.564  1.00  0.00     0.029 A 
BRANCH  11  15
HETATM   15  N   UNL     1     -16.159 -56.087  24.800  1.00  0.00    -0.327 N 
HETATM   16  C   UNL     1     -17.259 -55.376  24.316  1.00  0.00     0.226 C 
HETATM   17  O   UNL     1     -18.038 -55.709  23.432  1.00  0.00    -0.273 OA
HETATM   18  H   UNL     1     -15.619 -55.646  25.541  1.00  0.00     0.169 HD
BRANCH  16  19
HETATM   19  C   UNL     1     -17.473 -54.058  24.992  1.00  0.00     0.078 A 
HETATM   20  C   UNL     1     -16.277 -53.254  25.364  1.00  0.00     0.015 A 
HETATM   21  C   UNL     1     -17.093 -53.931  26.425  1.00  0.00     0.015 A 
ENDBRANCH  16  19
ENDBRANCH  11  15
ENDBRANCH   7   9
ENDBRANCH   3   7
BRANCH   5  22
HETATM   22  N   UNL     1     -17.280 -65.191  22.662  1.00  0.00    -0.341 N 
HETATM   23  H   UNL     1     -16.978 -65.295  21.696  1.00  0.00     0.167 HD
BRANCH  22  24
HETATM   24  C   UNL     1     -17.426 -66.431  23.318  1.00  0.00     0.034 A 
HETATM   25  C   UNL     1     -17.344 -66.501  24.709  1.00  0.00     0.045 A 
HETATM   26  C   UNL     1     -17.490 -67.727  25.356  1.00  0.00     0.050 A 
HETATM   27  C   UNL     1     -17.719 -68.885  24.612  1.00  0.00     0.016 A 
HETATM   28  C   UNL     1     -17.801 -68.817  23.222  1.00  0.00     0.003 A 
HETATM   29  C   UNL     1     -17.655 -67.589  22.574  1.00  0.00     0.029 A 
BRANCH  26  30
HETATM   30  C   UNL     1     -17.402 -67.802  26.843  1.00  0.00     0.417 C 
HETATM   31  F   UNL     1     -16.669 -68.861  27.296  1.00  0.00    -0.166 F 
HETATM   32  F   UNL     1     -16.827 -66.701  27.412  1.00  0.00    -0.166 F 
HETATM   33  F   UNL     1     -18.626 -67.923  27.436  1.00  0.00    -0.166 F 
ENDBRANCH  26  30
ENDBRANCH  22  24
ENDBRANCH   5  22
TORSDOF 7
ENDMDL
MODEL 8
REMARK VINA RESULT:      -5.7      1.914      2.627
REMARK  7 active torsions:
REMARK  status: ('A' for Active; 'I' for Inactive)
REMARK       I    between atoms: N_5  and  C_13 
REMARK    1  A    between atoms: N_5  and  C_14 
REMARK    2  A    between atoms: N_6  and  C_17 
REMARK    3  A    between atoms: N_6  and  C_20 
REMARK    4  A    between atoms: N_7  and  C_21 
REMARK    5  A    between atoms: N_7  and  C_23 
REMARK    6  A    between atoms: C_10  and  C_13 
REMARK    7  A    between atoms: C_24  and  C_29 
ROOT
HETATM    1  N   UNL     1     -19.082 -64.076  23.057  1.00  0.00    -0.224 NA
HETATM    2  N   UNL     1     -19.248 -61.764  22.401  1.00  0.00    -0.224 NA
HETATM    3  C   UNL     1     -17.739 -63.952  23.018  1.00  0.00     0.133 A 
HETATM    4  C   UNL     1     -17.087 -62.783  22.685  1.00  0.00     0.100 A 
HETATM    5  C   UNL     1     -17.897 -61.704  22.381  1.00  0.00     0.133 A 
HETATM    6  C   UNL     1     -19.765 -62.960  22.741  1.00  0.00     0.237 A 
ENDROOT
BRANCH   3   7
HETATM    7  N   UNL     1     -16.940 -65.078  23.336  1.00  0.00    -0.341 N 
HETATM    8  H   UNL     1     -15.977 -64.842  23.555  1.00  0.00     0.167 HD
BRANCH   7   9
HETATM    9  C   UNL     1     -17.225 -66.451  23.411  1.00  0.00     0.035 A 
HETATM   10  C   UNL     1     -17.236 -67.101  24.648  1.00  0.00     0.059 A 
HETATM   11  C   UNL     1     -17.521 -68.464  24.722  1.00  0.00     0.036 A 
HETATM   12  C   UNL     1     -17.795 -69.184  23.559  1.00  0.00     0.029 A 
HETATM   13  C   UNL     1     -17.785 -68.540  22.322  1.00  0.00     0.004 A 
HETATM   14  C   UNL     1     -17.499 -67.177  22.248  1.00  0.00     0.029 A 
BRANCH  11  15
HETATM   15  N   UNL     1     -17.532 -69.109  25.960  1.00  0.00    -0.327 N 
HETATM   16  C   UNL     1     -18.627 -69.643  26.643  1.00  0.00     0.226 C 
HETATM   17  O   UNL     1     -19.799 -69.653  26.291  1.00  0.00    -0.273 OA
HETATM   18  H   UNL     1     -16.625 -69.189  26.416  1.00  0.00     0.169 HD
BRANCH  16  19
HETATM   19  C   UNL     1     -18.275 -70.268  27.957  1.00  0.00     0.078 A 
HETATM   20  C   UNL     1     -19.207 -71.275  28.532  1.00  0.00     0.015 A 
HETATM   21  C   UNL     1     -19.093 -69.912  29.148  1.00  0.00     0.015 A 
ENDBRANCH  16  19
ENDBRANCH  11  15
ENDBRANCH   7   9
ENDBRANCH   3   7
BRANCH   5  22
HETATM   22  N   UNL     1     -17.270 -60.491  22.036  1.00  0.00    -0.341 N 
HETATM   23  H   UNL     1     -17.088 -60.410  21.038  1.00  0.00     0.167 HD
BRANCH  22  24
HETATM   24  C   UNL     1     -16.565 -59.531  22.792  1.00  0.00     0.034 A 
HETATM   25  C   UNL     1     -17.259 -58.520  23.458  1.00  0.00     0.045 A 
HETATM   26  C   UNL     1     -16.561 -57.573  24.207  1.00  0.00     0.050 A 
HETATM   27  C   UNL     1     -15.170 -57.636  24.290  1.00  0.00     0.016 A 
HETATM   28  C   UNL     1     -14.477 -58.646  23.624  1.00  0.00     0.003 A 
HETATM   29  C   UNL     1     -15.174 -59.594  22.875  1.00  0.00     0.029 A 
BRANCH  26  30
HETATM   30  C   UNL     1     -17.303 -56.492  24.919  1.00  0.00     0.417 C 
HETATM   31  F   UNL     1     -16.670 -56.043  26.043  1.00  0.00    -0.166 F 
HETATM   32  F   UNL     1     -17.509 -55.378  24.157  1.00  0.00    -0.166 F 
HETATM   33  F   UNL     1     -18.543 -56.889  25.331  1.00  0.00    -0.166 F 
ENDBRANCH  26  30
ENDBRANCH  22  24
ENDBRANCH   5  22
TORSDOF 7
ENDMDL
MODEL 9
REMARK VINA RESULT:      -5.7      2.410      3.444
REMARK  7 active torsions:
REMARK  status: ('A' for Active; 'I' for Inactive)
REMARK       I    between atoms: N_5  and  C_13 
REMARK    1  A    between atoms: N_5  and  C_14 
REMARK    2  A    between atoms: N_6  and  C_17 
REMARK    3  A    between atoms: N_6  and  C_20 
REMARK    4  A    between atoms: N_7  and  C_21 
REMARK    5  A    between atoms: N_7  and  C_23 
REMARK    6  A    between atoms: C_10  and  C_13 
REMARK    7  A    between atoms: C_24  and  C_29 
ROOT
HETATM    1  N   UNL     1     -18.746 -65.737  26.093  1.00  0.00    -0.224 NA
HETATM    2  N   UNL     1     -18.673 -63.760  24.718  1.00  0.00    -0.224 NA
HETATM    3  C   UNL     1     -17.639 -66.174  25.458  1.00  0.00     0.133 A 
HETATM    4  C   UNL     1     -17.000 -65.470  24.457  1.00  0.00     0.100 A 
HETATM    5  C   UNL     1     -17.564 -64.253  24.119  1.00  0.00     0.133 A 
HETATM    6  C   UNL     1     -19.204 -64.541  25.678  1.00  0.00     0.237 A 
ENDROOT
BRANCH   3   7
HETATM    7  N   UNL     1     -17.088 -67.426  25.828  1.00  0.00    -0.341 N 
HETATM    8  H   UNL     1     -16.086 -67.395  25.990  1.00  0.00     0.167 HD
BRANCH   7   9
HETATM    9  C   UNL     1     -17.661 -68.694  26.021  1.00  0.00     0.035 A 
HETATM   10  C   UNL     1     -18.039 -69.470  24.922  1.00  0.00     0.059 A 
HETATM   11  C   UNL     1     -18.606 -70.729  25.115  1.00  0.00     0.036 A 
HETATM   12  C   UNL     1     -18.799 -71.218  26.407  1.00  0.00     0.029 A 
HETATM   13  C   UNL     1     -18.423 -70.447  27.507  1.00  0.00     0.004 A 
HETATM   14  C   UNL     1     -17.856 -69.187  27.314  1.00  0.00     0.029 A 
BRANCH  11  15
HETATM   15  N   UNL     1     -18.981 -71.502  24.014  1.00  0.00    -0.327 N 
HETATM   16  C   UNL     1     -20.039 -71.284  23.129  1.00  0.00     0.226 C 
HETATM   17  O   UNL     1     -20.851 -70.367  23.141  1.00  0.00    -0.273 OA
HETATM   18  H   UNL     1     -18.409 -72.327  23.849  1.00  0.00     0.169 HD
BRANCH  16  19
HETATM   19  C   UNL     1     -20.152 -72.319  22.054  1.00  0.00     0.078 A 
HETATM   20  C   UNL     1     -21.236 -72.173  21.045  1.00  0.00     0.015 A 
HETATM   21  C   UNL     1     -21.315 -73.247  22.089  1.00  0.00     0.015 A 
ENDBRANCH  16  19
ENDBRANCH  11  15
ENDBRANCH   7   9
ENDBRANCH   3   7
BRANCH   5  22
HETATM   22  N   UNL     1     -16.943 -63.502  23.103  1.00  0.00    -0.341 N 
HETATM   23  H   UNL     1     -16.150 -63.985  22.684  1.00  0.00     0.167 HD
BRANCH  22  24
HETATM   24  C   UNL     1     -16.978 -62.132  22.770  1.00  0.00     0.034 A 
HETATM   25  C   UNL     1     -16.023 -61.261  23.295  1.00  0.00     0.045 A 
HETATM   26  C   UNL     1     -16.058 -59.907  22.964  1.00  0.00     0.050 A 
HETATM   27  C   UNL     1     -17.047 -59.423  22.108  1.00  0.00     0.016 A 
HETATM   28  C   UNL     1     -18.002 -60.294  21.583  1.00  0.00     0.003 A 
HETATM   29  C   UNL     1     -17.967 -61.649  21.914  1.00  0.00     0.029 A 
BRANCH  26  30
HETATM   30  C   UNL     1     -15.037 -58.975  23.526  1.00  0.00     0.417 C 
HETATM   31  F   UNL     1     -14.636 -59.299  24.790  1.00  0.00    -0.166 F 
HETATM   32  F   UNL     1     -13.888 -58.917  22.791  1.00  0.00    -0.166 F 
HETATM   33  F   UNL     1     -15.488 -57.688  23.603  1.00  0.00    -0.166 F 
ENDBRANCH  26  30
ENDBRANCH  22  24
ENDBRANCH   5  22
TORSDOF 7
ENDMDL
