MODEL 1
REMARK VINA RESULT:      -6.2      0.000      0.000
REMARK  7 active torsions:
REMARK  status: ('A' for Active; 'I' for Inactive)
REMARK       I    between atoms: N_5  and  C_13 
REMARK    1  A    between atoms: N_5  and  C_14 
REMARK    2  A    between atoms: N_6  and  C_17 
REMARK    3  A    between atoms: N_6  and  C_20 
REMARK    4  A    between atoms: N_7  and  C_21 
REMARK    5  A    between atoms: N_7  and  C_23 
REMARK    6  A    between atoms: C_10  and  C_13 
REMARK    7  A    between atoms: C_24  and  C_29 
ROOT
HETATM    1  N   UNL     1     -19.209 -63.982  22.813  1.00  0.00    -0.224 NA
HETATM    2  N   UNL     1     -19.287 -61.595  22.492  1.00  0.00    -0.224 NA
HETATM    3  C   UNL     1     -17.884 -63.935  22.559  1.00  0.00     0.133 A 
HETATM    4  C   UNL     1     -17.200 -62.772  22.268  1.00  0.00     0.100 A 
HETATM    5  C   UNL     1     -17.957 -61.614  22.246  1.00  0.00     0.133 A 
HETATM    6  C   UNL     1     -19.839 -62.793  22.762  1.00  0.00     0.237 A 
ENDROOT
BRANCH   3   7
HETATM    7  N   UNL     1     -17.141 -65.140  22.589  1.00  0.00    -0.341 N 
HETATM    8  H   UNL     1     -16.415 -65.186  21.880  1.00  0.00     0.167 HD
BRANCH   7   9
HETATM    9  C   UNL     1     -17.209 -66.276  23.413  1.00  0.00     0.035 A 
HETATM   10  C   UNL     1     -17.902 -67.413  22.988  1.00  0.00     0.059 A 
HETATM   11  C   UNL     1     -17.969 -68.540  23.806  1.00  0.00     0.036 A 
HETATM   12  C   UNL     1     -17.342 -68.536  25.052  1.00  0.00     0.029 A 
HETATM   13  C   UNL     1     -16.649 -67.404  25.481  1.00  0.00     0.004 A 
HETATM   14  C   UNL     1     -16.583 -66.276  24.663  1.00  0.00     0.029 A 
BRANCH  11  15
HETATM   15  N   UNL     1     -18.661 -69.674  23.377  1.00  0.00    -0.327 N 
HETATM   16  C   UNL     1     -18.227 -70.666  22.495  1.00  0.00     0.226 C 
HETATM   17  O   UNL     1     -17.149 -70.740  21.921  1.00  0.00    -0.273 OA
HETATM   18  H   UNL     1     -19.600 -69.777  23.756  1.00  0.00     0.169 HD
BRANCH  16  19
HETATM   19  C   UNL     1     -19.235 -71.747  22.257  1.00  0.00     0.078 A 
HETATM   20  C   UNL     1     -20.219 -72.044  23.332  1.00  0.00     0.015 A 
HETATM   21  C   UNL     1     -19.110 -73.010  23.034  1.00  0.00     0.015 A 
ENDBRANCH  16  19
ENDBRANCH  11  15
ENDBRANCH   7   9
ENDBRANCH   3   7
BRANCH   5  22
HETATM   22  N   UNL     1     -17.296 -60.406  21.953  1.00  0.00    -0.341 N 
HETATM   23  H   UNL     1     -17.053 -60.317  20.969  1.00  0.00     0.167 HD
BRANCH  22  24
HETATM   24  C   UNL     1     -16.627 -59.463  22.761  1.00  0.00     0.034 A 
HETATM   25  C   UNL     1     -17.343 -58.434  23.372  1.00  0.00     0.045 A 
HETATM   26  C   UNL     1     -16.681 -57.503  24.172  1.00  0.00     0.050 A 
HETATM   27  C   UNL     1     -15.303 -57.602  24.363  1.00  0.00     0.016 A 
HETATM   28  C   UNL     1     -14.586 -58.631  23.752  1.00  0.00     0.003 A 
HETATM   29  C   UNL     1     -15.249 -59.562  22.952  1.00  0.00     0.029 A 
BRANCH  26  30
HETATM   30  C   UNL     1     -17.447 -56.401  24.825  1.00  0.00     0.417 C 
HETATM   31  F   UNL     1     -17.949 -55.487  23.945  1.00  0.00    -0.166 F 
HETATM   32  F   UNL     1     -18.525 -56.836  25.542  1.00  0.00    -0.166 F 
HETATM   33  F   UNL     1     -16.687 -55.684  25.705  1.00  0.00    -0.166 F 
ENDBRANCH  26  30
ENDBRANCH  22  24
ENDBRANCH   5  22
TORSDOF 7
ENDMDL
MODEL 2
REMARK VINA RESULT:      -6.1      5.912      7.750
REMARK  7 active torsions:
REMARK  status: ('A' for Active; 'I' for Inactive)
REMARK       I    between atoms: N_5  and  C_13 
REMARK    1  A    between atoms: N_5  and  C_14 
REMARK    2  A    between atoms: N_6  and  C_17 
REMARK    3  A    between atoms: N_6  and  C_20 
REMARK    4  A    between atoms: N_7  and  C_21 
REMARK    5  A    between atoms: N_7  and  C_23 
REMARK    6  A    between atoms: C_10  and  C_13 
REMARK    7  A    between atoms: C_24  and  C_29 
ROOT
HETATM    1  N   UNL     1     -20.930 -59.982  21.447  1.00  0.00    -0.224 NA
HETATM    2  N   UNL     1     -22.177 -60.018  19.385  1.00  0.00    -0.224 NA
HETATM    3  C   UNL     1     -19.872 -59.509  20.756  1.00  0.00     0.133 A 
HETATM    4  C   UNL     1     -19.890 -59.269  19.397  1.00  0.00     0.100 A 
HETATM    5  C   UNL     1     -21.081 -59.543  18.749  1.00  0.00     0.133 A 
HETATM    6  C   UNL     1     -22.034 -60.212  20.710  1.00  0.00     0.237 A 
ENDROOT
BRANCH   3   7
HETATM    7  N   UNL     1     -18.668 -59.240  21.451  1.00  0.00    -0.341 N 
HETATM    8  H   UNL     1     -18.462 -58.248  21.536  1.00  0.00     0.167 HD
BRANCH   7   9
HETATM    9  C   UNL     1     -17.712 -60.077  22.050  1.00  0.00     0.035 A 
HETATM   10  C   UNL     1     -17.762 -61.459  21.850  1.00  0.00     0.059 A 
HETATM   11  C   UNL     1     -16.811 -62.288  22.444  1.00  0.00     0.036 A 
HETATM   12  C   UNL     1     -15.805 -61.739  23.239  1.00  0.00     0.029 A 
HETATM   13  C   UNL     1     -15.750 -60.360  23.441  1.00  0.00     0.004 A 
HETATM   14  C   UNL     1     -16.702 -59.531  22.848  1.00  0.00     0.029 A 
BRANCH  11  15
HETATM   15  N   UNL     1     -16.865 -63.668  22.241  1.00  0.00    -0.327 N 
HETATM   16  C   UNL     1     -17.631 -64.611  22.931  1.00  0.00     0.226 C 
HETATM   17  O   UNL     1     -18.411 -64.414  23.853  1.00  0.00    -0.273 OA
HETATM   18  H   UNL     1     -16.262 -64.022  21.501  1.00  0.00     0.169 HD
BRANCH  16  19
HETATM   19  C   UNL     1     -17.442 -66.015  22.448  1.00  0.00     0.078 A 
HETATM   20  C   UNL     1     -18.640 -66.888  22.331  1.00  0.00     0.015 A 
HETATM   21  C   UNL     1     -17.635 -67.126  23.419  1.00  0.00     0.015 A 
ENDBRANCH  16  19
ENDBRANCH  11  15
ENDBRANCH   7   9
ENDBRANCH   3   7
BRANCH   5  22
HETATM   22  N   UNL     1     -21.140 -59.311  17.362  1.00  0.00    -0.341 N 
HETATM   23  H   UNL     1     -20.887 -60.130  16.813  1.00  0.00     0.167 HD
BRANCH  22  24
HETATM   24  C   UNL     1     -21.160 -58.130  16.591  1.00  0.00     0.034 A 
HETATM   25  C   UNL     1     -20.105 -57.844  15.724  1.00  0.00     0.045 A 
HETATM   26  C   UNL     1     -20.126 -56.677  14.962  1.00  0.00     0.050 A 
HETATM   27  C   UNL     1     -21.202 -55.795  15.066  1.00  0.00     0.016 A 
HETATM   28  C   UNL     1     -22.257 -56.080  15.933  1.00  0.00     0.003 A 
HETATM   29  C   UNL     1     -22.236 -57.248  16.695  1.00  0.00     0.029 A 
BRANCH  26  30
HETATM   30  C   UNL     1     -18.999 -56.370  14.034  1.00  0.00     0.417 C 
HETATM   31  F   UNL     1     -17.821 -56.964  14.389  1.00  0.00    -0.166 F 
HETATM   32  F   UNL     1     -19.226 -56.768  12.748  1.00  0.00    -0.166 F 
HETATM   33  F   UNL     1     -18.727 -55.034  13.961  1.00  0.00    -0.166 F 
ENDBRANCH  26  30
ENDBRANCH  22  24
ENDBRANCH   5  22
TORSDOF 7
ENDMDL
MODEL 3
REMARK VINA RESULT:      -6.0      1.652      2.139
REMARK  7 active torsions:
REMARK  status: ('A' for Active; 'I' for Inactive)
REMARK       I    between atoms: N_5  and  C_13 
REMARK    1  A    between atoms: N_5  and  C_14 
REMARK    2  A    between atoms: N_6  and  C_17 
REMARK    3  A    between atoms: N_6  and  C_20 
REMARK    4  A    between atoms: N_7  and  C_21 
REMARK    5  A    between atoms: N_7  and  C_23 
REMARK    6  A    between atoms: C_10  and  C_13 
REMARK    7  A    between atoms: C_24  and  C_29 
ROOT
HETATM    1  N   UNL     1     -19.385 -64.677  22.623  1.00  0.00    -0.224 NA
HETATM    2  N   UNL     1     -19.851 -62.416  21.930  1.00  0.00    -0.224 NA
HETATM    3  C   UNL     1     -18.071 -64.370  22.611  1.00  0.00     0.133 A 
HETATM    4  C   UNL     1     -17.577 -63.126  22.274  1.00  0.00     0.100 A 
HETATM    5  C   UNL     1     -18.520 -62.172  21.937  1.00  0.00     0.133 A 
HETATM    6  C   UNL     1     -20.207 -63.668  22.277  1.00  0.00     0.237 A 
ENDROOT
BRANCH   3   7
HETATM    7  N   UNL     1     -17.133 -65.372  22.960  1.00  0.00    -0.341 N 
HETATM    8  H   UNL     1     -16.201 -65.199  22.595  1.00  0.00     0.167 HD
BRANCH   7   9
HETATM    9  C   UNL     1     -17.242 -66.550  23.718  1.00  0.00     0.035 A 
HETATM   10  C   UNL     1     -17.619 -67.748  23.107  1.00  0.00     0.059 A 
HETATM   11  C   UNL     1     -17.726 -68.917  23.859  1.00  0.00     0.036 A 
HETATM   12  C   UNL     1     -17.456 -68.893  25.228  1.00  0.00     0.029 A 
HETATM   13  C   UNL     1     -17.079 -67.699  25.843  1.00  0.00     0.004 A 
HETATM   14  C   UNL     1     -16.973 -66.530  25.090  1.00  0.00     0.029 A 
BRANCH  11  15
HETATM   15  N   UNL     1     -18.102 -70.112  23.244  1.00  0.00    -0.327 N 
HETATM   16  C   UNL     1     -19.327 -70.428  22.652  1.00  0.00     0.226 C 
HETATM   17  O   UNL     1     -20.318 -69.716  22.554  1.00  0.00    -0.273 OA
HETATM   18  H   UNL     1     -17.389 -70.839  23.236  1.00  0.00     0.169 HD
BRANCH  16  19
HETATM   19  C   UNL     1     -19.386 -71.811  22.083  1.00  0.00     0.078 A 
HETATM   20  C   UNL     1     -20.433 -72.739  22.590  1.00  0.00     0.015 A 
HETATM   21  C   UNL     1     -18.993 -72.950  22.958  1.00  0.00     0.015 A 
ENDBRANCH  16  19
ENDBRANCH  11  15
ENDBRANCH   7   9
ENDBRANCH   3   7
BRANCH   5  22
HETATM   22  N   UNL     1     -18.057 -60.889  21.587  1.00  0.00    -0.341 N 
HETATM   23  H   UNL     1     -17.702 -60.843  20.635  1.00  0.00     0.167 HD
BRANCH  22  24
HETATM   24  C   UNL     1     -17.690 -59.764  22.355  1.00  0.00     0.034 A 
HETATM   25  C   UNL     1     -16.352 -59.552  22.687  1.00  0.00     0.045 A 
HETATM   26  C   UNL     1     -15.989 -58.439  23.445  1.00  0.00     0.050 A 
HETATM   27  C   UNL     1     -16.964 -57.538  23.872  1.00  0.00     0.016 A 
HETATM   28  C   UNL     1     -18.302 -57.749  23.540  1.00  0.00     0.003 A 
HETATM   29  C   UNL     1     -18.665 -58.863  22.782  1.00  0.00     0.029 A 
BRANCH  26  30
HETATM   30  C   UNL     1     -14.558 -58.212  23.801  1.00  0.00     0.417 C 
HETATM   31  F   UNL     1     -13.679 -58.792  22.931  1.00  0.00    -0.166 F 
HETATM   32  F   UNL     1     -14.207 -56.893  23.836  1.00  0.00    -0.166 F 
HETATM   33  F   UNL     1     -14.237 -58.710  25.032  1.00  0.00    -0.166 F 
ENDBRANCH  26  30
ENDBRANCH  22  24
ENDBRANCH   5  22
TORSDOF 7
ENDMDL
MODEL 4
REMARK VINA RESULT:      -6.0      5.609     10.889
REMARK  7 active torsions:
REMARK  status: ('A' for Active; 'I' for Inactive)
REMARK       I    between atoms: N_5  and  C_13 
REMARK    1  A    between atoms: N_5  and  C_14 
REMARK    2  A    between atoms: N_6  and  C_17 
REMARK    3  A    between atoms: N_6  and  C_20 
REMARK    4  A    between atoms: N_7  and  C_21 
REMARK    5  A    between atoms: N_7  and  C_23 
REMARK    6  A    between atoms: C_10  and  C_13 
REMARK    7  A    between atoms: C_24  and  C_29 
ROOT
HETATM    1  N   UNL     1     -19.405 -61.579  22.599  1.00  0.00    -0.224 NA
HETATM    2  N   UNL     1     -19.199 -63.969  22.833  1.00  0.00    -0.224 NA
HETATM    3  C   UNL     1     -18.081 -61.528  22.343  1.00  0.00     0.133 A 
HETATM    4  C   UNL     1     -17.262 -62.638  22.314  1.00  0.00     0.100 A 
HETATM    5  C   UNL     1     -17.877 -63.851  22.570  1.00  0.00     0.133 A 
HETATM    6  C   UNL     1     -19.890 -62.813  22.833  1.00  0.00     0.237 A 
ENDROOT
BRANCH   3   7
HETATM    7  N   UNL     1     -17.484 -60.269  22.087  1.00  0.00    -0.341 N 
HETATM    8  H   UNL     1     -17.790 -59.846  21.215  1.00  0.00     0.167 HD
BRANCH   7   9
HETATM    9  C   UNL     1     -16.559 -59.495  22.807  1.00  0.00     0.035 A 
HETATM   10  C   UNL     1     -17.004 -58.539  23.724  1.00  0.00     0.059 A 
HETATM   11  C   UNL     1     -16.085 -57.772  24.439  1.00  0.00     0.036 A 
HETATM   12  C   UNL     1     -14.717 -57.957  24.241  1.00  0.00     0.029 A 
HETATM   13  C   UNL     1     -14.268 -58.909  23.327  1.00  0.00     0.004 A 
HETATM   14  C   UNL     1     -15.187 -59.676  22.611  1.00  0.00     0.029 A 
BRANCH  11  15
HETATM   15  N   UNL     1     -16.534 -56.819  25.355  1.00  0.00    -0.327 N 
HETATM   16  C   UNL     1     -16.897 -55.492  25.110  1.00  0.00     0.226 C 
HETATM   17  O   UNL     1     -16.895 -54.900  24.039  1.00  0.00    -0.273 OA
HETATM   18  H   UNL     1     -16.596 -57.139  26.319  1.00  0.00     0.169 HD
BRANCH  16  19
HETATM   19  C   UNL     1     -17.336 -54.749  26.333  1.00  0.00     0.078 A 
HETATM   20  C   UNL     1     -17.120 -55.385  27.660  1.00  0.00     0.015 A 
HETATM   21  C   UNL     1     -18.504 -55.271  27.093  1.00  0.00     0.015 A 
ENDBRANCH  16  19
ENDBRANCH  11  15
ENDBRANCH   7   9
ENDBRANCH   3   7
BRANCH   5  22
HETATM   22  N   UNL     1     -17.076 -65.009  22.549  1.00  0.00    -0.341 N 
HETATM   23  H   UNL     1     -16.374 -64.991  21.812  1.00  0.00     0.167 HD
BRANCH  22  24
HETATM   24  C   UNL     1     -17.241 -66.294  23.107  1.00  0.00     0.034 A 
HETATM   25  C   UNL     1     -17.502 -67.386  22.279  1.00  0.00     0.045 A 
HETATM   26  C   UNL     1     -17.663 -68.656  22.831  1.00  0.00     0.050 A 
HETATM   27  C   UNL     1     -17.563 -68.835  24.211  1.00  0.00     0.016 A 
HETATM   28  C   UNL     1     -17.302 -67.743  25.039  1.00  0.00     0.003 A 
HETATM   29  C   UNL     1     -17.141 -66.472  24.486  1.00  0.00     0.029 A 
BRANCH  26  30
HETATM   30  C   UNL     1     -17.943 -69.824  21.946  1.00  0.00     0.417 C 
HETATM   31  F   UNL     1     -17.669 -71.029  22.527  1.00  0.00    -0.166 F 
HETATM   32  F   UNL     1     -19.247 -69.909  21.549  1.00  0.00    -0.166 F 
HETATM   33  F   UNL     1     -17.210 -69.798  20.794  1.00  0.00    -0.166 F 
ENDBRANCH  26  30
ENDBRANCH  22  24
ENDBRANCH   5  22
TORSDOF 7
ENDMDL
MODEL 5
REMARK VINA RESULT:      -6.0      2.605      4.134
REMARK  7 active torsions:
REMARK  status: ('A' for Active; 'I' for Inactive)
REMARK       I    between atoms: N_5  and  C_13 
REMARK    1  A    between atoms: N_5  and  C_14 
REMARK    2  A    between atoms: N_6  and  C_17 
REMARK    3  A    between atoms: N_6  and  C_20 
REMARK    4  A    between atoms: N_7  and  C_21 
REMARK    5  A    between atoms: N_7  and  C_23 
REMARK    6  A    between atoms: C_10  and  C_13 
REMARK    7  A    between atoms: C_24  and  C_29 
ROOT
HETATM    1  N   UNL     1     -18.492 -62.682  21.737  1.00  0.00    -0.224 NA
HETATM    2  N   UNL     1     -18.049 -60.439  22.497  1.00  0.00    -0.224 NA
HETATM    3  C   UNL     1     -17.337 -63.067  22.318  1.00  0.00     0.133 A 
HETATM    4  C   UNL     1     -16.497 -62.208  22.997  1.00  0.00     0.100 A 
HETATM    5  C   UNL     1     -16.902 -60.887  23.058  1.00  0.00     0.133 A 
HETATM    6  C   UNL     1     -18.782 -61.373  21.862  1.00  0.00     0.237 A 
ENDROOT
BRANCH   3   7
HETATM    7  N   UNL     1     -16.952 -64.428  22.235  1.00  0.00    -0.341 N 
HETATM    8  H   UNL     1     -16.282 -64.614  21.494  1.00  0.00     0.167 HD
BRANCH   7   9
HETATM    9  C   UNL     1     -17.311 -65.562  22.982  1.00  0.00     0.035 A 
HETATM   10  C   UNL     1     -16.971 -65.651  24.334  1.00  0.00     0.059 A 
HETATM   11  C   UNL     1     -17.329 -66.777  25.075  1.00  0.00     0.036 A 
HETATM   12  C   UNL     1     -18.030 -67.819  24.466  1.00  0.00     0.029 A 
HETATM   13  C   UNL     1     -18.372 -67.735  23.117  1.00  0.00     0.004 A 
HETATM   14  C   UNL     1     -18.012 -66.608  22.376  1.00  0.00     0.029 A 
BRANCH  11  15
HETATM   15  N   UNL     1     -16.988 -66.861  26.426  1.00  0.00    -0.327 N 
HETATM   16  C   UNL     1     -17.562 -66.182  27.503  1.00  0.00     0.226 C 
HETATM   17  O   UNL     1     -18.482 -65.375  27.477  1.00  0.00    -0.273 OA
HETATM   18  H   UNL     1     -16.222 -67.495  26.641  1.00  0.00     0.169 HD
BRANCH  16  19
HETATM   19  C   UNL     1     -16.946 -66.515  28.826  1.00  0.00     0.078 A 
HETATM   20  C   UNL     1     -17.430 -65.791  30.032  1.00  0.00     0.015 A 
HETATM   21  C   UNL     1     -16.070 -65.499  29.471  1.00  0.00     0.015 A 
ENDBRANCH  16  19
ENDBRANCH  11  15
ENDBRANCH   7   9
ENDBRANCH   3   7
BRANCH   5  22
HETATM   22  N   UNL     1     -16.073 -59.979  23.742  1.00  0.00    -0.341 N 
HETATM   23  H   UNL     1     -15.109 -60.298  23.811  1.00  0.00     0.167 HD
BRANCH  22  24
HETATM   24  C   UNL     1     -16.348 -58.902  24.611  1.00  0.00     0.034 A 
HETATM   25  C   UNL     1     -16.341 -57.594  24.127  1.00  0.00     0.045 A 
HETATM   26  C   UNL     1     -16.615 -56.531  24.987  1.00  0.00     0.050 A 
HETATM   27  C   UNL     1     -16.895 -56.776  26.332  1.00  0.00     0.016 A 
HETATM   28  C   UNL     1     -16.901 -58.083  26.816  1.00  0.00     0.003 A 
HETATM   29  C   UNL     1     -16.628 -59.147  25.956  1.00  0.00     0.029 A 
BRANCH  26  30
HETATM   30  C   UNL     1     -16.609 -55.132  24.470  1.00  0.00     0.417 C 
HETATM   31  F   UNL     1     -15.407 -54.747  23.948  1.00  0.00    -0.166 F 
HETATM   32  F   UNL     1     -17.516 -54.914  23.473  1.00  0.00    -0.166 F 
HETATM   33  F   UNL     1     -16.899 -54.213  25.437  1.00  0.00    -0.166 F 
ENDBRANCH  26  30
ENDBRANCH  22  24
ENDBRANCH   5  22
TORSDOF 7
ENDMDL
MODEL 6
REMARK VINA RESULT:      -6.0      2.841      4.293
REMARK  7 active torsions:
REMARK  status: ('A' for Active; 'I' for Inactive)
REMARK       I    between atoms: N_5  and  C_13 
REMARK    1  A    between atoms: N_5  and  C_14 
REMARK    2  A    between atoms: N_6  and  C_17 
REMARK    3  A    between atoms: N_6  and  C_20 
REMARK    4  A    between atoms: N_7  and  C_21 
REMARK    5  A    between atoms: N_7  and  C_23 
REMARK    6  A    between atoms: C_10  and  C_13 
REMARK    7  A    between atoms: C_24  and  C_29 
ROOT
HETATM    1  N   UNL     1     -18.291 -67.024  24.757  1.00  0.00    -0.224 NA
HETATM    2  N   UNL     1     -18.101 -64.684  24.212  1.00  0.00    -0.224 NA
HETATM    3  C   UNL     1     -17.626 -67.305  23.617  1.00  0.00     0.133 A 
HETATM    4  C   UNL     1     -17.172 -66.343  22.737  1.00  0.00     0.100 A 
HETATM    5  C   UNL     1     -17.439 -65.031  23.084  1.00  0.00     0.133 A 
HETATM    6  C   UNL     1     -18.492 -65.713  24.989  1.00  0.00     0.237 A 
ENDROOT
BRANCH   3   7
HETATM    7  N   UNL     1     -17.370 -68.660  23.292  1.00  0.00    -0.341 N 
HETATM    8  H   UNL     1     -16.384 -68.902  23.313  1.00  0.00     0.167 HD
BRANCH   7   9
HETATM    9  C   UNL     1     -18.216 -69.729  22.956  1.00  0.00     0.035 A 
HETATM   10  C   UNL     1     -19.262 -69.542  22.047  1.00  0.00     0.059 A 
HETATM   11  C   UNL     1     -20.100 -70.604  21.713  1.00  0.00     0.036 A 
HETATM   12  C   UNL     1     -19.896 -71.861  22.285  1.00  0.00     0.029 A 
HETATM   13  C   UNL     1     -18.854 -72.053  23.191  1.00  0.00     0.004 A 
HETATM   14  C   UNL     1     -18.016 -70.989  23.527  1.00  0.00     0.029 A 
BRANCH  11  15
HETATM   15  N   UNL     1     -21.142 -70.412  20.805  1.00  0.00    -0.327 N 
HETATM   16  C   UNL     1     -22.515 -70.403  21.059  1.00  0.00     0.226 C 
HETATM   17  O   UNL     1     -23.080 -70.561  22.133  1.00  0.00    -0.273 OA
HETATM   18  H   UNL     1     -20.855 -70.268  19.839  1.00  0.00     0.169 HD
BRANCH  16  19
HETATM   19  C   UNL     1     -23.355 -70.167  19.842  1.00  0.00     0.078 A 
HETATM   20  C   UNL     1     -23.185 -71.080  18.680  1.00  0.00     0.015 A 
HETATM   21  C   UNL     1     -22.685 -69.667  18.611  1.00  0.00     0.015 A 
ENDBRANCH  16  19
ENDBRANCH  11  15
ENDBRANCH   7   9
ENDBRANCH   3   7
BRANCH   5  22
HETATM   22  N   UNL     1     -16.993 -64.020  22.213  1.00  0.00    -0.341 N 
HETATM   23  H   UNL     1     -16.227 -64.323  21.614  1.00  0.00     0.167 HD
BRANCH  22  24
HETATM   24  C   UNL     1     -17.155 -62.619  22.213  1.00  0.00     0.034 A 
HETATM   25  C   UNL     1     -16.294 -61.816  22.963  1.00  0.00     0.045 A 
HETATM   26  C   UNL     1     -16.454 -60.431  22.962  1.00  0.00     0.050 A 
HETATM   27  C   UNL     1     -17.475 -59.847  22.211  1.00  0.00     0.016 A 
HETATM   28  C   UNL     1     -18.335 -60.649  21.462  1.00  0.00     0.003 A 
HETATM   29  C   UNL     1     -18.175 -62.035  21.462  1.00  0.00     0.029 A 
BRANCH  26  30
HETATM   30  C   UNL     1     -15.535 -59.573  23.764  1.00  0.00     0.417 C 
HETATM   31  F   UNL     1     -15.572 -58.254  23.414  1.00  0.00    -0.166 F 
HETATM   32  F   UNL     1     -15.798 -59.594  25.104  1.00  0.00    -0.166 F 
HETATM   33  F   UNL     1     -14.227 -59.947  23.643  1.00  0.00    -0.166 F 
ENDBRANCH  26  30
ENDBRANCH  22  24
ENDBRANCH   5  22
TORSDOF 7
ENDMDL
MODEL 7
REMARK VINA RESULT:      -5.9      4.790     10.753
REMARK  7 active torsions:
REMARK  status: ('A' for Active; 'I' for Inactive)
REMARK       I    between atoms: N_5  and  C_13 
REMARK    1  A    between atoms: N_5  and  C_14 
REMARK    2  A    between atoms: N_6  and  C_17 
REMARK    3  A    between atoms: N_6  and  C_20 
REMARK    4  A    between atoms: N_7  and  C_21 
REMARK    5  A    between atoms: N_7  and  C_23 
REMARK    6  A    between atoms: C_10  and  C_13 
REMARK    7  A    between atoms: C_24  and  C_29 
ROOT
HETATM    1  N   UNL     1     -18.420 -61.328  23.275  1.00  0.00    -0.224 NA
HETATM    2  N   UNL     1     -18.759 -63.502  22.293  1.00  0.00    -0.224 NA
HETATM    3  C   UNL     1     -17.258 -61.782  23.789  1.00  0.00     0.133 A 
HETATM    4  C   UNL     1     -16.785 -63.065  23.600  1.00  0.00     0.100 A 
HETATM    5  C   UNL     1     -17.583 -63.897  22.835  1.00  0.00     0.133 A 
HETATM    6  C   UNL     1     -19.110 -62.228  22.549  1.00  0.00     0.237 A 
ENDROOT
BRANCH   3   7
HETATM    7  N   UNL     1     -16.466 -60.903  24.568  1.00  0.00    -0.341 N 
HETATM    8  H   UNL     1     -16.339 -61.215  25.526  1.00  0.00     0.167 HD
BRANCH   7   9
HETATM    9  C   UNL     1     -15.821 -59.692  24.269  1.00  0.00     0.035 A 
HETATM   10  C   UNL     1     -16.351 -58.481  24.722  1.00  0.00     0.059 A 
HETATM   11  C   UNL     1     -15.708 -57.279  24.425  1.00  0.00     0.036 A 
HETATM   12  C   UNL     1     -14.532 -57.283  23.675  1.00  0.00     0.029 A 
HETATM   13  C   UNL     1     -13.999 -58.489  23.221  1.00  0.00     0.004 A 
HETATM   14  C   UNL     1     -14.642 -59.691  23.517  1.00  0.00     0.029 A 
BRANCH  11  15
HETATM   15  N   UNL     1     -16.241 -56.072  24.880  1.00  0.00    -0.327 N 
HETATM   16  C   UNL     1     -17.331 -55.364  24.368  1.00  0.00     0.226 C 
HETATM   17  O   UNL     1     -18.039 -55.663  23.415  1.00  0.00    -0.273 OA
HETATM   18  H   UNL     1     -15.765 -55.663  25.681  1.00  0.00     0.169 HD
BRANCH  16  19
HETATM   19  C   UNL     1     -17.630 -54.097  25.106  1.00  0.00     0.078 A 
HETATM   20  C   UNL     1     -16.557 -53.072  25.213  1.00  0.00     0.015 A 
HETATM   21  C   UNL     1     -16.962 -53.870  26.417  1.00  0.00     0.015 A 
ENDBRANCH  16  19
ENDBRANCH  11  15
ENDBRANCH   7   9
ENDBRANCH   3   7
BRANCH   5  22
HETATM   22  N   UNL     1     -17.137 -65.214  22.618  1.00  0.00    -0.341 N 
HETATM   23  H   UNL     1     -16.794 -65.364  21.672  1.00  0.00     0.167 HD
BRANCH  22  24
HETATM   24  C   UNL     1     -17.356 -66.423  23.310  1.00  0.00     0.034 A 
HETATM   25  C   UNL     1     -17.267 -66.457  24.702  1.00  0.00     0.045 A 
HETATM   26  C   UNL     1     -17.486 -67.652  25.386  1.00  0.00     0.050 A 
HETATM   27  C   UNL     1     -17.793 -68.815  24.679  1.00  0.00     0.016 A 
HETATM   28  C   UNL     1     -17.882 -68.782  23.287  1.00  0.00     0.003 A 
HETATM   29  C   UNL     1     -17.664 -67.586  22.603  1.00  0.00     0.029 A 
BRANCH  26  30
HETATM   30  C   UNL     1     -17.391 -67.689  26.875  1.00  0.00     0.417 C 
HETATM   31  F   UNL     1     -16.708 -68.770  27.353  1.00  0.00    -0.166 F 
HETATM   32  F   UNL     1     -16.758 -66.603  27.408  1.00  0.00    -0.166 F 
HETATM   33  F   UNL     1     -18.615 -67.733  27.478  1.00  0.00    -0.166 F 
ENDBRANCH  26  30
ENDBRANCH  22  24
ENDBRANCH   5  22
TORSDOF 7
ENDMDL
MODEL 8
REMARK VINA RESULT:      -5.9      2.558      3.731
REMARK  7 active torsions:
REMARK  status: ('A' for Active; 'I' for Inactive)
REMARK       I    between atoms: N_5  and  C_13 
REMARK    1  A    between atoms: N_5  and  C_14 
REMARK    2  A    between atoms: N_6  and  C_17 
REMARK    3  A    between atoms: N_6  and  C_20 
REMARK    4  A    between atoms: N_7  and  C_21 
REMARK    5  A    between atoms: N_7  and  C_23 
REMARK    6  A    between atoms: C_10  and  C_13 
REMARK    7  A    between atoms: C_24  and  C_29 
ROOT
HETATM    1  N   UNL     1     -19.199 -66.348  24.279  1.00  0.00    -0.224 NA
HETATM    2  N   UNL     1     -17.949 -64.350  24.780  1.00  0.00    -0.224 NA
HETATM    3  C   UNL     1     -18.689 -66.309  23.030  1.00  0.00     0.133 A 
HETATM    4  C   UNL     1     -17.816 -65.336  22.588  1.00  0.00     0.100 A 
HETATM    5  C   UNL     1     -17.473 -64.366  23.513  1.00  0.00     0.133 A 
HETATM    6  C   UNL     1     -18.793 -65.352  25.089  1.00  0.00     0.237 A 
ENDROOT
BRANCH   3   7
HETATM    7  N   UNL     1     -19.063 -67.318  22.108  1.00  0.00    -0.341 N 
HETATM    8  H   UNL     1     -19.544 -66.959  21.289  1.00  0.00     0.167 HD
BRANCH   7   9
HETATM    9  C   UNL     1     -18.890 -68.712  22.107  1.00  0.00     0.035 A 
HETATM   10  C   UNL     1     -19.997 -69.559  22.212  1.00  0.00     0.059 A 
HETATM   11  C   UNL     1     -19.824 -70.942  22.209  1.00  0.00     0.036 A 
HETATM   12  C   UNL     1     -18.544 -71.486  22.102  1.00  0.00     0.029 A 
HETATM   13  C   UNL     1     -17.436 -70.645  21.998  1.00  0.00     0.004 A 
HETATM   14  C   UNL     1     -17.609 -69.261  22.001  1.00  0.00     0.029 A 
BRANCH  11  15
HETATM   15  N   UNL     1     -20.933 -71.784  22.312  1.00  0.00    -0.327 N 
HETATM   16  C   UNL     1     -21.586 -72.477  21.291  1.00  0.00     0.226 C 
HETATM   17  O   UNL     1     -21.315 -72.485  20.097  1.00  0.00    -0.273 OA
HETATM   18  H   UNL     1     -21.307 -71.896  23.252  1.00  0.00     0.169 HD
BRANCH  16  19
HETATM   19  C   UNL     1     -22.748 -73.295  21.761  1.00  0.00     0.078 A 
HETATM   20  C   UNL     1     -22.769 -74.746  21.433  1.00  0.00     0.015 A 
HETATM   21  C   UNL     1     -23.710 -73.802  20.745  1.00  0.00     0.015 A 
ENDBRANCH  16  19
ENDBRANCH  11  15
ENDBRANCH   7   9
ENDBRANCH   3   7
BRANCH   5  22
HETATM   22  N   UNL     1     -16.583 -63.355  23.102  1.00  0.00    -0.341 N 
HETATM   23  H   UNL     1     -15.607 -63.623  23.203  1.00  0.00     0.167 HD
BRANCH  22  24
HETATM   24  C   UNL     1     -16.744 -61.970  22.891  1.00  0.00     0.034 A 
HETATM   25  C   UNL     1     -15.795 -61.073  23.384  1.00  0.00     0.045 A 
HETATM   26  C   UNL     1     -15.954 -59.704  23.173  1.00  0.00     0.050 A 
HETATM   27  C   UNL     1     -17.062 -59.230  22.470  1.00  0.00     0.016 A 
HETATM   28  C   UNL     1     -18.011 -60.126  21.978  1.00  0.00     0.003 A 
HETATM   29  C   UNL     1     -17.852 -61.496  22.188  1.00  0.00     0.029 A 
BRANCH  26  30
HETATM   30  C   UNL     1     -14.940 -58.745  23.700  1.00  0.00     0.417 C 
HETATM   31  F   UNL     1     -14.541 -59.017  24.977  1.00  0.00    -0.166 F 
HETATM   32  F   UNL     1     -13.789 -58.710  22.967  1.00  0.00    -0.166 F 
HETATM   33  F   UNL     1     -15.397 -57.459  23.726  1.00  0.00    -0.166 F 
ENDBRANCH  26  30
ENDBRANCH  22  24
ENDBRANCH   5  22
TORSDOF 7
ENDMDL
MODEL 9
REMARK VINA RESULT:      -5.9      2.584      3.996
REMARK  7 active torsions:
REMARK  status: ('A' for Active; 'I' for Inactive)
REMARK       I    between atoms: N_5  and  C_13 
REMARK    1  A    between atoms: N_5  and  C_14 
REMARK    2  A    between atoms: N_6  and  C_17 
REMARK    3  A    between atoms: N_6  and  C_20 
REMARK    4  A    between atoms: N_7  and  C_21 
REMARK    5  A    between atoms: N_7  and  C_23 
REMARK    6  A    between atoms: C_10  and  C_13 
REMARK    7  A    between atoms: C_24  and  C_29 
ROOT
HETATM    1  N   UNL     1     -18.358 -66.646  25.477  1.00  0.00    -0.224 NA
HETATM    2  N   UNL     1     -18.205 -64.403  24.609  1.00  0.00    -0.224 NA
HETATM    3  C   UNL     1     -17.478 -67.032  24.529  1.00  0.00     0.133 A 
HETATM    4  C   UNL     1     -16.926 -66.174  23.600  1.00  0.00     0.100 A 
HETATM    5  C   UNL     1     -17.327 -64.853  23.683  1.00  0.00     0.133 A 
HETATM    6  C   UNL     1     -18.674 -65.337  25.459  1.00  0.00     0.237 A 
ENDROOT
BRANCH   3   7
HETATM    7  N   UNL     1     -17.090 -68.393  24.473  1.00  0.00    -0.341 N 
HETATM    8  H   UNL     1     -16.255 -68.599  25.015  1.00  0.00     0.167 HD
BRANCH   7   9
HETATM    9  C   UNL     1     -17.638 -69.509  23.820  1.00  0.00     0.035 A 
HETATM   10  C   UNL     1     -18.257 -70.523  24.556  1.00  0.00     0.059 A 
HETATM   11  C   UNL     1     -18.803 -71.629  23.907  1.00  0.00     0.036 A 
HETATM   12  C   UNL     1     -18.732 -71.728  22.517  1.00  0.00     0.029 A 
HETATM   13  C   UNL     1     -18.116 -70.719  21.777  1.00  0.00     0.004 A 
HETATM   14  C   UNL     1     -17.569 -69.612  22.427  1.00  0.00     0.029 A 
BRANCH  11  15
HETATM   15  N   UNL     1     -19.421 -72.639  24.647  1.00  0.00    -0.327 N 
HETATM   16  C   UNL     1     -20.655 -72.596  25.298  1.00  0.00     0.226 C 
HETATM   17  O   UNL     1     -21.444 -71.662  25.350  1.00  0.00    -0.273 OA
HETATM   18  H   UNL     1     -18.895 -73.507  24.718  1.00  0.00     0.169 HD
BRANCH  16  19
HETATM   19  C   UNL     1     -21.012 -73.868  26.002  1.00  0.00     0.078 A 
HETATM   20  C   UNL     1     -20.674 -73.995  27.445  1.00  0.00     0.015 A 
HETATM   21  C   UNL     1     -19.909 -74.777  26.418  1.00  0.00     0.015 A 
ENDBRANCH  16  19
ENDBRANCH  11  15
ENDBRANCH   7   9
ENDBRANCH   3   7
BRANCH   5  22
HETATM   22  N   UNL     1     -16.786 -63.945  22.753  1.00  0.00    -0.341 N 
HETATM   23  H   UNL     1     -15.941 -64.294  22.305  1.00  0.00     0.167 HD
BRANCH  22  24
HETATM   24  C   UNL     1     -16.972 -62.561  22.550  1.00  0.00     0.034 A 
HETATM   25  C   UNL     1     -16.101 -61.645  23.139  1.00  0.00     0.045 A 
HETATM   26  C   UNL     1     -16.285 -60.278  22.936  1.00  0.00     0.050 A 
HETATM   27  C   UNL     1     -17.341 -59.826  22.144  1.00  0.00     0.016 A 
HETATM   28  C   UNL     1     -18.213 -60.742  21.555  1.00  0.00     0.003 A 
HETATM   29  C   UNL     1     -18.028 -62.110  21.758  1.00  0.00     0.029 A 
BRANCH  26  30
HETATM   30  C   UNL     1     -15.353 -59.297  23.565  1.00  0.00     0.417 C 
HETATM   31  F   UNL     1     -15.762 -58.000  23.447  1.00  0.00    -0.166 F 
HETATM   32  F   UNL     1     -15.177 -59.495  24.905  1.00  0.00    -0.166 F 
HETATM   33  F   UNL     1     -14.102 -59.338  23.021  1.00  0.00    -0.166 F 
ENDBRANCH  26  30
ENDBRANCH  22  24
ENDBRANCH   5  22
TORSDOF 7
ENDMDL
