MODEL 1
REMARK VINA RESULT:      -6.6      0.000      0.000
REMARK  7 active torsions:
REMARK  status: ('A' for Active; 'I' for Inactive)
REMARK       I    between atoms: N_5  and  C_13 
REMARK    1  A    between atoms: N_5  and  C_14 
REMARK    2  A    between atoms: N_6  and  C_17 
REMARK    3  A    between atoms: N_6  and  C_20 
REMARK    4  A    between atoms: N_7  and  C_21 
REMARK    5  A    between atoms: N_7  and  C_23 
REMARK    6  A    between atoms: C_10  and  C_13 
REMARK    7  A    between atoms: C_24  and  C_29 
ROOT
HETATM    1  N   UNL     1      -6.571 -69.704   7.569  1.00  0.00    -0.224 NA
HETATM    2  N   UNL     1      -8.856 -69.837   6.815  1.00  0.00    -0.224 NA
HETATM    3  C   UNL     1      -7.029 -69.721   8.839  1.00  0.00     0.133 A 
HETATM    4  C   UNL     1      -8.366 -69.795   9.171  1.00  0.00     0.100 A 
HETATM    5  C   UNL     1      -9.251 -69.850   8.109  1.00  0.00     0.133 A 
HETATM    6  C   UNL     1      -7.525 -69.763   6.621  1.00  0.00     0.237 A 
ENDROOT
BRANCH   3   7
HETATM    7  N   UNL     1      -6.095 -69.661   9.902  1.00  0.00    -0.341 N 
HETATM    8  H   UNL     1      -5.305 -70.291   9.783  1.00  0.00     0.167 HD
BRANCH   7   9
HETATM    9  C   UNL     1      -6.047 -68.898  11.080  1.00  0.00     0.035 A 
HETATM   10  C   UNL     1      -6.801 -69.275  12.194  1.00  0.00     0.059 A 
HETATM   11  C   UNL     1      -6.752 -68.517  13.363  1.00  0.00     0.036 A 
HETATM   12  C   UNL     1      -5.947 -67.378  13.424  1.00  0.00     0.029 A 
HETATM   13  C   UNL     1      -5.192 -66.998  12.315  1.00  0.00     0.004 A 
HETATM   14  C   UNL     1      -5.243 -67.756  11.144  1.00  0.00     0.029 A 
BRANCH  11  15
HETATM   15  N   UNL     1      -7.506 -68.897  14.474  1.00  0.00    -0.327 N 
HETATM   16  C   UNL     1      -8.805 -68.508  14.808  1.00  0.00     0.226 C 
HETATM   17  O   UNL     1      -9.544 -67.753  14.189  1.00  0.00    -0.273 OA
HETATM   18  H   UNL     1      -7.040 -69.533  15.118  1.00  0.00     0.169 HD
BRANCH  16  19
HETATM   19  C   UNL     1      -9.311 -69.112  16.080  1.00  0.00     0.078 A 
HETATM   20  C   UNL     1      -8.688 -70.376  16.557  1.00  0.00     0.015 A 
HETATM   21  C   UNL     1     -10.081 -70.383  15.999  1.00  0.00     0.015 A 
ENDBRANCH  16  19
ENDBRANCH  11  15
ENDBRANCH   7   9
ENDBRANCH   3   7
BRANCH   5  22
HETATM   22  N   UNL     1     -10.626 -69.926   8.405  1.00  0.00    -0.341 N 
HETATM   23  H   UNL     1     -10.879 -69.404   9.241  1.00  0.00     0.167 HD
BRANCH  22  24
HETATM   24  C   UNL     1     -11.644 -70.810   7.991  1.00  0.00     0.034 A 
HETATM   25  C   UNL     1     -11.833 -72.020   8.658  1.00  0.00     0.045 A 
HETATM   26  C   UNL     1     -12.841 -72.892   8.250  1.00  0.00     0.050 A 
HETATM   27  C   UNL     1     -13.661 -72.554   7.173  1.00  0.00     0.016 A 
HETATM   28  C   UNL     1     -13.473 -71.345   6.506  1.00  0.00     0.003 A 
HETATM   29  C   UNL     1     -12.464 -70.472   6.915  1.00  0.00     0.029 A 
BRANCH  26  30
HETATM   30  C   UNL     1     -13.043 -74.187   8.963  1.00  0.00     0.417 C 
HETATM   31  F   UNL     1     -13.362 -75.225   8.135  1.00  0.00    -0.166 F 
HETATM   32  F   UNL     1     -11.942 -74.607   9.653  1.00  0.00    -0.166 F 
HETATM   33  F   UNL     1     -14.051 -74.129   9.882  1.00  0.00    -0.166 F 
ENDBRANCH  26  30
ENDBRANCH  22  24
ENDBRANCH   5  22
TORSDOF 7
ENDMDL
MODEL 2
REMARK VINA RESULT:      -6.4      1.505      2.121
REMARK  7 active torsions:
REMARK  status: ('A' for Active; 'I' for Inactive)
REMARK       I    between atoms: N_5  and  C_13 
REMARK    1  A    between atoms: N_5  and  C_14 
REMARK    2  A    between atoms: N_6  and  C_17 
REMARK    3  A    between atoms: N_6  and  C_20 
REMARK    4  A    between atoms: N_7  and  C_21 
REMARK    5  A    between atoms: N_7  and  C_23 
REMARK    6  A    between atoms: C_10  and  C_13 
REMARK    7  A    between atoms: C_24  and  C_29 
ROOT
HETATM    1  N   UNL     1      -8.274 -71.242   7.994  1.00  0.00    -0.224 NA
HETATM    2  N   UNL     1     -10.203 -72.362   7.083  1.00  0.00    -0.224 NA
HETATM    3  C   UNL     1      -9.101 -70.293   8.481  1.00  0.00     0.133 A 
HETATM    4  C   UNL     1     -10.470 -70.310   8.313  1.00  0.00     0.100 A 
HETATM    5  C   UNL     1     -10.979 -71.379   7.597  1.00  0.00     0.133 A 
HETATM    6  C   UNL     1      -8.883 -72.232   7.314  1.00  0.00     0.237 A 
ENDROOT
BRANCH   3   7
HETATM    7  N   UNL     1      -8.546 -69.212   9.209  1.00  0.00    -0.341 N 
HETATM    8  H   UNL     1      -8.803 -68.301   8.840  1.00  0.00     0.167 HD
BRANCH   7   9
HETATM    9  C   UNL     1      -7.717 -69.159  10.342  1.00  0.00     0.035 A 
HETATM   10  C   UNL     1      -8.262 -69.297  11.621  1.00  0.00     0.059 A 
HETATM   11  C   UNL     1      -7.438 -69.245  12.744  1.00  0.00     0.036 A 
HETATM   12  C   UNL     1      -6.064 -69.054  12.594  1.00  0.00     0.029 A 
HETATM   13  C   UNL     1      -5.515 -68.916  11.320  1.00  0.00     0.004 A 
HETATM   14  C   UNL     1      -6.340 -68.967  10.196  1.00  0.00     0.029 A 
BRANCH  11  15
HETATM   15  N   UNL     1      -7.987 -69.384  14.020  1.00  0.00    -0.327 N 
HETATM   16  C   UNL     1      -8.946 -68.578  14.638  1.00  0.00     0.226 C 
HETATM   17  O   UNL     1      -9.499 -67.586  14.181  1.00  0.00    -0.273 OA
HETATM   18  H   UNL     1      -7.634 -70.171  14.561  1.00  0.00     0.169 HD
BRANCH  16  19
HETATM   19  C   UNL     1      -9.310 -69.022  16.020  1.00  0.00     0.078 A 
HETATM   20  C   UNL     1      -8.611 -70.206  16.588  1.00  0.00     0.015 A 
HETATM   21  C   UNL     1     -10.051 -70.304  16.177  1.00  0.00     0.015 A 
ENDBRANCH  16  19
ENDBRANCH  11  15
ENDBRANCH   7   9
ENDBRANCH   3   7
BRANCH   5  22
HETATM   22  N   UNL     1     -12.373 -71.434   7.404  1.00  0.00    -0.341 N 
HETATM   23  H   UNL     1     -12.804 -70.513   7.377  1.00  0.00     0.167 HD
BRANCH  22  24
HETATM   24  C   UNL     1     -13.318 -72.469   7.561  1.00  0.00     0.034 A 
HETATM   25  C   UNL     1     -13.275 -73.290   8.687  1.00  0.00     0.045 A 
HETATM   26  C   UNL     1     -14.212 -74.312   8.842  1.00  0.00     0.050 A 
HETATM   27  C   UNL     1     -15.191 -74.513   7.869  1.00  0.00     0.016 A 
HETATM   28  C   UNL     1     -15.234 -73.693   6.742  1.00  0.00     0.003 A 
HETATM   29  C   UNL     1     -14.297 -72.670   6.588  1.00  0.00     0.029 A 
BRANCH  26  30
HETATM   30  C   UNL     1     -14.166 -75.190  10.047  1.00  0.00     0.417 C 
HETATM   31  F   UNL     1     -15.136 -74.910  10.966  1.00  0.00    -0.166 F 
HETATM   32  F   UNL     1     -14.318 -76.517   9.761  1.00  0.00    -0.166 F 
HETATM   33  F   UNL     1     -12.983 -75.094  10.722  1.00  0.00    -0.166 F 
ENDBRANCH  26  30
ENDBRANCH  22  24
ENDBRANCH   5  22
TORSDOF 7
ENDMDL
MODEL 3
REMARK VINA RESULT:      -6.4     16.681     18.808
REMARK  7 active torsions:
REMARK  status: ('A' for Active; 'I' for Inactive)
REMARK       I    between atoms: N_5  and  C_13 
REMARK    1  A    between atoms: N_5  and  C_14 
REMARK    2  A    between atoms: N_6  and  C_17 
REMARK    3  A    between atoms: N_6  and  C_20 
REMARK    4  A    between atoms: N_7  and  C_21 
REMARK    5  A    between atoms: N_7  and  C_23 
REMARK    6  A    between atoms: C_10  and  C_13 
REMARK    7  A    between atoms: C_24  and  C_29 
ROOT
HETATM    1  N   UNL     1     -19.305 -63.952  22.857  1.00  0.00    -0.224 NA
HETATM    2  N   UNL     1     -19.453 -61.566  22.561  1.00  0.00    -0.224 NA
HETATM    3  C   UNL     1     -17.986 -63.867  22.584  1.00  0.00     0.133 A 
HETATM    4  C   UNL     1     -17.338 -62.683  22.295  1.00  0.00     0.100 A 
HETATM    5  C   UNL     1     -18.126 -61.546  22.296  1.00  0.00     0.133 A 
HETATM    6  C   UNL     1     -19.968 -62.781  22.827  1.00  0.00     0.237 A 
ENDROOT
BRANCH   3   7
HETATM    7  N   UNL     1     -17.209 -65.051  22.591  1.00  0.00    -0.341 N 
HETATM    8  H   UNL     1     -16.474 -65.057  21.890  1.00  0.00     0.167 HD
BRANCH   7   9
HETATM    9  C   UNL     1     -17.256 -66.211  23.383  1.00  0.00     0.035 A 
HETATM   10  C   UNL     1     -17.935 -67.345  22.930  1.00  0.00     0.059 A 
HETATM   11  C   UNL     1     -17.980 -68.496  23.716  1.00  0.00     0.036 A 
HETATM   12  C   UNL     1     -17.345 -68.518  24.959  1.00  0.00     0.029 A 
HETATM   13  C   UNL     1     -16.667 -67.388  25.415  1.00  0.00     0.004 A 
HETATM   14  C   UNL     1     -16.623 -66.237  24.629  1.00  0.00     0.029 A 
BRANCH  11  15
HETATM   15  N   UNL     1     -18.658 -69.627  23.259  1.00  0.00    -0.327 N 
HETATM   16  C   UNL     1     -18.282 -70.504  22.239  1.00  0.00     0.226 C 
HETATM   17  O   UNL     1     -17.278 -70.455  21.541  1.00  0.00    -0.273 OA
HETATM   18  H   UNL     1     -19.537 -69.825  23.732  1.00  0.00     0.169 HD
BRANCH  16  19
HETATM   19  C   UNL     1     -19.252 -71.621  22.012  1.00  0.00     0.078 A 
HETATM   20  C   UNL     1     -20.340 -71.823  23.007  1.00  0.00     0.015 A 
HETATM   21  C   UNL     1     -19.200 -72.796  22.924  1.00  0.00     0.015 A 
ENDBRANCH  16  19
ENDBRANCH  11  15
ENDBRANCH   7   9
ENDBRANCH   3   7
BRANCH   5  22
HETATM   22  N   UNL     1     -17.503 -60.317  22.006  1.00  0.00    -0.341 N 
HETATM   23  H   UNL     1     -17.470 -60.116  21.009  1.00  0.00     0.167 HD
BRANCH  22  24
HETATM   24  C   UNL     1     -16.650 -59.480  22.754  1.00  0.00     0.034 A 
HETATM   25  C   UNL     1     -17.180 -58.418  23.487  1.00  0.00     0.045 A 
HETATM   26  C   UNL     1     -16.335 -57.591  24.227  1.00  0.00     0.050 A 
HETATM   27  C   UNL     1     -14.960 -57.826  24.235  1.00  0.00     0.016 A 
HETATM   28  C   UNL     1     -14.430 -58.887  23.501  1.00  0.00     0.003 A 
HETATM   29  C   UNL     1     -15.275 -59.714  22.761  1.00  0.00     0.029 A 
BRANCH  26  30
HETATM   30  C   UNL     1     -16.902 -56.456  25.011  1.00  0.00     0.417 C 
HETATM   31  F   UNL     1     -18.251 -56.309  24.866  1.00  0.00    -0.166 F 
HETATM   32  F   UNL     1     -16.698 -56.566  26.357  1.00  0.00    -0.166 F 
HETATM   33  F   UNL     1     -16.362 -55.252  24.657  1.00  0.00    -0.166 F 
ENDBRANCH  26  30
ENDBRANCH  22  24
ENDBRANCH   5  22
TORSDOF 7
ENDMDL
MODEL 4
REMARK VINA RESULT:      -6.2     15.909     18.519
REMARK  7 active torsions:
REMARK  status: ('A' for Active; 'I' for Inactive)
REMARK       I    between atoms: N_5  and  C_13 
REMARK    1  A    between atoms: N_5  and  C_14 
REMARK    2  A    between atoms: N_6  and  C_17 
REMARK    3  A    between atoms: N_6  and  C_20 
REMARK    4  A    between atoms: N_7  and  C_21 
REMARK    5  A    between atoms: N_7  and  C_23 
REMARK    6  A    between atoms: C_10  and  C_13 
REMARK    7  A    between atoms: C_24  and  C_29 
ROOT
HETATM    1  N   UNL     1     -19.001 -65.832  24.646  1.00  0.00    -0.224 NA
HETATM    2  N   UNL     1     -17.876 -63.709  24.827  1.00  0.00    -0.224 NA
HETATM    3  C   UNL     1     -18.544 -65.923  23.379  1.00  0.00     0.133 A 
HETATM    4  C   UNL     1     -17.759 -64.962  22.776  1.00  0.00     0.100 A 
HETATM    5  C   UNL     1     -17.449 -63.859  23.552  1.00  0.00     0.133 A 
HETATM    6  C   UNL     1     -18.635 -64.714  25.302  1.00  0.00     0.237 A 
ENDROOT
BRANCH   3   7
HETATM    7  N   UNL     1     -18.882 -67.066  22.613  1.00  0.00    -0.341 N 
HETATM    8  H   UNL     1     -19.565 -66.877  21.885  1.00  0.00     0.167 HD
BRANCH   7   9
HETATM    9  C   UNL     1     -18.451 -68.402  22.663  1.00  0.00     0.035 A 
HETATM   10  C   UNL     1     -18.402 -69.081  23.884  1.00  0.00     0.059 A 
HETATM   11  C   UNL     1     -17.975 -70.407  23.932  1.00  0.00     0.036 A 
HETATM   12  C   UNL     1     -17.596 -71.062  22.759  1.00  0.00     0.029 A 
HETATM   13  C   UNL     1     -17.644 -70.389  21.539  1.00  0.00     0.004 A 
HETATM   14  C   UNL     1     -18.070 -69.061  21.491  1.00  0.00     0.029 A 
BRANCH  11  15
HETATM   15  N   UNL     1     -17.928 -71.081  25.153  1.00  0.00    -0.327 N 
HETATM   16  C   UNL     1     -18.855 -71.988  25.673  1.00  0.00     0.226 C 
HETATM   17  O   UNL     1     -19.897 -72.373  25.159  1.00  0.00    -0.273 OA
HETATM   18  H   UNL     1     -17.116 -70.876  25.731  1.00  0.00     0.169 HD
BRANCH  16  19
HETATM   19  C   UNL     1     -18.486 -72.525  27.020  1.00  0.00     0.078 A 
HETATM   20  C   UNL     1     -18.352 -73.998  27.180  1.00  0.00     0.015 A 
HETATM   21  C   UNL     1     -19.518 -73.275  27.786  1.00  0.00     0.015 A 
ENDBRANCH  16  19
ENDBRANCH  11  15
ENDBRANCH   7   9
ENDBRANCH   3   7
BRANCH   5  22
HETATM   22  N   UNL     1     -16.650 -62.855  22.973  1.00  0.00    -0.341 N 
HETATM   23  H   UNL     1     -15.703 -63.170  22.774  1.00  0.00     0.167 HD
BRANCH  22  24
HETATM   24  C   UNL     1     -16.776 -61.452  22.909  1.00  0.00     0.034 A 
HETATM   25  C   UNL     1     -15.765 -60.636  23.416  1.00  0.00     0.045 A 
HETATM   26  C   UNL     1     -15.891 -59.248  23.351  1.00  0.00     0.050 A 
HETATM   27  C   UNL     1     -17.028 -58.677  22.779  1.00  0.00     0.016 A 
HETATM   28  C   UNL     1     -18.039 -59.493  22.273  1.00  0.00     0.003 A 
HETATM   29  C   UNL     1     -17.914 -60.881  22.338  1.00  0.00     0.029 A 
BRANCH  26  30
HETATM   30  C   UNL     1     -14.809 -58.375  23.892  1.00  0.00     0.417 C 
HETATM   31  F   UNL     1     -13.701 -58.319  23.097  1.00  0.00    -0.166 F 
HETATM   32  F   UNL     1     -15.192 -57.075  24.063  1.00  0.00    -0.166 F 
HETATM   33  F   UNL     1     -14.363 -58.788  25.115  1.00  0.00    -0.166 F 
ENDBRANCH  26  30
ENDBRANCH  22  24
ENDBRANCH   5  22
TORSDOF 7
ENDMDL
MODEL 5
REMARK VINA RESULT:      -6.0     16.235     19.446
REMARK  7 active torsions:
REMARK  status: ('A' for Active; 'I' for Inactive)
REMARK       I    between atoms: N_5  and  C_13 
REMARK    1  A    between atoms: N_5  and  C_14 
REMARK    2  A    between atoms: N_6  and  C_17 
REMARK    3  A    between atoms: N_6  and  C_20 
REMARK    4  A    between atoms: N_7  and  C_21 
REMARK    5  A    between atoms: N_7  and  C_23 
REMARK    6  A    between atoms: C_10  and  C_13 
REMARK    7  A    between atoms: C_24  and  C_29 
ROOT
HETATM    1  N   UNL     1     -19.851 -63.500  24.449  1.00  0.00    -0.224 NA
HETATM    2  N   UNL     1     -18.954 -62.001  22.790  1.00  0.00    -0.224 NA
HETATM    3  C   UNL     1     -18.648 -63.485  25.059  1.00  0.00     0.133 A 
HETATM    4  C   UNL     1     -17.565 -62.762  24.602  1.00  0.00     0.100 A 
HETATM    5  C   UNL     1     -17.772 -62.027  23.448  1.00  0.00     0.133 A 
HETATM    6  C   UNL     1     -19.932 -62.748  23.336  1.00  0.00     0.237 A 
ENDROOT
BRANCH   3   7
HETATM    7  N   UNL     1     -18.471 -64.250  26.238  1.00  0.00    -0.341 N 
HETATM    8  H   UNL     1     -18.744 -63.759  27.085  1.00  0.00     0.167 HD
BRANCH   7   9
HETATM    9  C   UNL     1     -17.998 -65.555  26.460  1.00  0.00     0.035 A 
HETATM   10  C   UNL     1     -17.755 -66.408  25.381  1.00  0.00     0.059 A 
HETATM   11  C   UNL     1     -17.285 -67.702  25.602  1.00  0.00     0.036 A 
HETATM   12  C   UNL     1     -17.054 -68.148  26.904  1.00  0.00     0.029 A 
HETATM   13  C   UNL     1     -17.295 -67.300  27.984  1.00  0.00     0.004 A 
HETATM   14  C   UNL     1     -17.767 -66.006  27.762  1.00  0.00     0.029 A 
BRANCH  11  15
HETATM   15  N   UNL     1     -17.043 -68.551  24.521  1.00  0.00    -0.327 N 
HETATM   16  C   UNL     1     -17.850 -69.584  24.039  1.00  0.00     0.226 C 
HETATM   17  O   UNL     1     -18.936 -69.950  24.469  1.00  0.00    -0.273 OA
HETATM   18  H   UNL     1     -16.163 -68.394  24.034  1.00  0.00     0.169 HD
BRANCH  16  19
HETATM   19  C   UNL     1     -17.279 -70.296  22.853  1.00  0.00     0.078 A 
HETATM   20  C   UNL     1     -17.495 -69.707  21.504  1.00  0.00     0.015 A 
HETATM   21  C   UNL     1     -18.220 -70.958  21.908  1.00  0.00     0.015 A 
ENDBRANCH  16  19
ENDBRANCH  11  15
ENDBRANCH   7   9
ENDBRANCH   3   7
BRANCH   5  22
HETATM   22  N   UNL     1     -16.692 -61.275  22.948  1.00  0.00    -0.341 N 
HETATM   23  H   UNL     1     -16.051 -61.830  22.386  1.00  0.00     0.167 HD
BRANCH  22  24
HETATM   24  C   UNL     1     -16.146 -60.027  23.315  1.00  0.00     0.034 A 
HETATM   25  C   UNL     1     -16.969 -59.034  23.847  1.00  0.00     0.045 A 
HETATM   26  C   UNL     1     -16.428 -57.802  24.211  1.00  0.00     0.050 A 
HETATM   27  C   UNL     1     -15.065 -57.561  24.044  1.00  0.00     0.016 A 
HETATM   28  C   UNL     1     -14.241 -58.554  23.512  1.00  0.00     0.003 A 
HETATM   29  C   UNL     1     -14.782 -59.787  23.148  1.00  0.00     0.029 A 
BRANCH  26  30
HETATM   30  C   UNL     1     -17.308 -56.739  24.779  1.00  0.00     0.417 C 
HETATM   31  F   UNL     1     -18.199 -57.203  25.704  1.00  0.00    -0.166 F 
HETATM   32  F   UNL     1     -16.622 -55.744  25.414  1.00  0.00    -0.166 F 
HETATM   33  F   UNL     1     -18.061 -56.115  23.826  1.00  0.00    -0.166 F 
ENDBRANCH  26  30
ENDBRANCH  22  24
ENDBRANCH   5  22
TORSDOF 7
ENDMDL
MODEL 6
REMARK VINA RESULT:      -5.9     16.664     19.492
REMARK  7 active torsions:
REMARK  status: ('A' for Active; 'I' for Inactive)
REMARK       I    between atoms: N_5  and  C_13 
REMARK    1  A    between atoms: N_5  and  C_14 
REMARK    2  A    between atoms: N_6  and  C_17 
REMARK    3  A    between atoms: N_6  and  C_20 
REMARK    4  A    between atoms: N_7  and  C_21 
REMARK    5  A    between atoms: N_7  and  C_23 
REMARK    6  A    between atoms: C_10  and  C_13 
REMARK    7  A    between atoms: C_24  and  C_29 
ROOT
HETATM    1  N   UNL     1     -18.097 -62.413  21.443  1.00  0.00    -0.224 NA
HETATM    2  N   UNL     1     -17.614 -60.105  21.939  1.00  0.00    -0.224 NA
HETATM    3  C   UNL     1     -17.139 -62.765  22.326  1.00  0.00     0.133 A 
HETATM    4  C   UNL     1     -16.388 -61.856  23.044  1.00  0.00     0.100 A 
HETATM    5  C   UNL     1     -16.667 -60.522  22.811  1.00  0.00     0.133 A 
HETATM    6  C   UNL     1     -18.279 -61.087  21.299  1.00  0.00     0.237 A 
ENDROOT
BRANCH   3   7
HETATM    7  N   UNL     1     -16.879 -64.140  22.539  1.00  0.00    -0.341 N 
HETATM    8  H   UNL     1     -15.972 -64.439  22.192  1.00  0.00     0.167 HD
BRANCH   7   9
HETATM    9  C   UNL     1     -17.628 -65.164  23.142  1.00  0.00     0.035 A 
HETATM   10  C   UNL     1     -17.777 -66.398  22.502  1.00  0.00     0.059 A 
HETATM   11  C   UNL     1     -18.519 -67.414  23.102  1.00  0.00     0.036 A 
HETATM   12  C   UNL     1     -19.116 -67.202  24.346  1.00  0.00     0.029 A 
HETATM   13  C   UNL     1     -18.970 -65.973  24.988  1.00  0.00     0.004 A 
HETATM   14  C   UNL     1     -18.228 -64.956  24.387  1.00  0.00     0.029 A 
BRANCH  11  15
HETATM   15  N   UNL     1     -18.665 -68.645  22.460  1.00  0.00    -0.327 N 
HETATM   16  C   UNL     1     -18.085 -69.869  22.802  1.00  0.00     0.226 C 
HETATM   17  O   UNL     1     -17.332 -70.107  23.737  1.00  0.00    -0.273 OA
HETATM   18  H   UNL     1     -19.266 -68.637  21.639  1.00  0.00     0.169 HD
BRANCH  16  19
HETATM   19  C   UNL     1     -18.461 -70.993  21.888  1.00  0.00     0.078 A 
HETATM   20  C   UNL     1     -19.881 -71.437  21.862  1.00  0.00     0.015 A 
HETATM   21  C   UNL     1     -18.831 -72.301  22.495  1.00  0.00     0.015 A 
ENDBRANCH  16  19
ENDBRANCH  11  15
ENDBRANCH   7   9
ENDBRANCH   3   7
BRANCH   5  22
HETATM   22  N   UNL     1     -15.923 -59.563  23.524  1.00  0.00    -0.341 N 
HETATM   23  H   UNL     1     -14.921 -59.738  23.493  1.00  0.00     0.167 HD
BRANCH  22  24
HETATM   24  C   UNL     1     -16.276 -58.622  24.513  1.00  0.00     0.034 A 
HETATM   25  C   UNL     1     -16.323 -57.263  24.201  1.00  0.00     0.045 A 
HETATM   26  C   UNL     1     -16.674 -56.335  25.180  1.00  0.00     0.050 A 
HETATM   27  C   UNL     1     -16.979 -56.764  26.471  1.00  0.00     0.016 A 
HETATM   28  C   UNL     1     -16.933 -58.122  26.784  1.00  0.00     0.003 A 
HETATM   29  C   UNL     1     -16.581 -59.051  25.805  1.00  0.00     0.029 A 
BRANCH  26  30
HETATM   30  C   UNL     1     -16.724 -54.881  24.846  1.00  0.00     0.417 C 
HETATM   31  F   UNL     1     -17.912 -54.484  24.305  1.00  0.00    -0.166 F 
HETATM   32  F   UNL     1     -16.533 -54.067  25.925  1.00  0.00    -0.166 F 
HETATM   33  F   UNL     1     -15.769 -54.518  23.940  1.00  0.00    -0.166 F 
ENDBRANCH  26  30
ENDBRANCH  22  24
ENDBRANCH   5  22
TORSDOF 7
ENDMDL
MODEL 7
REMARK VINA RESULT:      -5.8     17.015     19.907
REMARK  7 active torsions:
REMARK  status: ('A' for Active; 'I' for Inactive)
REMARK       I    between atoms: N_5  and  C_13 
REMARK    1  A    between atoms: N_5  and  C_14 
REMARK    2  A    between atoms: N_6  and  C_17 
REMARK    3  A    between atoms: N_6  and  C_20 
REMARK    4  A    between atoms: N_7  and  C_21 
REMARK    5  A    between atoms: N_7  and  C_23 
REMARK    6  A    between atoms: C_10  and  C_13 
REMARK    7  A    between atoms: C_24  and  C_29 
ROOT
HETATM    1  N   UNL     1     -18.248 -62.392  21.464  1.00  0.00    -0.224 NA
HETATM    2  N   UNL     1     -17.756 -60.210  22.359  1.00  0.00    -0.224 NA
HETATM    3  C   UNL     1     -17.249 -62.888  22.223  1.00  0.00     0.133 A 
HETATM    4  C   UNL     1     -16.470 -62.119  23.063  1.00  0.00     0.100 A 
HETATM    5  C   UNL     1     -16.767 -60.768  23.096  1.00  0.00     0.133 A 
HETATM    6  C   UNL     1     -18.444 -61.065  21.579  1.00  0.00     0.237 A 
ENDROOT
BRANCH   3   7
HETATM    7  N   UNL     1     -16.972 -64.276  22.164  1.00  0.00    -0.341 N 
HETATM    8  H   UNL     1     -16.429 -64.546  21.349  1.00  0.00     0.167 HD
BRANCH   7   9
HETATM    9  C   UNL     1     -17.296 -65.344  23.017  1.00  0.00     0.035 A 
HETATM   10  C   UNL     1     -17.180 -65.199  24.403  1.00  0.00     0.059 A 
HETATM   11  C   UNL     1     -17.503 -66.260  25.248  1.00  0.00     0.036 A 
HETATM   12  C   UNL     1     -17.944 -67.470  24.713  1.00  0.00     0.029 A 
HETATM   13  C   UNL     1     -18.061 -67.620  23.331  1.00  0.00     0.004 A 
HETATM   14  C   UNL     1     -17.737 -66.559  22.485  1.00  0.00     0.029 A 
BRANCH  11  15
HETATM   15  N   UNL     1     -17.387 -66.110  26.631  1.00  0.00    -0.327 N 
HETATM   16  C   UNL     1     -18.369 -65.708  27.539  1.00  0.00     0.226 C 
HETATM   17  O   UNL     1     -19.531 -65.406  27.303  1.00  0.00    -0.273 OA
HETATM   18  H   UNL     1     -16.467 -66.317  27.014  1.00  0.00     0.169 HD
BRANCH  16  19
HETATM   19  C   UNL     1     -17.896 -65.657  28.959  1.00  0.00     0.078 A 
HETATM   20  C   UNL     1     -16.915 -64.605  29.338  1.00  0.00     0.015 A 
HETATM   21  C   UNL     1     -16.486 -66.039  29.246  1.00  0.00     0.015 A 
ENDBRANCH  16  19
ENDBRANCH  11  15
ENDBRANCH   7   9
ENDBRANCH   3   7
BRANCH   5  22
HETATM   22  N   UNL     1     -15.995 -59.948  23.941  1.00  0.00    -0.341 N 
HETATM   23  H   UNL     1     -15.104 -60.368  24.193  1.00  0.00     0.167 HD
BRANCH  22  24
HETATM   24  C   UNL     1     -16.319 -58.842  24.754  1.00  0.00     0.034 A 
HETATM   25  C   UNL     1     -16.267 -57.550  24.229  1.00  0.00     0.045 A 
HETATM   26  C   UNL     1     -16.589 -56.457  25.033  1.00  0.00     0.050 A 
HETATM   27  C   UNL     1     -16.963 -56.655  26.362  1.00  0.00     0.016 A 
HETATM   28  C   UNL     1     -17.015 -57.946  26.887  1.00  0.00     0.003 A 
HETATM   29  C   UNL     1     -16.693 -59.040  26.083  1.00  0.00     0.029 A 
BRANCH  26  30
HETATM   30  C   UNL     1     -16.533 -55.076  24.472  1.00  0.00     0.417 C 
HETATM   31  F   UNL     1     -15.326 -54.758  23.919  1.00  0.00    -0.166 F 
HETATM   32  F   UNL     1     -17.448 -54.851  23.483  1.00  0.00    -0.166 F 
HETATM   33  F   UNL     1     -16.769 -54.117  25.415  1.00  0.00    -0.166 F 
ENDBRANCH  26  30
ENDBRANCH  22  24
ENDBRANCH   5  22
TORSDOF 7
ENDMDL
MODEL 8
REMARK VINA RESULT:      -5.7     16.622     18.453
REMARK  7 active torsions:
REMARK  status: ('A' for Active; 'I' for Inactive)
REMARK       I    between atoms: N_5  and  C_13 
REMARK    1  A    between atoms: N_5  and  C_14 
REMARK    2  A    between atoms: N_6  and  C_17 
REMARK    3  A    between atoms: N_6  and  C_20 
REMARK    4  A    between atoms: N_7  and  C_21 
REMARK    5  A    between atoms: N_7  and  C_23 
REMARK    6  A    between atoms: C_10  and  C_13 
REMARK    7  A    between atoms: C_24  and  C_29 
ROOT
HETATM    1  N   UNL     1     -21.059 -61.743  20.020  1.00  0.00    -0.224 NA
HETATM    2  N   UNL     1     -22.566 -60.043  19.217  1.00  0.00    -0.224 NA
HETATM    3  C   UNL     1     -20.038 -60.887  19.803  1.00  0.00     0.133 A 
HETATM    4  C   UNL     1     -20.200 -59.611  19.304  1.00  0.00     0.100 A 
HETATM    5  C   UNL     1     -21.500 -59.232  19.023  1.00  0.00     0.133 A 
HETATM    6  C   UNL     1     -22.278 -61.263  19.709  1.00  0.00     0.237 A 
ENDROOT
BRANCH   3   7
HETATM    7  N   UNL     1     -18.719 -61.309  20.102  1.00  0.00    -0.341 N 
HETATM    8  H   UNL     1     -18.235 -61.716  19.307  1.00  0.00     0.167 HD
BRANCH   7   9
HETATM    9  C   UNL     1     -17.953 -61.265  21.279  1.00  0.00     0.035 A 
HETATM   10  C   UNL     1     -17.552 -60.038  21.813  1.00  0.00     0.059 A 
HETATM   11  C   UNL     1     -16.793 -59.996  22.982  1.00  0.00     0.036 A 
HETATM   12  C   UNL     1     -16.432 -61.182  23.623  1.00  0.00     0.029 A 
HETATM   13  C   UNL     1     -16.830 -62.409  23.093  1.00  0.00     0.004 A 
HETATM   14  C   UNL     1     -17.589 -62.451  21.923  1.00  0.00     0.029 A 
BRANCH  11  15
HETATM   15  N   UNL     1     -16.396 -58.768  23.513  1.00  0.00    -0.327 N 
HETATM   16  C   UNL     1     -17.204 -57.717  23.952  1.00  0.00     0.226 C 
HETATM   17  O   UNL     1     -18.427 -57.664  23.960  1.00  0.00    -0.273 OA
HETATM   18  H   UNL     1     -15.390 -58.629  23.578  1.00  0.00     0.169 HD
BRANCH  16  19
HETATM   19  C   UNL     1     -16.438 -56.538  24.467  1.00  0.00     0.078 A 
HETATM   20  C   UNL     1     -16.834 -55.959  25.779  1.00  0.00     0.015 A 
HETATM   21  C   UNL     1     -17.123 -55.217  24.507  1.00  0.00     0.015 A 
ENDBRANCH  16  19
ENDBRANCH  11  15
ENDBRANCH   7   9
ENDBRANCH   3   7
BRANCH   5  22
HETATM   22  N   UNL     1     -21.709 -57.937  18.511  1.00  0.00    -0.341 N 
HETATM   23  H   UNL     1     -22.408 -57.413  19.034  1.00  0.00     0.167 HD
BRANCH  22  24
HETATM   24  C   UNL     1     -21.403 -57.339  17.271  1.00  0.00     0.034 A 
HETATM   25  C   UNL     1     -20.214 -57.660  16.615  1.00  0.00     0.045 A 
HETATM   26  C   UNL     1     -19.914 -57.070  15.388  1.00  0.00     0.050 A 
HETATM   27  C   UNL     1     -20.802 -56.159  14.816  1.00  0.00     0.016 A 
HETATM   28  C   UNL     1     -21.990 -55.838  15.471  1.00  0.00     0.003 A 
HETATM   29  C   UNL     1     -22.291 -56.428  16.699  1.00  0.00     0.029 A 
BRANCH  26  30
HETATM   30  C   UNL     1     -18.642 -57.412  14.686  1.00  0.00     0.417 C 
HETATM   31  F   UNL     1     -18.708 -58.573  13.969  1.00  0.00    -0.166 F 
HETATM   32  F   UNL     1     -18.240 -56.463  13.791  1.00  0.00    -0.166 F 
HETATM   33  F   UNL     1     -17.594 -57.572  15.547  1.00  0.00    -0.166 F 
ENDBRANCH  26  30
ENDBRANCH  22  24
ENDBRANCH   5  22
TORSDOF 7
ENDMDL
MODEL 9
REMARK VINA RESULT:      -5.7     15.489     18.137
REMARK  7 active torsions:
REMARK  status: ('A' for Active; 'I' for Inactive)
REMARK       I    between atoms: N_5  and  C_13 
REMARK    1  A    between atoms: N_5  and  C_14 
REMARK    2  A    between atoms: N_6  and  C_17 
REMARK    3  A    between atoms: N_6  and  C_20 
REMARK    4  A    between atoms: N_7  and  C_21 
REMARK    5  A    between atoms: N_7  and  C_23 
REMARK    6  A    between atoms: C_10  and  C_13 
REMARK    7  A    between atoms: C_24  and  C_29 
ROOT
HETATM    1  N   UNL     1     -18.231 -61.035  23.193  1.00  0.00    -0.224 NA
HETATM    2  N   UNL     1     -18.736 -63.146  22.145  1.00  0.00    -0.224 NA
HETATM    3  C   UNL     1     -17.075 -61.574  23.634  1.00  0.00     0.133 A 
HETATM    4  C   UNL     1     -16.685 -62.872  23.374  1.00  0.00     0.100 A 
HETATM    5  C   UNL     1     -17.562 -63.627  22.616  1.00  0.00     0.133 A 
HETATM    6  C   UNL     1     -19.003 -61.865  22.466  1.00  0.00     0.237 A 
ENDROOT
BRANCH   3   7
HETATM    7  N   UNL     1     -16.201 -60.772  24.408  1.00  0.00    -0.341 N 
HETATM    8  H   UNL     1     -15.911 -61.212  25.277  1.00  0.00     0.167 HD
BRANCH   7   9
HETATM    9  C   UNL     1     -15.654 -59.495  24.203  1.00  0.00     0.035 A 
HETATM   10  C   UNL     1     -16.329 -58.359  24.658  1.00  0.00     0.059 A 
HETATM   11  C   UNL     1     -15.785 -57.091  24.455  1.00  0.00     0.036 A 
HETATM   12  C   UNL     1     -14.563 -56.953  23.796  1.00  0.00     0.029 A 
HETATM   13  C   UNL     1     -13.885 -58.084  23.341  1.00  0.00     0.004 A 
HETATM   14  C   UNL     1     -14.430 -59.352  23.543  1.00  0.00     0.029 A 
BRANCH  11  15
HETATM   15  N   UNL     1     -16.463 -55.959  24.911  1.00  0.00    -0.327 N 
HETATM   16  C   UNL     1     -17.562 -55.322  24.333  1.00  0.00     0.226 C 
HETATM   17  O   UNL     1     -18.154 -55.630  23.307  1.00  0.00    -0.273 OA
HETATM   18  H   UNL     1     -16.098 -55.553  25.770  1.00  0.00     0.169 HD
BRANCH  16  19
HETATM   19  C   UNL     1     -18.039 -54.125  25.095  1.00  0.00     0.078 A 
HETATM   20  C   UNL     1     -17.091 -53.462  26.031  1.00  0.00     0.015 A 
HETATM   21  C   UNL     1     -18.244 -54.261  26.563  1.00  0.00     0.015 A 
ENDBRANCH  16  19
ENDBRANCH  11  15
ENDBRANCH   7   9
ENDBRANCH   3   7
BRANCH   5  22
HETATM   22  N   UNL     1     -17.202 -64.957  22.329  1.00  0.00    -0.341 N 
HETATM   23  H   UNL     1     -17.080 -65.127  21.333  1.00  0.00     0.167 HD
BRANCH  22  24
HETATM   24  C   UNL     1     -17.287 -66.152  23.074  1.00  0.00     0.034 A 
HETATM   25  C   UNL     1     -17.564 -67.358  22.430  1.00  0.00     0.045 A 
HETATM   26  C   UNL     1     -17.647 -68.539  23.167  1.00  0.00     0.050 A 
HETATM   27  C   UNL     1     -17.452 -68.514  24.548  1.00  0.00     0.016 A 
HETATM   28  C   UNL     1     -17.175 -67.308  25.192  1.00  0.00     0.003 A 
HETATM   29  C   UNL     1     -17.093 -66.127  24.455  1.00  0.00     0.029 A 
BRANCH  26  30
HETATM   30  C   UNL     1     -17.943 -69.829  22.479  1.00  0.00     0.417 C 
HETATM   31  F   UNL     1     -18.540 -69.676  21.261  1.00  0.00    -0.166 F 
HETATM   32  F   UNL     1     -16.834 -70.588  22.240  1.00  0.00    -0.166 F 
HETATM   33  F   UNL     1     -18.784 -70.628  23.201  1.00  0.00    -0.166 F 
ENDBRANCH  26  30
ENDBRANCH  22  24
ENDBRANCH   5  22
TORSDOF 7
ENDMDL
