MODEL 1
REMARK VINA RESULT:      -6.4      0.000      0.000
REMARK  7 active torsions:
REMARK  status: ('A' for Active; 'I' for Inactive)
REMARK       I    between atoms: N_5  and  C_13 
REMARK    1  A    between atoms: N_5  and  C_14 
REMARK    2  A    between atoms: N_6  and  C_17 
REMARK    3  A    between atoms: N_6  and  C_20 
REMARK    4  A    between atoms: N_7  and  C_21 
REMARK    5  A    between atoms: N_7  and  C_23 
REMARK    6  A    between atoms: C_10  and  C_13 
REMARK    7  A    between atoms: C_24  and  C_29 
ROOT
HETATM    1  N   UNL     1     -19.278 -63.950  22.799  1.00  0.00    -0.224 NA
HETATM    2  N   UNL     1     -19.436 -61.566  22.486  1.00  0.00    -0.224 NA
HETATM    3  C   UNL     1     -17.953 -63.856  22.564  1.00  0.00     0.133 A 
HETATM    4  C   UNL     1     -17.306 -62.669  22.286  1.00  0.00     0.100 A 
HETATM    5  C   UNL     1     -18.102 -61.538  22.258  1.00  0.00     0.133 A 
HETATM    6  C   UNL     1     -19.949 -62.784  22.744  1.00  0.00     0.237 A 
ENDROOT
BRANCH   3   7
HETATM    7  N   UNL     1     -17.168 -65.034  22.600  1.00  0.00    -0.341 N 
HETATM    8  H   UNL     1     -16.420 -65.044  21.911  1.00  0.00     0.167 HD
BRANCH   7   9
HETATM    9  C   UNL     1     -17.220 -66.184  23.405  1.00  0.00     0.035 A 
HETATM   10  C   UNL     1     -17.923 -67.313  22.977  1.00  0.00     0.059 A 
HETATM   11  C   UNL     1     -17.973 -68.454  23.777  1.00  0.00     0.036 A 
HETATM   12  C   UNL     1     -17.319 -68.471  25.010  1.00  0.00     0.029 A 
HETATM   13  C   UNL     1     -16.616 -67.347  25.441  1.00  0.00     0.004 A 
HETATM   14  C   UNL     1     -16.567 -66.205  24.641  1.00  0.00     0.029 A 
BRANCH  11  15
HETATM   15  N   UNL     1     -18.675 -69.579  23.345  1.00  0.00    -0.327 N 
HETATM   16  C   UNL     1     -18.225 -70.611  22.518  1.00  0.00     0.226 C 
HETATM   17  O   UNL     1     -17.120 -70.734  22.007  1.00  0.00    -0.273 OA
HETATM   18  H   UNL     1     -19.636 -69.644  23.674  1.00  0.00     0.169 HD
BRANCH  16  19
HETATM   19  C   UNL     1     -19.251 -71.669  22.256  1.00  0.00     0.078 A 
HETATM   20  C   UNL     1     -20.192 -72.026  23.352  1.00  0.00     0.015 A 
HETATM   21  C   UNL     1     -19.105 -72.978  22.949  1.00  0.00     0.015 A 
ENDBRANCH  16  19
ENDBRANCH  11  15
ENDBRANCH   7   9
ENDBRANCH   3   7
BRANCH   5  22
HETATM   22  N   UNL     1     -17.480 -60.306  21.979  1.00  0.00    -0.341 N 
HETATM   23  H   UNL     1     -17.452 -60.094  20.984  1.00  0.00     0.167 HD
BRANCH  22  24
HETATM   24  C   UNL     1     -16.623 -59.477  22.732  1.00  0.00     0.034 A 
HETATM   25  C   UNL     1     -17.150 -58.423  23.479  1.00  0.00     0.045 A 
HETATM   26  C   UNL     1     -16.302 -57.604  24.224  1.00  0.00     0.050 A 
HETATM   27  C   UNL     1     -14.927 -57.839  24.223  1.00  0.00     0.016 A 
HETATM   28  C   UNL     1     -14.400 -58.893  23.476  1.00  0.00     0.003 A 
HETATM   29  C   UNL     1     -15.248 -59.712  22.731  1.00  0.00     0.029 A 
BRANCH  26  30
HETATM   30  C   UNL     1     -16.865 -56.477  25.023  1.00  0.00     0.417 C 
HETATM   31  F   UNL     1     -16.350 -55.258  24.688  1.00  0.00    -0.166 F 
HETATM   32  F   UNL     1     -18.217 -56.340  24.896  1.00  0.00    -0.166 F 
HETATM   33  F   UNL     1     -16.635 -56.616  26.362  1.00  0.00    -0.166 F 
ENDBRANCH  26  30
ENDBRANCH  22  24
ENDBRANCH   5  22
TORSDOF 7
ENDMDL
MODEL 2
REMARK VINA RESULT:      -6.2      1.614      2.227
REMARK  7 active torsions:
REMARK  status: ('A' for Active; 'I' for Inactive)
REMARK       I    between atoms: N_5  and  C_13 
REMARK    1  A    between atoms: N_5  and  C_14 
REMARK    2  A    between atoms: N_6  and  C_17 
REMARK    3  A    between atoms: N_6  and  C_20 
REMARK    4  A    between atoms: N_7  and  C_21 
REMARK    5  A    between atoms: N_7  and  C_23 
REMARK    6  A    between atoms: C_10  and  C_13 
REMARK    7  A    between atoms: C_24  and  C_29 
ROOT
HETATM    1  N   UNL     1     -18.019 -62.246  21.437  1.00  0.00    -0.224 NA
HETATM    2  N   UNL     1     -17.567 -60.041  22.295  1.00  0.00    -0.224 NA
HETATM    3  C   UNL     1     -17.060 -62.722  22.258  1.00  0.00     0.133 A 
HETATM    4  C   UNL     1     -16.322 -61.931  23.115  1.00  0.00     0.100 A 
HETATM    5  C   UNL     1     -16.617 -60.579  23.095  1.00  0.00     0.133 A 
HETATM    6  C   UNL     1     -18.217 -60.916  21.505  1.00  0.00     0.237 A 
ENDROOT
BRANCH   3   7
HETATM    7  N   UNL     1     -16.783 -64.111  22.251  1.00  0.00    -0.341 N 
HETATM    8  H   UNL     1     -16.130 -64.391  21.525  1.00  0.00     0.167 HD
BRANCH   7   9
HETATM    9  C   UNL     1     -17.232 -65.171  23.058  1.00  0.00     0.035 A 
HETATM   10  C   UNL     1     -17.262 -66.474  22.555  1.00  0.00     0.059 A 
HETATM   11  C   UNL     1     -17.706 -67.525  23.356  1.00  0.00     0.036 A 
HETATM   12  C   UNL     1     -18.121 -67.278  24.665  1.00  0.00     0.029 A 
HETATM   13  C   UNL     1     -18.092 -65.979  25.172  1.00  0.00     0.004 A 
HETATM   14  C   UNL     1     -17.649 -64.927  24.369  1.00  0.00     0.029 A 
BRANCH  11  15
HETATM   15  N   UNL     1     -17.734 -68.826  22.850  1.00  0.00    -0.327 N 
HETATM   16  C   UNL     1     -18.846 -69.643  22.638  1.00  0.00     0.226 C 
HETATM   17  O   UNL     1     -20.022 -69.381  22.853  1.00  0.00    -0.273 OA
HETATM   18  H   UNL     1     -16.825 -69.219  22.615  1.00  0.00     0.169 HD
BRANCH  16  19
HETATM   19  C   UNL     1     -18.509 -70.990  22.077  1.00  0.00     0.078 A 
HETATM   20  C   UNL     1     -19.627 -71.899  21.705  1.00  0.00     0.015 A 
HETATM   21  C   UNL     1     -18.787 -72.190  22.913  1.00  0.00     0.015 A 
ENDBRANCH  16  19
ENDBRANCH  11  15
ENDBRANCH   7   9
ENDBRANCH   3   7
BRANCH   5  22
HETATM   22  N   UNL     1     -15.886 -59.737  23.955  1.00  0.00    -0.341 N 
HETATM   23  H   UNL     1     -14.985 -60.129  24.220  1.00  0.00     0.167 HD
BRANCH  22  24
HETATM   24  C   UNL     1     -16.259 -58.644  24.765  1.00  0.00     0.034 A 
HETATM   25  C   UNL     1     -16.211 -57.347  24.254  1.00  0.00     0.045 A 
HETATM   26  C   UNL     1     -16.582 -56.268  25.055  1.00  0.00     0.050 A 
HETATM   27  C   UNL     1     -17.001 -56.485  26.368  1.00  0.00     0.016 A 
HETATM   28  C   UNL     1     -17.049 -57.782  26.880  1.00  0.00     0.003 A 
HETATM   29  C   UNL     1     -16.678 -58.862  26.078  1.00  0.00     0.029 A 
BRANCH  26  30
HETATM   30  C   UNL     1     -16.531 -54.881  24.509  1.00  0.00     0.417 C 
HETATM   31  F   UNL     1     -17.490 -54.625  23.572  1.00  0.00    -0.166 F 
HETATM   32  F   UNL     1     -16.695 -53.914  25.460  1.00  0.00    -0.166 F 
HETATM   33  F   UNL     1     -15.341 -54.599  23.902  1.00  0.00    -0.166 F 
ENDBRANCH  26  30
ENDBRANCH  22  24
ENDBRANCH   5  22
TORSDOF 7
ENDMDL
MODEL 3
REMARK VINA RESULT:      -6.2      2.408      3.404
REMARK  7 active torsions:
REMARK  status: ('A' for Active; 'I' for Inactive)
REMARK       I    between atoms: N_5  and  C_13 
REMARK    1  A    between atoms: N_5  and  C_14 
REMARK    2  A    between atoms: N_6  and  C_17 
REMARK    3  A    between atoms: N_6  and  C_20 
REMARK    4  A    between atoms: N_7  and  C_21 
REMARK    5  A    between atoms: N_7  and  C_23 
REMARK    6  A    between atoms: C_10  and  C_13 
REMARK    7  A    between atoms: C_24  and  C_29 
ROOT
HETATM    1  N   UNL     1     -18.852 -65.861  24.490  1.00  0.00    -0.224 NA
HETATM    2  N   UNL     1     -17.791 -63.714  24.752  1.00  0.00    -0.224 NA
HETATM    3  C   UNL     1     -18.384 -65.897  23.225  1.00  0.00     0.133 A 
HETATM    4  C   UNL     1     -17.623 -64.893  22.661  1.00  0.00     0.100 A 
HETATM    5  C   UNL     1     -17.351 -63.809  23.476  1.00  0.00     0.133 A 
HETATM    6  C   UNL     1     -18.524 -64.757  25.186  1.00  0.00     0.237 A 
ENDROOT
BRANCH   3   7
HETATM    7  N   UNL     1     -18.682 -67.022  22.418  1.00  0.00    -0.341 N 
HETATM    8  H   UNL     1     -19.272 -66.803  21.619  1.00  0.00     0.167 HD
BRANCH   7   9
HETATM    9  C   UNL     1     -18.316 -68.375  22.505  1.00  0.00     0.035 A 
HETATM   10  C   UNL     1     -18.327 -69.029  23.740  1.00  0.00     0.059 A 
HETATM   11  C   UNL     1     -17.964 -70.373  23.825  1.00  0.00     0.036 A 
HETATM   12  C   UNL     1     -17.589 -71.069  22.676  1.00  0.00     0.029 A 
HETATM   13  C   UNL     1     -17.577 -70.421  21.441  1.00  0.00     0.004 A 
HETATM   14  C   UNL     1     -17.939 -69.076  21.356  1.00  0.00     0.029 A 
BRANCH  11  15
HETATM   15  N   UNL     1     -17.977 -71.023  25.061  1.00  0.00    -0.327 N 
HETATM   16  C   UNL     1     -18.906 -71.951  25.536  1.00  0.00     0.226 C 
HETATM   17  O   UNL     1     -19.897 -72.382  24.961  1.00  0.00    -0.273 OA
HETATM   18  H   UNL     1     -17.213 -70.778  25.687  1.00  0.00     0.169 HD
BRANCH  16  19
HETATM   19  C   UNL     1     -18.611 -72.450  26.916  1.00  0.00     0.078 A 
HETATM   20  C   UNL     1     -19.662 -72.303  27.959  1.00  0.00     0.015 A 
HETATM   21  C   UNL     1     -18.429 -71.450  28.003  1.00  0.00     0.015 A 
ENDBRANCH  16  19
ENDBRANCH  11  15
ENDBRANCH   7   9
ENDBRANCH   3   7
BRANCH   5  22
HETATM   22  N   UNL     1     -16.576 -62.764  22.938  1.00  0.00    -0.341 N 
HETATM   23  H   UNL     1     -15.620 -63.046  22.733  1.00  0.00     0.167 HD
BRANCH  22  24
HETATM   24  C   UNL     1     -16.741 -61.363  22.924  1.00  0.00     0.034 A 
HETATM   25  C   UNL     1     -15.725 -60.535  23.403  1.00  0.00     0.045 A 
HETATM   26  C   UNL     1     -15.888 -59.151  23.387  1.00  0.00     0.050 A 
HETATM   27  C   UNL     1     -17.067 -58.593  22.893  1.00  0.00     0.016 A 
HETATM   28  C   UNL     1     -18.084 -59.420  22.415  1.00  0.00     0.003 A 
HETATM   29  C   UNL     1     -17.920 -60.805  22.430  1.00  0.00     0.029 A 
BRANCH  26  30
HETATM   30  C   UNL     1     -14.802 -58.265  23.898  1.00  0.00     0.417 C 
HETATM   31  F   UNL     1     -14.336 -58.625  25.130  1.00  0.00    -0.166 F 
HETATM   32  F   UNL     1     -13.698 -58.235  23.095  1.00  0.00    -0.166 F 
HETATM   33  F   UNL     1     -15.200 -56.965  24.023  1.00  0.00    -0.166 F 
ENDBRANCH  26  30
ENDBRANCH  22  24
ENDBRANCH   5  22
TORSDOF 7
ENDMDL
MODEL 4
REMARK VINA RESULT:      -6.1      6.060      7.847
REMARK  7 active torsions:
REMARK  status: ('A' for Active; 'I' for Inactive)
REMARK       I    between atoms: N_5  and  C_13 
REMARK    1  A    between atoms: N_5  and  C_14 
REMARK    2  A    between atoms: N_6  and  C_17 
REMARK    3  A    between atoms: N_6  and  C_20 
REMARK    4  A    between atoms: N_7  and  C_21 
REMARK    5  A    between atoms: N_7  and  C_23 
REMARK    6  A    between atoms: C_10  and  C_13 
REMARK    7  A    between atoms: C_24  and  C_29 
ROOT
HETATM    1  N   UNL     1     -20.737 -59.087  21.867  1.00  0.00    -0.224 NA
HETATM    2  N   UNL     1     -21.988 -59.172  19.810  1.00  0.00    -0.224 NA
HETATM    3  C   UNL     1     -19.612 -58.951  21.134  1.00  0.00     0.133 A 
HETATM    4  C   UNL     1     -19.596 -58.916  19.755  1.00  0.00     0.100 A 
HETATM    5  C   UNL     1     -20.825 -59.033  19.132  1.00  0.00     0.133 A 
HETATM    6  C   UNL     1     -21.872 -59.192  21.151  1.00  0.00     0.237 A 
ENDROOT
BRANCH   3   7
HETATM    7  N   UNL     1     -18.370 -58.836  21.805  1.00  0.00    -0.341 N 
HETATM    8  H   UNL     1     -18.091 -57.874  21.978  1.00  0.00     0.167 HD
BRANCH   7   9
HETATM    9  C   UNL     1     -17.458 -59.791  22.282  1.00  0.00     0.035 A 
HETATM   10  C   UNL     1     -17.666 -61.150  22.031  1.00  0.00     0.059 A 
HETATM   11  C   UNL     1     -16.759 -62.098  22.503  1.00  0.00     0.036 A 
HETATM   12  C   UNL     1     -15.639 -61.691  23.228  1.00  0.00     0.029 A 
HETATM   13  C   UNL     1     -15.426 -60.337  23.481  1.00  0.00     0.004 A 
HETATM   14  C   UNL     1     -16.334 -59.388  23.009  1.00  0.00     0.029 A 
BRANCH  11  15
HETATM   15  N   UNL     1     -16.971 -63.454  22.250  1.00  0.00    -0.327 N 
HETATM   16  C   UNL     1     -17.505 -64.418  23.108  1.00  0.00     0.226 C 
HETATM   17  O   UNL     1     -17.897 -64.264  24.258  1.00  0.00    -0.273 OA
HETATM   18  H   UNL     1     -16.692 -63.771  21.323  1.00  0.00     0.169 HD
BRANCH  16  19
HETATM   19  C   UNL     1     -17.591 -65.785  22.505  1.00  0.00     0.078 A 
HETATM   20  C   UNL     1     -18.849 -66.559  22.686  1.00  0.00     0.015 A 
HETATM   21  C   UNL     1     -17.603 -66.959  23.420  1.00  0.00     0.015 A 
ENDBRANCH  16  19
ENDBRANCH  11  15
ENDBRANCH   7   9
ENDBRANCH   3   7
BRANCH   5  22
HETATM   22  N   UNL     1     -20.852 -59.001  17.724  1.00  0.00    -0.341 N 
HETATM   23  H   UNL     1     -20.503 -59.860  17.304  1.00  0.00     0.167 HD
BRANCH  22  24
HETATM   24  C   UNL     1     -20.949 -57.946  16.794  1.00  0.00     0.034 A 
HETATM   25  C   UNL     1     -19.916 -57.717  15.886  1.00  0.00     0.045 A 
HETATM   26  C   UNL     1     -20.014 -56.674  14.965  1.00  0.00     0.050 A 
HETATM   27  C   UNL     1     -21.146 -55.859  14.953  1.00  0.00     0.016 A 
HETATM   28  C   UNL     1     -22.180 -56.087  15.862  1.00  0.00     0.003 A 
HETATM   29  C   UNL     1     -22.081 -57.131  16.782  1.00  0.00     0.029 A 
BRANCH  26  30
HETATM   30  C   UNL     1     -18.909 -56.429  13.994  1.00  0.00     0.417 C 
HETATM   31  F   UNL     1     -17.768 -57.123  14.276  1.00  0.00    -0.166 F 
HETATM   32  F   UNL     1     -19.225 -56.770  12.710  1.00  0.00    -0.166 F 
HETATM   33  F   UNL     1     -18.536 -55.116  13.942  1.00  0.00    -0.166 F 
ENDBRANCH  26  30
ENDBRANCH  22  24
ENDBRANCH   5  22
TORSDOF 7
ENDMDL
MODEL 5
REMARK VINA RESULT:      -6.1      1.623      2.149
REMARK  7 active torsions:
REMARK  status: ('A' for Active; 'I' for Inactive)
REMARK       I    between atoms: N_5  and  C_13 
REMARK    1  A    between atoms: N_5  and  C_14 
REMARK    2  A    between atoms: N_6  and  C_17 
REMARK    3  A    between atoms: N_6  and  C_20 
REMARK    4  A    between atoms: N_7  and  C_21 
REMARK    5  A    between atoms: N_7  and  C_23 
REMARK    6  A    between atoms: C_10  and  C_13 
REMARK    7  A    between atoms: C_24  and  C_29 
ROOT
HETATM    1  N   UNL     1     -19.598 -63.765  24.324  1.00  0.00    -0.224 NA
HETATM    2  N   UNL     1     -19.036 -62.220  22.562  1.00  0.00    -0.224 NA
HETATM    3  C   UNL     1     -18.409 -63.487  24.897  1.00  0.00     0.133 A 
HETATM    4  C   UNL     1     -17.494 -62.598  24.371  1.00  0.00     0.100 A 
HETATM    5  C   UNL     1     -17.859 -61.983  23.187  1.00  0.00     0.133 A 
HETATM    6  C   UNL     1     -19.843 -63.107  23.174  1.00  0.00     0.237 A 
ENDROOT
BRANCH   3   7
HETATM    7  N   UNL     1     -18.068 -64.135  26.109  1.00  0.00    -0.341 N 
HETATM    8  H   UNL     1     -18.029 -63.507  26.907  1.00  0.00     0.167 HD
BRANCH   7   9
HETATM    9  C   UNL     1     -17.780 -65.475  26.419  1.00  0.00     0.035 A 
HETATM   10  C   UNL     1     -17.522 -66.394  25.398  1.00  0.00     0.059 A 
HETATM   11  C   UNL     1     -17.236 -67.723  25.707  1.00  0.00     0.036 A 
HETATM   12  C   UNL     1     -17.205 -68.140  27.039  1.00  0.00     0.029 A 
HETATM   13  C   UNL     1     -17.461 -67.226  28.061  1.00  0.00     0.004 A 
HETATM   14  C   UNL     1     -17.749 -65.896  27.751  1.00  0.00     0.029 A 
BRANCH  11  15
HETATM   15  N   UNL     1     -16.978 -68.638  24.685  1.00  0.00    -0.327 N 
HETATM   16  C   UNL     1     -17.898 -69.383  23.944  1.00  0.00     0.226 C 
HETATM   17  O   UNL     1     -19.118 -69.382  24.043  1.00  0.00    -0.273 OA
HETATM   18  H   UNL     1     -15.994 -68.775  24.464  1.00  0.00     0.169 HD
BRANCH  16  19
HETATM   19  C   UNL     1     -17.269 -70.273  22.917  1.00  0.00     0.078 A 
HETATM   20  C   UNL     1     -17.585 -70.030  21.484  1.00  0.00     0.015 A 
HETATM   21  C   UNL     1     -18.142 -71.232  22.187  1.00  0.00     0.015 A 
ENDBRANCH  16  19
ENDBRANCH  11  15
ENDBRANCH   7   9
ENDBRANCH   3   7
BRANCH   5  22
HETATM   22  N   UNL     1     -16.952 -61.069  22.617  1.00  0.00    -0.341 N 
HETATM   23  H   UNL     1     -16.503 -61.429  21.778  1.00  0.00     0.167 HD
BRANCH  22  24
HETATM   24  C   UNL     1     -16.308 -59.921  23.124  1.00  0.00     0.034 A 
HETATM   25  C   UNL     1     -17.054 -58.919  23.746  1.00  0.00     0.045 A 
HETATM   26  C   UNL     1     -16.416 -57.785  24.248  1.00  0.00     0.050 A 
HETATM   27  C   UNL     1     -15.032 -57.653  24.129  1.00  0.00     0.016 A 
HETATM   28  C   UNL     1     -14.286 -58.654  23.508  1.00  0.00     0.003 A 
HETATM   29  C   UNL     1     -14.925 -59.789  23.005  1.00  0.00     0.029 A 
BRANCH  26  30
HETATM   30  C   UNL     1     -17.213 -56.713  24.913  1.00  0.00     0.417 C 
HETATM   31  F   UNL     1     -18.494 -57.084  25.204  1.00  0.00    -0.166 F 
HETATM   32  F   UNL     1     -16.684 -56.297  26.101  1.00  0.00    -0.166 F 
HETATM   33  F   UNL     1     -17.322 -55.588  24.146  1.00  0.00    -0.166 F 
ENDBRANCH  26  30
ENDBRANCH  22  24
ENDBRANCH   5  22
TORSDOF 7
ENDMDL
MODEL 6
REMARK VINA RESULT:      -6.0      2.811      3.985
REMARK  7 active torsions:
REMARK  status: ('A' for Active; 'I' for Inactive)
REMARK       I    between atoms: N_5  and  C_13 
REMARK    1  A    between atoms: N_5  and  C_14 
REMARK    2  A    between atoms: N_6  and  C_17 
REMARK    3  A    between atoms: N_6  and  C_20 
REMARK    4  A    between atoms: N_7  and  C_21 
REMARK    5  A    between atoms: N_7  and  C_23 
REMARK    6  A    between atoms: C_10  and  C_13 
REMARK    7  A    between atoms: C_24  and  C_29 
ROOT
HETATM    1  N   UNL     1     -18.551 -66.422  25.099  1.00  0.00    -0.224 NA
HETATM    2  N   UNL     1     -18.205 -64.106  24.530  1.00  0.00    -0.224 NA
HETATM    3  C   UNL     1     -17.671 -66.752  24.131  1.00  0.00     0.133 A 
HETATM    4  C   UNL     1     -17.027 -65.829  23.332  1.00  0.00     0.100 A 
HETATM    5  C   UNL     1     -17.332 -64.502  23.575  1.00  0.00     0.133 A 
HETATM    6  C   UNL     1     -18.769 -65.100  25.242  1.00  0.00     0.237 A 
ENDROOT
BRANCH   3   7
HETATM    7  N   UNL     1     -17.383 -68.121  23.909  1.00  0.00    -0.341 N 
HETATM    8  H   UNL     1     -16.455 -68.395  24.220  1.00  0.00     0.167 HD
BRANCH   7   9
HETATM    9  C   UNL     1     -18.133 -69.170  23.352  1.00  0.00     0.035 A 
HETATM   10  C   UNL     1     -19.117 -68.901  22.397  1.00  0.00     0.059 A 
HETATM   11  C   UNL     1     -19.860 -69.943  21.843  1.00  0.00     0.036 A 
HETATM   12  C   UNL     1     -19.621 -71.259  22.241  1.00  0.00     0.029 A 
HETATM   13  C   UNL     1     -18.640 -71.532  23.193  1.00  0.00     0.004 A 
HETATM   14  C   UNL     1     -17.898 -70.489  23.748  1.00  0.00     0.029 A 
BRANCH  11  15
HETATM   15  N   UNL     1     -20.841 -69.671  20.889  1.00  0.00    -0.327 N 
HETATM   16  C   UNL     1     -22.087 -69.070  21.082  1.00  0.00     0.226 C 
HETATM   17  O   UNL     1     -22.568 -68.661  22.131  1.00  0.00    -0.273 OA
HETATM   18  H   UNL     1     -20.613 -69.954  19.938  1.00  0.00     0.169 HD
BRANCH  16  19
HETATM   19  C   UNL     1     -22.894 -68.931  19.829  1.00  0.00     0.078 A 
HETATM   20  C   UNL     1     -22.763 -69.983  18.785  1.00  0.00     0.015 A 
HETATM   21  C   UNL     1     -22.177 -68.620  18.561  1.00  0.00     0.015 A 
ENDBRANCH  16  19
ENDBRANCH  11  15
ENDBRANCH   7   9
ENDBRANCH   3   7
BRANCH   5  22
HETATM   22  N   UNL     1     -16.695 -63.528  22.782  1.00  0.00    -0.341 N 
HETATM   23  H   UNL     1     -15.800 -63.843  22.413  1.00  0.00     0.167 HD
BRANCH  22  24
HETATM   24  C   UNL     1     -16.871 -62.134  22.657  1.00  0.00     0.034 A 
HETATM   25  C   UNL     1     -15.925 -61.260  23.193  1.00  0.00     0.045 A 
HETATM   26  C   UNL     1     -16.099 -59.883  23.068  1.00  0.00     0.050 A 
HETATM   27  C   UNL     1     -17.218 -59.378  22.406  1.00  0.00     0.016 A 
HETATM   28  C   UNL     1     -18.164 -60.251  21.869  1.00  0.00     0.003 A 
HETATM   29  C   UNL     1     -17.990 -61.630  21.995  1.00  0.00     0.029 A 
BRANCH  26  30
HETATM   30  C   UNL     1     -15.088 -58.947  23.642  1.00  0.00     0.417 C 
HETATM   31  F   UNL     1     -13.918 -58.907  22.939  1.00  0.00    -0.166 F 
HETATM   32  F   UNL     1     -15.514 -57.651  23.700  1.00  0.00    -0.166 F 
HETATM   33  F   UNL     1     -14.736 -59.275  24.920  1.00  0.00    -0.166 F 
ENDBRANCH  26  30
ENDBRANCH  22  24
ENDBRANCH   5  22
TORSDOF 7
ENDMDL
MODEL 7
REMARK VINA RESULT:      -5.9      6.475     10.759
REMARK  7 active torsions:
REMARK  status: ('A' for Active; 'I' for Inactive)
REMARK       I    between atoms: N_5  and  C_13 
REMARK    1  A    between atoms: N_5  and  C_14 
REMARK    2  A    between atoms: N_6  and  C_17 
REMARK    3  A    between atoms: N_6  and  C_20 
REMARK    4  A    between atoms: N_7  and  C_21 
REMARK    5  A    between atoms: N_7  and  C_23 
REMARK    6  A    between atoms: C_10  and  C_13 
REMARK    7  A    between atoms: C_24  and  C_29 
ROOT
HETATM    1  N   UNL     1     -17.879 -60.320  22.451  1.00  0.00    -0.224 NA
HETATM    2  N   UNL     1     -16.371 -62.123  22.981  1.00  0.00    -0.224 NA
HETATM    3  C   UNL     1     -18.666 -61.214  21.817  1.00  0.00     0.133 A 
HETATM    4  C   UNL     1     -18.376 -62.560  21.725  1.00  0.00     0.100 A 
HETATM    5  C   UNL     1     -17.202 -62.970  22.330  1.00  0.00     0.133 A 
HETATM    6  C   UNL     1     -16.763 -60.835  23.002  1.00  0.00     0.237 A 
ENDROOT
BRANCH   3   7
HETATM    7  N   UNL     1     -19.861 -60.760  21.207  1.00  0.00    -0.341 N 
HETATM    8  H   UNL     1     -20.624 -61.429  21.265  1.00  0.00     0.167 HD
BRANCH   7   9
HETATM    9  C   UNL     1     -20.194 -59.566  20.547  1.00  0.00     0.035 A 
HETATM   10  C   UNL     1     -19.850 -59.383  19.205  1.00  0.00     0.059 A 
HETATM   11  C   UNL     1     -20.183 -58.198  18.551  1.00  0.00     0.036 A 
HETATM   12  C   UNL     1     -20.860 -57.189  19.235  1.00  0.00     0.029 A 
HETATM   13  C   UNL     1     -21.206 -57.366  20.575  1.00  0.00     0.004 A 
HETATM   14  C   UNL     1     -20.872 -58.552  21.230  1.00  0.00     0.029 A 
BRANCH  11  15
HETATM   15  N   UNL     1     -19.838 -58.021  17.210  1.00  0.00    -0.327 N 
HETATM   16  C   UNL     1     -20.679 -58.043  16.094  1.00  0.00     0.226 C 
HETATM   17  O   UNL     1     -21.889 -58.222  16.071  1.00  0.00    -0.273 OA
HETATM   18  H   UNL     1     -18.849 -57.862  17.033  1.00  0.00     0.169 HD
BRANCH  16  19
HETATM   19  C   UNL     1     -19.969 -57.814  14.796  1.00  0.00     0.078 A 
HETATM   20  C   UNL     1     -18.531 -57.435  14.836  1.00  0.00     0.015 A 
HETATM   21  C   UNL     1     -19.569 -56.424  14.448  1.00  0.00     0.015 A 
ENDBRANCH  16  19
ENDBRANCH  11  15
ENDBRANCH   7   9
ENDBRANCH   3   7
BRANCH   5  22
HETATM   22  N   UNL     1     -16.870 -64.336  22.259  1.00  0.00    -0.341 N 
HETATM   23  H   UNL     1     -16.300 -64.562  21.447  1.00  0.00     0.167 HD
BRANCH  22  24
HETATM   24  C   UNL     1     -17.411 -65.483  22.876  1.00  0.00     0.034 A 
HETATM   25  C   UNL     1     -17.294 -66.729  22.259  1.00  0.00     0.045 A 
HETATM   26  C   UNL     1     -17.827 -67.863  22.870  1.00  0.00     0.050 A 
HETATM   27  C   UNL     1     -18.478 -67.752  24.099  1.00  0.00     0.016 A 
HETATM   28  C   UNL     1     -18.595 -66.507  24.716  1.00  0.00     0.003 A 
HETATM   29  C   UNL     1     -18.061 -65.373  24.105  1.00  0.00     0.029 A 
BRANCH  26  30
HETATM   30  C   UNL     1     -17.703 -69.195  22.210  1.00  0.00     0.417 C 
HETATM   31  F   UNL     1     -16.929 -69.179  21.085  1.00  0.00    -0.166 F 
HETATM   32  F   UNL     1     -17.147 -70.151  23.011  1.00  0.00    -0.166 F 
HETATM   33  F   UNL     1     -18.909 -69.701  21.818  1.00  0.00    -0.166 F 
ENDBRANCH  26  30
ENDBRANCH  22  24
ENDBRANCH   5  22
TORSDOF 7
ENDMDL
MODEL 8
REMARK VINA RESULT:      -5.8      1.479      2.019
REMARK  7 active torsions:
REMARK  status: ('A' for Active; 'I' for Inactive)
REMARK       I    between atoms: N_5  and  C_13 
REMARK    1  A    between atoms: N_5  and  C_14 
REMARK    2  A    between atoms: N_6  and  C_17 
REMARK    3  A    between atoms: N_6  and  C_20 
REMARK    4  A    between atoms: N_7  and  C_21 
REMARK    5  A    between atoms: N_7  and  C_23 
REMARK    6  A    between atoms: C_10  and  C_13 
REMARK    7  A    between atoms: C_24  and  C_29 
ROOT
HETATM    1  N   UNL     1     -19.958 -64.285  22.911  1.00  0.00    -0.224 NA
HETATM    2  N   UNL     1     -20.437 -61.955  22.527  1.00  0.00    -0.224 NA
HETATM    3  C   UNL     1     -18.678 -64.042  22.560  1.00  0.00     0.133 A 
HETATM    4  C   UNL     1     -18.209 -62.799  22.186  1.00  0.00     0.100 A 
HETATM    5  C   UNL     1     -19.140 -61.776  22.185  1.00  0.00     0.133 A 
HETATM    6  C   UNL     1     -20.772 -63.213  22.872  1.00  0.00     0.237 A 
ENDROOT
BRANCH   3   7
HETATM    7  N   UNL     1     -17.752 -65.113  22.571  1.00  0.00    -0.341 N 
HETATM    8  H   UNL     1     -17.112 -65.103  21.782  1.00  0.00     0.167 HD
BRANCH   7   9
HETATM    9  C   UNL     1     -17.545 -66.178  23.463  1.00  0.00     0.035 A 
HETATM   10  C   UNL     1     -18.094 -67.436  23.199  1.00  0.00     0.059 A 
HETATM   11  C   UNL     1     -17.887 -68.492  24.084  1.00  0.00     0.036 A 
HETATM   12  C   UNL     1     -17.129 -68.296  25.240  1.00  0.00     0.029 A 
HETATM   13  C   UNL     1     -16.579 -67.044  25.508  1.00  0.00     0.004 A 
HETATM   14  C   UNL     1     -16.787 -65.986  24.622  1.00  0.00     0.029 A 
BRANCH  11  15
HETATM   15  N   UNL     1     -18.437 -69.747  23.816  1.00  0.00    -0.327 N 
HETATM   16  C   UNL     1     -18.006 -70.694  22.884  1.00  0.00     0.226 C 
HETATM   17  O   UNL     1     -17.057 -70.613  22.116  1.00  0.00    -0.273 OA
HETATM   18  H   UNL     1     -19.256 -69.989  24.369  1.00  0.00     0.169 HD
BRANCH  16  19
HETATM   19  C   UNL     1     -18.835 -71.940  22.861  1.00  0.00     0.078 A 
HETATM   20  C   UNL     1     -19.876 -72.076  21.807  1.00  0.00     0.015 A 
HETATM   21  C   UNL     1     -20.272 -71.838  23.234  1.00  0.00     0.015 A 
ENDBRANCH  16  19
ENDBRANCH  11  15
ENDBRANCH   7   9
ENDBRANCH   3   7
BRANCH   5  22
HETATM   22  N   UNL     1     -18.701 -60.491  21.810  1.00  0.00    -0.341 N 
HETATM   23  H   UNL     1     -18.566 -60.398  20.805  1.00  0.00     0.167 HD
BRANCH  22  24
HETATM   24  C   UNL     1     -18.113 -59.434  22.534  1.00  0.00     0.034 A 
HETATM   25  C   UNL     1     -16.745 -59.449  22.806  1.00  0.00     0.045 A 
HETATM   26  C   UNL     1     -16.164 -58.402  23.520  1.00  0.00     0.050 A 
HETATM   27  C   UNL     1     -16.951 -57.339  23.964  1.00  0.00     0.016 A 
HETATM   28  C   UNL     1     -18.319 -57.323  23.692  1.00  0.00     0.003 A 
HETATM   29  C   UNL     1     -18.900 -58.371  22.977  1.00  0.00     0.029 A 
BRANCH  26  30
HETATM   30  C   UNL     1     -14.701 -58.418  23.812  1.00  0.00     0.417 C 
HETATM   31  F   UNL     1     -14.092 -57.211  23.624  1.00  0.00    -0.166 F 
HETATM   32  F   UNL     1     -14.404 -58.771  25.097  1.00  0.00    -0.166 F 
HETATM   33  F   UNL     1     -14.018 -59.299  23.023  1.00  0.00    -0.166 F 
ENDBRANCH  26  30
ENDBRANCH  22  24
ENDBRANCH   5  22
TORSDOF 7
ENDMDL
MODEL 9
REMARK VINA RESULT:      -5.8      6.533      9.977
REMARK  7 active torsions:
REMARK  status: ('A' for Active; 'I' for Inactive)
REMARK       I    between atoms: N_5  and  C_13 
REMARK    1  A    between atoms: N_5  and  C_14 
REMARK    2  A    between atoms: N_6  and  C_17 
REMARK    3  A    between atoms: N_6  and  C_20 
REMARK    4  A    between atoms: N_7  and  C_21 
REMARK    5  A    between atoms: N_7  and  C_23 
REMARK    6  A    between atoms: C_10  and  C_13 
REMARK    7  A    between atoms: C_24  and  C_29 
ROOT
HETATM    1  N   UNL     1     -21.767 -59.811  21.162  1.00  0.00    -0.224 NA
HETATM    2  N   UNL     1     -19.938 -60.743  22.424  1.00  0.00    -0.224 NA
HETATM    3  C   UNL     1     -20.863 -59.134  20.423  1.00  0.00     0.133 A 
HETATM    4  C   UNL     1     -19.500 -59.209  20.622  1.00  0.00     0.100 A 
HETATM    5  C   UNL     1     -19.083 -60.038  21.649  1.00  0.00     0.133 A 
HETATM    6  C   UNL     1     -21.243 -60.585  22.132  1.00  0.00     0.237 A 
ENDROOT
BRANCH   3   7
HETATM    7  N   UNL     1     -21.325 -58.294  19.381  1.00  0.00    -0.341 N 
HETATM    8  H   UNL     1     -21.681 -57.400  19.709  1.00  0.00     0.167 HD
BRANCH   7   9
HETATM    9  C   UNL     1     -21.380 -58.456  17.987  1.00  0.00     0.035 A 
HETATM   10  C   UNL     1     -20.714 -57.559  17.147  1.00  0.00     0.059 A 
HETATM   11  C   UNL     1     -20.768 -57.722  15.763  1.00  0.00     0.036 A 
HETATM   12  C   UNL     1     -21.489 -58.782  15.213  1.00  0.00     0.029 A 
HETATM   13  C   UNL     1     -22.155 -59.680  16.047  1.00  0.00     0.004 A 
HETATM   14  C   UNL     1     -22.101 -59.516  17.431  1.00  0.00     0.029 A 
BRANCH  11  15
HETATM   15  N   UNL     1     -20.101 -56.824  14.928  1.00  0.00    -0.327 N 
HETATM   16  C   UNL     1     -18.766 -56.858  14.518  1.00  0.00     0.226 C 
HETATM   17  O   UNL     1     -17.913 -57.686  14.811  1.00  0.00    -0.273 OA
HETATM   18  H   UNL     1     -20.665 -56.049  14.585  1.00  0.00     0.169 HD
BRANCH  16  19
HETATM   19  C   UNL     1     -18.381 -55.729  13.615  1.00  0.00     0.078 A 
HETATM   20  C   UNL     1     -19.150 -54.459  13.706  1.00  0.00     0.015 A 
HETATM   21  C   UNL     1     -19.314 -55.357  12.516  1.00  0.00     0.015 A 
ENDBRANCH  16  19
ENDBRANCH  11  15
ENDBRANCH   7   9
ENDBRANCH   3   7
BRANCH   5  22
HETATM   22  N   UNL     1     -17.698 -60.143  21.884  1.00  0.00    -0.341 N 
HETATM   23  H   UNL     1     -17.319 -61.048  21.613  1.00  0.00     0.167 HD
BRANCH  22  24
HETATM   24  C   UNL     1     -16.808 -59.404  22.691  1.00  0.00     0.034 A 
HETATM   25  C   UNL     1     -17.280 -58.337  23.455  1.00  0.00     0.045 A 
HETATM   26  C   UNL     1     -16.399 -57.608  24.254  1.00  0.00     0.050 A 
HETATM   27  C   UNL     1     -15.047 -57.947  24.289  1.00  0.00     0.016 A 
HETATM   28  C   UNL     1     -14.574 -59.014  23.525  1.00  0.00     0.003 A 
HETATM   29  C   UNL     1     -15.456 -59.743  22.726  1.00  0.00     0.029 A 
BRANCH  26  30
HETATM   30  C   UNL     1     -16.903 -56.466  25.071  1.00  0.00     0.417 C 
HETATM   31  F   UNL     1     -18.255 -56.289  24.989  1.00  0.00    -0.166 F 
HETATM   32  F   UNL     1     -16.640 -56.591  26.405  1.00  0.00    -0.166 F 
HETATM   33  F   UNL     1     -16.354 -55.272  24.699  1.00  0.00    -0.166 F 
ENDBRANCH  26  30
ENDBRANCH  22  24
ENDBRANCH   5  22
TORSDOF 7
ENDMDL
