MODEL 1
REMARK VINA RESULT:      -6.3      0.000      0.000
REMARK  7 active torsions:
REMARK  status: ('A' for Active; 'I' for Inactive)
REMARK       I    between atoms: N_5  and  C_13 
REMARK    1  A    between atoms: N_5  and  C_14 
REMARK    2  A    between atoms: N_6  and  C_17 
REMARK    3  A    between atoms: N_6  and  C_20 
REMARK    4  A    between atoms: N_7  and  C_21 
REMARK    5  A    between atoms: N_7  and  C_23 
REMARK    6  A    between atoms: C_10  and  C_13 
REMARK    7  A    between atoms: C_24  and  C_29 
ROOT
HETATM    1  N   UNL     1     -18.725 -63.402  22.189  1.00  0.00    -0.224 NA
HETATM    2  N   UNL     1     -18.365 -61.225  23.158  1.00  0.00    -0.224 NA
HETATM    3  C   UNL     1     -17.576 -63.809  22.769  1.00  0.00     0.133 A 
HETATM    4  C   UNL     1     -16.779 -62.993  23.547  1.00  0.00     0.100 A 
HETATM    5  C   UNL     1     -17.223 -61.694  23.713  1.00  0.00     0.133 A 
HETATM    6  C   UNL     1     -19.054 -62.117  22.421  1.00  0.00     0.237 A 
ENDROOT
BRANCH   3   7
HETATM    7  N   UNL     1     -17.152 -65.146  22.578  1.00  0.00    -0.341 N 
HETATM    8  H   UNL     1     -16.706 -65.305  21.679  1.00  0.00     0.167 HD
BRANCH   7   9
HETATM    9  C   UNL     1     -17.222 -66.289  23.392  1.00  0.00     0.035 A 
HETATM   10  C   UNL     1     -17.921 -67.419  22.960  1.00  0.00     0.059 A 
HETATM   11  C   UNL     1     -17.989 -68.553  23.769  1.00  0.00     0.036 A 
HETATM   12  C   UNL     1     -17.358 -68.562  25.013  1.00  0.00     0.029 A 
HETATM   13  C   UNL     1     -16.659 -67.437  25.449  1.00  0.00     0.004 A 
HETATM   14  C   UNL     1     -16.592 -66.302  24.640  1.00  0.00     0.029 A 
BRANCH  11  15
HETATM   15  N   UNL     1     -18.687 -69.680  23.333  1.00  0.00    -0.327 N 
HETATM   16  C   UNL     1     -18.295 -70.621  22.378  1.00  0.00     0.226 C 
HETATM   17  O   UNL     1     -17.256 -70.644  21.731  1.00  0.00    -0.273 OA
HETATM   18  H   UNL     1     -19.596 -69.822  23.768  1.00  0.00     0.169 HD
BRANCH  16  19
HETATM   19  C   UNL     1     -19.296 -71.711  22.155  1.00  0.00     0.078 A 
HETATM   20  C   UNL     1     -20.263 -72.015  23.244  1.00  0.00     0.015 A 
HETATM   21  C   UNL     1     -19.150 -72.971  22.933  1.00  0.00     0.015 A 
ENDBRANCH  16  19
ENDBRANCH  11  15
ENDBRANCH   7   9
ENDBRANCH   3   7
BRANCH   5  22
HETATM   22  N   UNL     1     -16.438 -60.829  24.500  1.00  0.00    -0.341 N 
HETATM   23  H   UNL     1     -16.517 -61.021  25.496  1.00  0.00     0.167 HD
BRANCH  22  24
HETATM   24  C   UNL     1     -15.835 -59.582  24.237  1.00  0.00     0.034 A 
HETATM   25  C   UNL     1     -16.481 -58.402  24.608  1.00  0.00     0.045 A 
HETATM   26  C   UNL     1     -15.883 -57.169  24.349  1.00  0.00     0.050 A 
HETATM   27  C   UNL     1     -14.640 -57.115  23.719  1.00  0.00     0.016 A 
HETATM   28  C   UNL     1     -13.994 -58.294  23.347  1.00  0.00     0.003 A 
HETATM   29  C   UNL     1     -14.592 -59.528  23.607  1.00  0.00     0.029 A 
BRANCH  26  30
HETATM   30  C   UNL     1     -16.573 -55.907  24.746  1.00  0.00     0.417 C 
HETATM   31  F   UNL     1     -16.783 -55.797  26.090  1.00  0.00    -0.166 F 
HETATM   32  F   UNL     1     -15.888 -54.778  24.398  1.00  0.00    -0.166 F 
HETATM   33  F   UNL     1     -17.805 -55.779  24.171  1.00  0.00    -0.166 F 
ENDBRANCH  26  30
ENDBRANCH  22  24
ENDBRANCH   5  22
TORSDOF 7
ENDMDL
MODEL 2
REMARK VINA RESULT:      -6.2      5.961     11.402
REMARK  7 active torsions:
REMARK  status: ('A' for Active; 'I' for Inactive)
REMARK       I    between atoms: N_5  and  C_13 
REMARK    1  A    between atoms: N_5  and  C_14 
REMARK    2  A    between atoms: N_6  and  C_17 
REMARK    3  A    between atoms: N_6  and  C_20 
REMARK    4  A    between atoms: N_7  and  C_21 
REMARK    5  A    between atoms: N_7  and  C_23 
REMARK    6  A    between atoms: C_10  and  C_13 
REMARK    7  A    between atoms: C_24  and  C_29 
ROOT
HETATM    1  N   UNL     1     -19.134 -64.947  23.069  1.00  0.00    -0.224 NA
HETATM    2  N   UNL     1     -19.347 -67.335  23.313  1.00  0.00    -0.224 NA
HETATM    3  C   UNL     1     -17.864 -65.140  22.656  1.00  0.00     0.133 A 
HETATM    4  C   UNL     1     -17.274 -66.382  22.547  1.00  0.00     0.100 A 
HETATM    5  C   UNL     1     -18.067 -67.462  22.892  1.00  0.00     0.133 A 
HETATM    6  C   UNL     1     -19.808 -66.072  23.378  1.00  0.00     0.237 A 
ENDROOT
BRANCH   3   7
HETATM    7  N   UNL     1     -17.080 -64.012  22.312  1.00  0.00    -0.341 N 
HETATM    8  H   UNL     1     -16.090 -64.220  22.221  1.00  0.00     0.167 HD
BRANCH   7   9
HETATM    9  C   UNL     1     -17.409 -62.669  22.065  1.00  0.00     0.035 A 
HETATM   10  C   UNL     1     -16.945 -61.662  22.916  1.00  0.00     0.059 A 
HETATM   11  C   UNL     1     -17.271 -60.329  22.670  1.00  0.00     0.036 A 
HETATM   12  C   UNL     1     -18.062 -59.996  21.570  1.00  0.00     0.029 A 
HETATM   13  C   UNL     1     -18.528 -60.996  20.718  1.00  0.00     0.004 A 
HETATM   14  C   UNL     1     -18.203 -62.330  20.965  1.00  0.00     0.029 A 
BRANCH  11  15
HETATM   15  N   UNL     1     -16.804 -59.327  23.522  1.00  0.00    -0.327 N 
HETATM   16  C   UNL     1     -15.522 -58.778  23.585  1.00  0.00     0.226 C 
HETATM   17  O   UNL     1     -14.548 -59.065  22.901  1.00  0.00    -0.273 OA
HETATM   18  H   UNL     1     -17.490 -58.963  24.180  1.00  0.00     0.169 HD
BRANCH  16  19
HETATM   19  C   UNL     1     -15.369 -57.713  24.626  1.00  0.00     0.078 A 
HETATM   20  C   UNL     1     -16.419 -57.595  25.673  1.00  0.00     0.015 A 
HETATM   21  C   UNL     1     -16.308 -56.558  24.595  1.00  0.00     0.015 A 
ENDBRANCH  16  19
ENDBRANCH  11  15
ENDBRANCH   7   9
ENDBRANCH   3   7
BRANCH   5  22
HETATM   22  N   UNL     1     -17.502 -68.748  22.794  1.00  0.00    -0.341 N 
HETATM   23  H   UNL     1     -16.644 -68.761  22.247  1.00  0.00     0.167 HD
BRANCH  22  24
HETATM   24  C   UNL     1     -18.025 -70.040  23.010  1.00  0.00     0.034 A 
HETATM   25  C   UNL     1     -18.166 -70.527  24.309  1.00  0.00     0.045 A 
HETATM   26  C   UNL     1     -18.685 -71.804  24.522  1.00  0.00     0.050 A 
HETATM   27  C   UNL     1     -19.062 -72.594  23.436  1.00  0.00     0.016 A 
HETATM   28  C   UNL     1     -18.921 -72.107  22.137  1.00  0.00     0.003 A 
HETATM   29  C   UNL     1     -18.402 -70.829  21.924  1.00  0.00     0.029 A 
BRANCH  26  30
HETATM   30  C   UNL     1     -18.836 -72.326  25.912  1.00  0.00     0.417 C 
HETATM   31  F   UNL     1     -20.054 -72.060  26.467  1.00  0.00    -0.166 F 
HETATM   32  F   UNL     1     -18.691 -73.681  26.005  1.00  0.00    -0.166 F 
HETATM   33  F   UNL     1     -17.917 -71.799  26.774  1.00  0.00    -0.166 F 
ENDBRANCH  26  30
ENDBRANCH  22  24
ENDBRANCH   5  22
TORSDOF 7
ENDMDL
MODEL 3
REMARK VINA RESULT:      -6.2      1.642      2.269
REMARK  7 active torsions:
REMARK  status: ('A' for Active; 'I' for Inactive)
REMARK       I    between atoms: N_5  and  C_13 
REMARK    1  A    between atoms: N_5  and  C_14 
REMARK    2  A    between atoms: N_6  and  C_17 
REMARK    3  A    between atoms: N_6  and  C_20 
REMARK    4  A    between atoms: N_7  and  C_21 
REMARK    5  A    between atoms: N_7  and  C_23 
REMARK    6  A    between atoms: C_10  and  C_13 
REMARK    7  A    between atoms: C_24  and  C_29 
ROOT
HETATM    1  N   UNL     1     -18.061 -61.844  21.337  1.00  0.00    -0.224 NA
HETATM    2  N   UNL     1     -17.567 -59.630  22.151  1.00  0.00    -0.224 NA
HETATM    3  C   UNL     1     -17.138 -62.325  22.196  1.00  0.00     0.133 A 
HETATM    4  C   UNL     1     -16.400 -61.533  23.052  1.00  0.00     0.100 A 
HETATM    5  C   UNL     1     -16.655 -60.175  22.990  1.00  0.00     0.133 A 
HETATM    6  C   UNL     1     -18.221 -60.507  21.366  1.00  0.00     0.237 A 
ENDROOT
BRANCH   3   7
HETATM    7  N   UNL     1     -16.902 -63.721  22.233  1.00  0.00    -0.341 N 
HETATM    8  H   UNL     1     -16.217 -64.034  21.551  1.00  0.00     0.167 HD
BRANCH   7   9
HETATM    9  C   UNL     1     -17.427 -64.751  23.032  1.00  0.00     0.035 A 
HETATM   10  C   UNL     1     -17.297 -66.085  22.637  1.00  0.00     0.059 A 
HETATM   11  C   UNL     1     -17.817 -67.106  23.432  1.00  0.00     0.036 A 
HETATM   12  C   UNL     1     -18.468 -66.797  24.627  1.00  0.00     0.029 A 
HETATM   13  C   UNL     1     -18.600 -65.467  25.026  1.00  0.00     0.004 A 
HETATM   14  C   UNL     1     -18.081 -64.446  24.230  1.00  0.00     0.029 A 
BRANCH  11  15
HETATM   15  N   UNL     1     -17.685 -68.437  23.034  1.00  0.00    -0.327 N 
HETATM   16  C   UNL     1     -18.356 -69.098  22.003  1.00  0.00     0.226 C 
HETATM   17  O   UNL     1     -19.196 -68.640  21.240  1.00  0.00    -0.273 OA
HETATM   18  H   UNL     1     -17.018 -68.986  23.573  1.00  0.00     0.169 HD
BRANCH  16  19
HETATM   19  C   UNL     1     -17.966 -70.536  21.852  1.00  0.00     0.078 A 
HETATM   20  C   UNL     1     -19.042 -71.563  21.857  1.00  0.00     0.015 A 
HETATM   21  C   UNL     1     -18.115 -71.434  23.029  1.00  0.00     0.015 A 
ENDBRANCH  16  19
ENDBRANCH  11  15
ENDBRANCH   7   9
ENDBRANCH   3   7
BRANCH   5  22
HETATM   22  N   UNL     1     -15.923 -59.331  23.847  1.00  0.00    -0.341 N 
HETATM   23  H   UNL     1     -14.971 -59.655  24.002  1.00  0.00     0.167 HD
BRANCH  22  24
HETATM   24  C   UNL     1     -16.312 -58.338  24.770  1.00  0.00     0.034 A 
HETATM   25  C   UNL     1     -16.334 -56.997  24.386  1.00  0.00     0.045 A 
HETATM   26  C   UNL     1     -16.720 -56.017  25.298  1.00  0.00     0.050 A 
HETATM   27  C   UNL     1     -17.085 -56.376  26.596  1.00  0.00     0.016 A 
HETATM   28  C   UNL     1     -17.062 -57.716  26.981  1.00  0.00     0.003 A 
HETATM   29  C   UNL     1     -16.676 -58.697  26.068  1.00  0.00     0.029 A 
BRANCH  26  30
HETATM   30  C   UNL     1     -16.744 -54.582  24.888  1.00  0.00     0.417 C 
HETATM   31  F   UNL     1     -15.995 -54.318  23.777  1.00  0.00    -0.166 F 
HETATM   32  F   UNL     1     -17.994 -54.119  24.592  1.00  0.00    -0.166 F 
HETATM   33  F   UNL     1     -16.265 -53.750  25.859  1.00  0.00    -0.166 F 
ENDBRANCH  26  30
ENDBRANCH  22  24
ENDBRANCH   5  22
TORSDOF 7
ENDMDL
MODEL 4
REMARK VINA RESULT:      -6.2      2.379      3.683
REMARK  7 active torsions:
REMARK  status: ('A' for Active; 'I' for Inactive)
REMARK       I    between atoms: N_5  and  C_13 
REMARK    1  A    between atoms: N_5  and  C_14 
REMARK    2  A    between atoms: N_6  and  C_17 
REMARK    3  A    between atoms: N_6  and  C_20 
REMARK    4  A    between atoms: N_7  and  C_21 
REMARK    5  A    between atoms: N_7  and  C_23 
REMARK    6  A    between atoms: C_10  and  C_13 
REMARK    7  A    between atoms: C_24  and  C_29 
ROOT
HETATM    1  N   UNL     1     -18.635 -66.160  25.688  1.00  0.00    -0.224 NA
HETATM    2  N   UNL     1     -18.222 -63.931  24.870  1.00  0.00    -0.224 NA
HETATM    3  C   UNL     1     -17.731 -66.615  24.795  1.00  0.00     0.133 A 
HETATM    4  C   UNL     1     -17.041 -65.801  23.920  1.00  0.00     0.100 A 
HETATM    5  C   UNL     1     -17.327 -64.449  23.998  1.00  0.00     0.133 A 
HETATM    6  C   UNL     1     -18.829 -64.827  25.671  1.00  0.00     0.237 A 
ENDROOT
BRANCH   3   7
HETATM    7  N   UNL     1     -17.465 -68.005  24.742  1.00  0.00    -0.341 N 
HETATM    8  H   UNL     1     -16.978 -68.355  25.562  1.00  0.00     0.167 HD
BRANCH   7   9
HETATM    9  C   UNL     1     -17.749 -68.989  23.781  1.00  0.00     0.035 A 
HETATM   10  C   UNL     1     -18.133 -70.272  24.178  1.00  0.00     0.059 A 
HETATM   11  C   UNL     1     -18.416 -71.247  23.223  1.00  0.00     0.036 A 
HETATM   12  C   UNL     1     -18.317 -70.944  21.865  1.00  0.00     0.029 A 
HETATM   13  C   UNL     1     -17.935 -69.664  21.463  1.00  0.00     0.004 A 
HETATM   14  C   UNL     1     -17.650 -68.689  22.419  1.00  0.00     0.029 A 
BRANCH  11  15
HETATM   15  N   UNL     1     -18.800 -72.528  23.625  1.00  0.00    -0.327 N 
HETATM   16  C   UNL     1     -20.079 -72.979  23.956  1.00  0.00     0.226 C 
HETATM   17  O   UNL     1     -21.123 -72.340  23.959  1.00  0.00    -0.273 OA
HETATM   18  H   UNL     1     -18.045 -73.207  23.686  1.00  0.00     0.169 HD
BRANCH  16  19
HETATM   19  C   UNL     1     -20.130 -74.424  24.346  1.00  0.00     0.078 A 
HETATM   20  C   UNL     1     -19.137 -75.352  23.741  1.00  0.00     0.015 A 
HETATM   21  C   UNL     1     -20.578 -75.412  23.328  1.00  0.00     0.015 A 
ENDBRANCH  16  19
ENDBRANCH  11  15
ENDBRANCH   7   9
ENDBRANCH   3   7
BRANCH   5  22
HETATM   22  N   UNL     1     -16.643 -63.585  23.121  1.00  0.00    -0.341 N 
HETATM   23  H   UNL     1     -15.742 -63.953  22.826  1.00  0.00     0.167 HD
BRANCH  22  24
HETATM   24  C   UNL     1     -16.789 -62.213  22.828  1.00  0.00     0.034 A 
HETATM   25  C   UNL     1     -15.877 -61.289  23.339  1.00  0.00     0.045 A 
HETATM   26  C   UNL     1     -16.020 -59.933  23.047  1.00  0.00     0.050 A 
HETATM   27  C   UNL     1     -17.076 -59.500  22.244  1.00  0.00     0.016 A 
HETATM   28  C   UNL     1     -17.988 -60.423  21.734  1.00  0.00     0.003 A 
HETATM   29  C   UNL     1     -17.844 -61.780  22.026  1.00  0.00     0.029 A 
BRANCH  26  30
HETATM   30  C   UNL     1     -15.045 -58.945  23.593  1.00  0.00     0.417 C 
HETATM   31  F   UNL     1     -13.874 -58.886  22.894  1.00  0.00    -0.166 F 
HETATM   32  F   UNL     1     -15.516 -57.663  23.607  1.00  0.00    -0.166 F 
HETATM   33  F   UNL     1     -14.688 -59.217  24.883  1.00  0.00    -0.166 F 
ENDBRANCH  26  30
ENDBRANCH  22  24
ENDBRANCH   5  22
TORSDOF 7
ENDMDL
MODEL 5
REMARK VINA RESULT:      -6.1      5.641     11.074
REMARK  7 active torsions:
REMARK  status: ('A' for Active; 'I' for Inactive)
REMARK       I    between atoms: N_5  and  C_13 
REMARK    1  A    between atoms: N_5  and  C_14 
REMARK    2  A    between atoms: N_6  and  C_17 
REMARK    3  A    between atoms: N_6  and  C_20 
REMARK    4  A    between atoms: N_7  and  C_21 
REMARK    5  A    between atoms: N_7  and  C_23 
REMARK    6  A    between atoms: C_10  and  C_13 
REMARK    7  A    between atoms: C_24  and  C_29 
ROOT
HETATM    1  N   UNL     1     -19.300 -61.634  23.048  1.00  0.00    -0.224 NA
HETATM    2  N   UNL     1     -19.113 -64.028  23.251  1.00  0.00    -0.224 NA
HETATM    3  C   UNL     1     -18.045 -61.615  22.554  1.00  0.00     0.133 A 
HETATM    4  C   UNL     1     -17.272 -62.745  22.381  1.00  0.00     0.100 A 
HETATM    5  C   UNL     1     -17.858 -63.942  22.750  1.00  0.00     0.133 A 
HETATM    6  C   UNL     1     -19.764 -62.856  23.372  1.00  0.00     0.237 A 
ENDROOT
BRANCH   3   7
HETATM    7  N   UNL     1     -17.474 -60.371  22.187  1.00  0.00    -0.341 N 
HETATM    8  H   UNL     1     -17.790 -60.032  21.283  1.00  0.00     0.167 HD
BRANCH   7   9
HETATM    9  C   UNL     1     -16.566 -59.517  22.835  1.00  0.00     0.035 A 
HETATM   10  C   UNL     1     -17.032 -58.451  23.609  1.00  0.00     0.059 A 
HETATM   11  C   UNL     1     -16.129 -57.605  24.252  1.00  0.00     0.036 A 
HETATM   12  C   UNL     1     -14.757 -57.821  24.124  1.00  0.00     0.029 A 
HETATM   13  C   UNL     1     -14.287 -58.884  23.353  1.00  0.00     0.004 A 
HETATM   14  C   UNL     1     -15.190 -59.730  22.709  1.00  0.00     0.029 A 
BRANCH  11  15
HETATM   15  N   UNL     1     -16.598 -56.541  25.025  1.00  0.00    -0.327 N 
HETATM   16  C   UNL     1     -17.003 -56.561  26.361  1.00  0.00     0.226 C 
HETATM   17  O   UNL     1     -17.027 -57.517  27.124  1.00  0.00    -0.273 OA
HETATM   18  H   UNL     1     -16.654 -55.646  24.543  1.00  0.00     0.169 HD
BRANCH  16  19
HETATM   19  C   UNL     1     -17.452 -55.229  26.877  1.00  0.00     0.078 A 
HETATM   20  C   UNL     1     -18.569 -54.540  26.176  1.00  0.00     0.015 A 
HETATM   21  C   UNL     1     -17.166 -54.022  26.054  1.00  0.00     0.015 A 
ENDBRANCH  16  19
ENDBRANCH  11  15
ENDBRANCH   7   9
ENDBRANCH   3   7
BRANCH   5  22
HETATM   22  N   UNL     1     -17.103 -65.119  22.588  1.00  0.00    -0.341 N 
HETATM   23  H   UNL     1     -16.475 -65.079  21.789  1.00  0.00     0.167 HD
BRANCH  22  24
HETATM   24  C   UNL     1     -17.257 -66.429  23.088  1.00  0.00     0.034 A 
HETATM   25  C   UNL     1     -17.478 -67.490  22.210  1.00  0.00     0.045 A 
HETATM   26  C   UNL     1     -17.629 -68.785  22.705  1.00  0.00     0.050 A 
HETATM   27  C   UNL     1     -17.559 -69.019  24.078  1.00  0.00     0.016 A 
HETATM   28  C   UNL     1     -17.338 -67.959  24.957  1.00  0.00     0.003 A 
HETATM   29  C   UNL     1     -17.187 -66.663  24.461  1.00  0.00     0.029 A 
BRANCH  26  30
HETATM   30  C   UNL     1     -17.866 -69.920  21.766  1.00  0.00     0.417 C 
HETATM   31  F   UNL     1     -19.187 -70.220  21.592  1.00  0.00    -0.166 F 
HETATM   32  F   UNL     1     -17.383 -69.698  20.508  1.00  0.00    -0.166 F 
HETATM   33  F   UNL     1     -17.279 -71.079  22.185  1.00  0.00    -0.166 F 
ENDBRANCH  26  30
ENDBRANCH  22  24
ENDBRANCH   5  22
TORSDOF 7
ENDMDL
MODEL 6
REMARK VINA RESULT:      -5.9      2.884      4.283
REMARK  7 active torsions:
REMARK  status: ('A' for Active; 'I' for Inactive)
REMARK       I    between atoms: N_5  and  C_13 
REMARK    1  A    between atoms: N_5  and  C_14 
REMARK    2  A    between atoms: N_6  and  C_17 
REMARK    3  A    between atoms: N_6  and  C_20 
REMARK    4  A    between atoms: N_7  and  C_21 
REMARK    5  A    between atoms: N_7  and  C_23 
REMARK    6  A    between atoms: C_10  and  C_13 
REMARK    7  A    between atoms: C_24  and  C_29 
ROOT
HETATM    1  N   UNL     1     -18.643 -66.753  24.911  1.00  0.00    -0.224 NA
HETATM    2  N   UNL     1     -18.568 -64.511  24.032  1.00  0.00    -0.224 NA
HETATM    3  C   UNL     1     -17.637 -67.076  24.072  1.00  0.00     0.133 A 
HETATM    4  C   UNL     1     -17.053 -66.184  23.197  1.00  0.00     0.100 A 
HETATM    5  C   UNL     1     -17.561 -64.898  23.215  1.00  0.00     0.133 A 
HETATM    6  C   UNL     1     -19.054 -65.473  24.839  1.00  0.00     0.237 A 
ENDROOT
BRANCH   3   7
HETATM    7  N   UNL     1     -17.142 -68.403  24.080  1.00  0.00    -0.341 N 
HETATM    8  H   UNL     1     -16.169 -68.471  24.364  1.00  0.00     0.167 HD
BRANCH   7   9
HETATM    9  C   UNL     1     -17.738 -69.639  23.778  1.00  0.00     0.035 A 
HETATM   10  C   UNL     1     -18.519 -70.296  24.733  1.00  0.00     0.059 A 
HETATM   11  C   UNL     1     -19.111 -71.522  24.431  1.00  0.00     0.036 A 
HETATM   12  C   UNL     1     -18.925 -72.097  23.173  1.00  0.00     0.029 A 
HETATM   13  C   UNL     1     -18.147 -71.445  22.217  1.00  0.00     0.004 A 
HETATM   14  C   UNL     1     -17.554 -70.219  22.519  1.00  0.00     0.029 A 
BRANCH  11  15
HETATM   15  N   UNL     1     -19.890 -72.175  25.388  1.00  0.00    -0.327 N 
HETATM   16  C   UNL     1     -19.469 -73.053  26.389  1.00  0.00     0.226 C 
HETATM   17  O   UNL     1     -18.328 -73.425  26.629  1.00  0.00    -0.273 OA
HETATM   18  H   UNL     1     -20.889 -71.985  25.336  1.00  0.00     0.169 HD
BRANCH  16  19
HETATM   19  C   UNL     1     -20.581 -73.572  27.246  1.00  0.00     0.078 A 
HETATM   20  C   UNL     1     -20.970 -72.787  28.449  1.00  0.00     0.015 A 
HETATM   21  C   UNL     1     -20.244 -74.091  28.600  1.00  0.00     0.015 A 
ENDBRANCH  16  19
ENDBRANCH  11  15
ENDBRANCH   7   9
ENDBRANCH   3   7
BRANCH   5  22
HETATM   22  N   UNL     1     -16.991 -63.956  22.336  1.00  0.00    -0.341 N 
HETATM   23  H   UNL     1     -16.158 -64.306  21.869  1.00  0.00     0.167 HD
BRANCH  22  24
HETATM   24  C   UNL     1     -17.135 -62.559  22.210  1.00  0.00     0.034 A 
HETATM   25  C   UNL     1     -16.313 -61.703  22.943  1.00  0.00     0.045 A 
HETATM   26  C   UNL     1     -16.454 -60.322  22.817  1.00  0.00     0.050 A 
HETATM   27  C   UNL     1     -17.418 -59.795  21.956  1.00  0.00     0.016 A 
HETATM   28  C   UNL     1     -18.240 -60.650  21.223  1.00  0.00     0.003 A 
HETATM   29  C   UNL     1     -18.098 -62.033  21.350  1.00  0.00     0.029 A 
BRANCH  26  30
HETATM   30  C   UNL     1     -15.576 -59.406  23.601  1.00  0.00     0.417 C 
HETATM   31  F   UNL     1     -15.562 -59.674  24.940  1.00  0.00    -0.166 F 
HETATM   32  F   UNL     1     -14.266 -59.445  23.217  1.00  0.00    -0.166 F 
HETATM   33  F   UNL     1     -15.951 -58.098  23.493  1.00  0.00    -0.166 F 
ENDBRANCH  26  30
ENDBRANCH  22  24
ENDBRANCH   5  22
TORSDOF 7
ENDMDL
MODEL 7
REMARK VINA RESULT:      -5.9      4.081      8.664
REMARK  7 active torsions:
REMARK  status: ('A' for Active; 'I' for Inactive)
REMARK       I    between atoms: N_5  and  C_13 
REMARK    1  A    between atoms: N_5  and  C_14 
REMARK    2  A    between atoms: N_6  and  C_17 
REMARK    3  A    between atoms: N_6  and  C_20 
REMARK    4  A    between atoms: N_7  and  C_21 
REMARK    5  A    between atoms: N_7  and  C_23 
REMARK    6  A    between atoms: C_10  and  C_13 
REMARK    7  A    between atoms: C_24  and  C_29 
ROOT
HETATM    1  N   UNL     1     -17.495 -66.056  22.331  1.00  0.00    -0.224 NA
HETATM    2  N   UNL     1     -18.368 -66.916  24.406  1.00  0.00    -0.224 NA
HETATM    3  C   UNL     1     -17.428 -64.837  22.908  1.00  0.00     0.133 A 
HETATM    4  C   UNL     1     -17.807 -64.584  24.211  1.00  0.00     0.100 A 
HETATM    5  C   UNL     1     -18.277 -65.670  24.927  1.00  0.00     0.133 A 
HETATM    6  C   UNL     1     -17.968 -67.035  23.125  1.00  0.00     0.237 A 
ENDROOT
BRANCH   3   7
HETATM    7  N   UNL     1     -16.943 -63.747  22.146  1.00  0.00    -0.341 N 
HETATM    8  H   UNL     1     -16.088 -63.957  21.638  1.00  0.00     0.167 HD
BRANCH   7   9
HETATM    9  C   UNL     1     -17.418 -62.440  21.952  1.00  0.00     0.035 A 
HETATM   10  C   UNL     1     -16.985 -61.402  22.782  1.00  0.00     0.059 A 
HETATM   11  C   UNL     1     -17.457 -60.105  22.588  1.00  0.00     0.036 A 
HETATM   12  C   UNL     1     -18.364 -59.838  21.562  1.00  0.00     0.029 A 
HETATM   13  C   UNL     1     -18.799 -60.869  20.731  1.00  0.00     0.004 A 
HETATM   14  C   UNL     1     -18.328 -62.168  20.926  1.00  0.00     0.029 A 
BRANCH  11  15
HETATM   15  N   UNL     1     -17.021 -59.072  23.420  1.00  0.00    -0.327 N 
HETATM   16  C   UNL     1     -15.717 -58.606  23.603  1.00  0.00     0.226 C 
HETATM   17  O   UNL     1     -14.693 -59.011  23.068  1.00  0.00    -0.273 OA
HETATM   18  H   UNL     1     -17.751 -58.612  23.959  1.00  0.00     0.169 HD
BRANCH  16  19
HETATM   19  C   UNL     1     -15.610 -57.474  24.577  1.00  0.00     0.078 A 
HETATM   20  C   UNL     1     -16.389 -57.556  25.842  1.00  0.00     0.015 A 
HETATM   21  C   UNL     1     -16.794 -56.593  24.765  1.00  0.00     0.015 A 
ENDBRANCH  16  19
ENDBRANCH  11  15
ENDBRANCH   7   9
ENDBRANCH   3   7
BRANCH   5  22
HETATM   22  N   UNL     1     -18.674 -65.454  26.260  1.00  0.00    -0.341 N 
HETATM   23  H   UNL     1     -19.675 -65.300  26.354  1.00  0.00     0.167 HD
BRANCH  22  24
HETATM   24  C   UNL     1     -17.961 -65.092  27.422  1.00  0.00     0.034 A 
HETATM   25  C   UNL     1     -18.023 -63.784  27.901  1.00  0.00     0.045 A 
HETATM   26  C   UNL     1     -17.319 -63.428  29.051  1.00  0.00     0.050 A 
HETATM   27  C   UNL     1     -16.552 -64.380  29.722  1.00  0.00     0.016 A 
HETATM   28  C   UNL     1     -16.488 -65.688  29.243  1.00  0.00     0.003 A 
HETATM   29  C   UNL     1     -17.193 -66.045  28.093  1.00  0.00     0.029 A 
BRANCH  26  30
HETATM   30  C   UNL     1     -17.386 -62.029  29.564  1.00  0.00     0.417 C 
HETATM   31  F   UNL     1     -16.420 -61.211  29.052  1.00  0.00    -0.166 F 
HETATM   32  F   UNL     1     -18.567 -61.401  29.287  1.00  0.00    -0.166 F 
HETATM   33  F   UNL     1     -17.243 -61.959  30.920  1.00  0.00    -0.166 F 
ENDBRANCH  26  30
ENDBRANCH  22  24
ENDBRANCH   5  22
TORSDOF 7
ENDMDL
MODEL 8
REMARK VINA RESULT:      -5.9      6.276     11.227
REMARK  7 active torsions:
REMARK  status: ('A' for Active; 'I' for Inactive)
REMARK       I    between atoms: N_5  and  C_13 
REMARK    1  A    between atoms: N_5  and  C_14 
REMARK    2  A    between atoms: N_6  and  C_17 
REMARK    3  A    between atoms: N_6  and  C_20 
REMARK    4  A    between atoms: N_7  and  C_21 
REMARK    5  A    between atoms: N_7  and  C_23 
REMARK    6  A    between atoms: C_10  and  C_13 
REMARK    7  A    between atoms: C_24  and  C_29 
ROOT
HETATM    1  N   UNL     1     -18.260 -64.814  24.014  1.00  0.00    -0.224 NA
HETATM    2  N   UNL     1     -18.342 -67.170  24.514  1.00  0.00    -0.224 NA
HETATM    3  C   UNL     1     -17.499 -65.107  22.939  1.00  0.00     0.133 A 
HETATM    4  C   UNL     1     -17.124 -66.389  22.591  1.00  0.00     0.100 A 
HETATM    5  C   UNL     1     -17.576 -67.398  23.422  1.00  0.00     0.133 A 
HETATM    6  C   UNL     1     -18.640 -65.878  24.747  1.00  0.00     0.237 A 
ENDROOT
BRANCH   3   7
HETATM    7  N   UNL     1     -17.052 -64.048  22.111  1.00  0.00    -0.341 N 
HETATM    8  H   UNL     1     -16.622 -64.364  21.246  1.00  0.00     0.167 HD
BRANCH   7   9
HETATM    9  C   UNL     1     -17.095 -62.651  22.253  1.00  0.00     0.035 A 
HETATM   10  C   UNL     1     -17.987 -61.893  21.489  1.00  0.00     0.059 A 
HETATM   11  C   UNL     1     -18.030 -60.507  21.632  1.00  0.00     0.036 A 
HETATM   12  C   UNL     1     -17.180 -59.872  22.538  1.00  0.00     0.029 A 
HETATM   13  C   UNL     1     -16.288 -60.624  23.302  1.00  0.00     0.004 A 
HETATM   14  C   UNL     1     -16.245 -62.011  23.159  1.00  0.00     0.029 A 
BRANCH  11  15
HETATM   15  N   UNL     1     -18.923 -59.754  20.868  1.00  0.00    -0.327 N 
HETATM   16  C   UNL     1     -20.267 -59.483  21.133  1.00  0.00     0.226 C 
HETATM   17  O   UNL     1     -20.932 -59.853  22.092  1.00  0.00    -0.273 OA
HETATM   18  H   UNL     1     -18.538 -59.363  20.011  1.00  0.00     0.169 HD
BRANCH  16  19
HETATM   19  C   UNL     1     -20.931 -58.635  20.093  1.00  0.00     0.078 A 
HETATM   20  C   UNL     1     -20.319 -57.321  19.760  1.00  0.00     0.015 A 
HETATM   21  C   UNL     1     -21.605 -57.382  20.531  1.00  0.00     0.015 A 
ENDBRANCH  16  19
ENDBRANCH  11  15
ENDBRANCH   7   9
ENDBRANCH   3   7
BRANCH   5  22
HETATM   22  N   UNL     1     -17.216 -68.721  23.101  1.00  0.00    -0.341 N 
HETATM   23  H   UNL     1     -16.360 -68.775  22.552  1.00  0.00     0.167 HD
BRANCH  22  24
HETATM   24  C   UNL     1     -17.937 -69.933  23.098  1.00  0.00     0.034 A 
HETATM   25  C   UNL     1     -18.102 -70.651  24.282  1.00  0.00     0.045 A 
HETATM   26  C   UNL     1     -18.816 -71.848  24.279  1.00  0.00     0.050 A 
HETATM   27  C   UNL     1     -19.366 -72.329  23.090  1.00  0.00     0.016 A 
HETATM   28  C   UNL     1     -19.201 -71.612  21.905  1.00  0.00     0.003 A 
HETATM   29  C   UNL     1     -18.487 -70.414  21.909  1.00  0.00     0.029 A 
BRANCH  26  30
HETATM   30  C   UNL     1     -18.993 -72.616  25.546  1.00  0.00     0.417 C 
HETATM   31  F   UNL     1     -18.884 -73.968  25.386  1.00  0.00    -0.166 F 
HETATM   32  F   UNL     1     -18.080 -72.296  26.510  1.00  0.00    -0.166 F 
HETATM   33  F   UNL     1     -20.216 -72.412  26.118  1.00  0.00    -0.166 F 
ENDBRANCH  26  30
ENDBRANCH  22  24
ENDBRANCH   5  22
TORSDOF 7
ENDMDL
MODEL 9
REMARK VINA RESULT:      -5.9      6.156     11.061
REMARK  7 active torsions:
REMARK  status: ('A' for Active; 'I' for Inactive)
REMARK       I    between atoms: N_5  and  C_13 
REMARK    1  A    between atoms: N_5  and  C_14 
REMARK    2  A    between atoms: N_6  and  C_17 
REMARK    3  A    between atoms: N_6  and  C_20 
REMARK    4  A    between atoms: N_7  and  C_21 
REMARK    5  A    between atoms: N_7  and  C_23 
REMARK    6  A    between atoms: C_10  and  C_13 
REMARK    7  A    between atoms: C_24  and  C_29 
ROOT
HETATM    1  N   UNL     1     -18.014 -63.893  25.043  1.00  0.00    -0.224 NA
HETATM    2  N   UNL     1     -18.049 -66.101  26.006  1.00  0.00    -0.224 NA
HETATM    3  C   UNL     1     -17.303 -64.395  24.011  1.00  0.00     0.133 A 
HETATM    4  C   UNL     1     -16.934 -65.720  23.908  1.00  0.00     0.100 A 
HETATM    5  C   UNL     1     -17.335 -66.543  24.945  1.00  0.00     0.133 A 
HETATM    6  C   UNL     1     -18.347 -64.788  25.992  1.00  0.00     0.237 A 
ENDROOT
BRANCH   3   7
HETATM    7  N   UNL     1     -16.908 -63.523  22.967  1.00  0.00    -0.341 N 
HETATM    8  H   UNL     1     -16.794 -63.990  22.072  1.00  0.00     0.167 HD
BRANCH   7   9
HETATM    9  C   UNL     1     -16.652 -62.143  22.930  1.00  0.00     0.035 A 
HETATM   10  C   UNL     1     -17.630 -61.257  22.471  1.00  0.00     0.059 A 
HETATM   11  C   UNL     1     -17.374 -59.886  22.436  1.00  0.00     0.036 A 
HETATM   12  C   UNL     1     -16.140 -59.395  22.862  1.00  0.00     0.029 A 
HETATM   13  C   UNL     1     -15.160 -60.275  23.322  1.00  0.00     0.004 A 
HETATM   14  C   UNL     1     -15.416 -61.647  23.355  1.00  0.00     0.029 A 
BRANCH  11  15
HETATM   15  N   UNL     1     -18.354 -59.005  21.977  1.00  0.00    -0.327 N 
HETATM   16  C   UNL     1     -19.368 -58.385  22.711  1.00  0.00     0.226 C 
HETATM   17  O   UNL     1     -19.598 -58.490  23.909  1.00  0.00    -0.273 OA
HETATM   18  H   UNL     1     -18.321 -58.800  20.980  1.00  0.00     0.169 HD
BRANCH  16  19
HETATM   19  C   UNL     1     -20.250 -57.494  21.894  1.00  0.00     0.078 A 
HETATM   20  C   UNL     1     -20.188 -57.608  20.412  1.00  0.00     0.015 A 
HETATM   21  C   UNL     1     -19.612 -56.407  21.102  1.00  0.00     0.015 A 
ENDBRANCH  16  19
ENDBRANCH  11  15
ENDBRANCH   7   9
ENDBRANCH   3   7
BRANCH   5  22
HETATM   22  N   UNL     1     -16.978 -67.904  24.877  1.00  0.00    -0.341 N 
HETATM   23  H   UNL     1     -16.026 -68.046  24.547  1.00  0.00     0.167 HD
BRANCH  22  24
HETATM   24  C   UNL     1     -17.739 -69.091  24.859  1.00  0.00     0.034 A 
HETATM   25  C   UNL     1     -17.909 -69.794  23.667  1.00  0.00     0.045 A 
HETATM   26  C   UNL     1     -18.660 -70.969  23.650  1.00  0.00     0.050 A 
HETATM   27  C   UNL     1     -19.243 -71.440  24.827  1.00  0.00     0.016 A 
HETATM   28  C   UNL     1     -19.074 -70.738  26.019  1.00  0.00     0.003 A 
HETATM   29  C   UNL     1     -18.322 -69.562  26.036  1.00  0.00     0.029 A 
BRANCH  26  30
HETATM   30  C   UNL     1     -18.841 -71.721  22.375  1.00  0.00     0.417 C 
HETATM   31  F   UNL     1     -18.078 -71.248  21.347  1.00  0.00    -0.166 F 
HETATM   32  F   UNL     1     -18.526 -73.046  22.473  1.00  0.00    -0.166 F 
HETATM   33  F   UNL     1     -20.129 -71.684  21.922  1.00  0.00    -0.166 F 
ENDBRANCH  26  30
ENDBRANCH  22  24
ENDBRANCH   5  22
TORSDOF 7
ENDMDL
