MODEL 1
REMARK VINA RESULT:      -6.4      0.000      0.000
REMARK  7 active torsions:
REMARK  status: ('A' for Active; 'I' for Inactive)
REMARK       I    between atoms: N_5  and  C_13 
REMARK    1  A    between atoms: N_5  and  C_14 
REMARK    2  A    between atoms: N_6  and  C_17 
REMARK    3  A    between atoms: N_6  and  C_20 
REMARK    4  A    between atoms: N_7  and  C_21 
REMARK    5  A    between atoms: N_7  and  C_23 
REMARK    6  A    between atoms: C_10  and  C_13 
REMARK    7  A    between atoms: C_24  and  C_29 
ROOT
HETATM    1  N   UNL     1     -19.249 -64.033  22.770  1.00  0.00    -0.224 NA
HETATM    2  N   UNL     1     -19.416 -61.654  22.424  1.00  0.00    -0.224 NA
HETATM    3  C   UNL     1     -17.919 -63.931  22.568  1.00  0.00     0.133 A 
HETATM    4  C   UNL     1     -17.274 -62.742  22.294  1.00  0.00     0.100 A 
HETATM    5  C   UNL     1     -18.077 -61.618  22.231  1.00  0.00     0.133 A 
HETATM    6  C   UNL     1     -19.927 -62.872  22.684  1.00  0.00     0.237 A 
ENDROOT
BRANCH   3   7
HETATM    7  N   UNL     1     -17.127 -65.103  22.638  1.00  0.00    -0.341 N 
HETATM    8  H   UNL     1     -16.358 -65.113  21.974  1.00  0.00     0.167 HD
BRANCH   7   9
HETATM    9  C   UNL     1     -17.195 -66.246  23.452  1.00  0.00     0.035 A 
HETATM   10  C   UNL     1     -17.888 -67.379  23.018  1.00  0.00     0.059 A 
HETATM   11  C   UNL     1     -17.954 -68.514  23.826  1.00  0.00     0.036 A 
HETATM   12  C   UNL     1     -17.327 -68.520  25.072  1.00  0.00     0.029 A 
HETATM   13  C   UNL     1     -16.634 -67.392  25.510  1.00  0.00     0.004 A 
HETATM   14  C   UNL     1     -16.569 -66.257  24.702  1.00  0.00     0.029 A 
BRANCH  11  15
HETATM   15  N   UNL     1     -18.647 -69.644  23.388  1.00  0.00    -0.327 N 
HETATM   16  C   UNL     1     -18.237 -70.596  22.452  1.00  0.00     0.226 C 
HETATM   17  O   UNL     1     -17.185 -70.630  21.828  1.00  0.00    -0.273 OA
HETATM   18  H   UNL     1     -19.566 -69.777  23.805  1.00  0.00     0.169 HD
BRANCH  16  19
HETATM   19  C   UNL     1     -19.237 -71.685  22.220  1.00  0.00     0.078 A 
HETATM   20  C   UNL     1     -20.190 -72.013  23.314  1.00  0.00     0.015 A 
HETATM   21  C   UNL     1     -19.077 -72.960  22.972  1.00  0.00     0.015 A 
ENDBRANCH  16  19
ENDBRANCH  11  15
ENDBRANCH   7   9
ENDBRANCH   3   7
BRANCH   5  22
HETATM   22  N   UNL     1     -17.457 -60.385  21.954  1.00  0.00    -0.341 N 
HETATM   23  H   UNL     1     -17.382 -60.196  20.957  1.00  0.00     0.167 HD
BRANCH  22  24
HETATM   24  C   UNL     1     -16.648 -59.527  22.729  1.00  0.00     0.034 A 
HETATM   25  C   UNL     1     -17.224 -58.464  23.425  1.00  0.00     0.045 A 
HETATM   26  C   UNL     1     -16.424 -57.618  24.192  1.00  0.00     0.050 A 
HETATM   27  C   UNL     1     -15.047 -57.835  24.263  1.00  0.00     0.016 A 
HETATM   28  C   UNL     1     -14.471 -58.897  23.567  1.00  0.00     0.003 A 
HETATM   29  C   UNL     1     -15.272 -59.744  22.800  1.00  0.00     0.029 A 
BRANCH  26  30
HETATM   30  C   UNL     1     -17.039 -56.481  24.937  1.00  0.00     0.417 C 
HETATM   31  F   UNL     1     -18.402 -56.531  24.984  1.00  0.00    -0.166 F 
HETATM   32  F   UNL     1     -16.640 -56.403  26.240  1.00  0.00    -0.166 F 
HETATM   33  F   UNL     1     -16.735 -55.268  24.387  1.00  0.00    -0.166 F 
ENDBRANCH  26  30
ENDBRANCH  22  24
ENDBRANCH   5  22
TORSDOF 7
ENDMDL
MODEL 2
REMARK VINA RESULT:      -6.2      5.792     11.154
REMARK  7 active torsions:
REMARK  status: ('A' for Active; 'I' for Inactive)
REMARK       I    between atoms: N_5  and  C_13 
REMARK    1  A    between atoms: N_5  and  C_14 
REMARK    2  A    between atoms: N_6  and  C_17 
REMARK    3  A    between atoms: N_6  and  C_20 
REMARK    4  A    between atoms: N_7  and  C_21 
REMARK    5  A    between atoms: N_7  and  C_23 
REMARK    6  A    between atoms: C_10  and  C_13 
REMARK    7  A    between atoms: C_24  and  C_29 
ROOT
HETATM    1  N   UNL     1     -18.252 -64.756  24.052  1.00  0.00    -0.224 NA
HETATM    2  N   UNL     1     -18.390 -67.122  24.490  1.00  0.00    -0.224 NA
HETATM    3  C   UNL     1     -17.487 -65.038  22.977  1.00  0.00     0.133 A 
HETATM    4  C   UNL     1     -17.136 -66.318  22.599  1.00  0.00     0.100 A 
HETATM    5  C   UNL     1     -17.619 -67.338  23.399  1.00  0.00     0.133 A 
HETATM    6  C   UNL     1     -18.663 -65.830  24.754  1.00  0.00     0.237 A 
ENDROOT
BRANCH   3   7
HETATM    7  N   UNL     1     -17.009 -63.968  22.181  1.00  0.00    -0.341 N 
HETATM    8  H   UNL     1     -16.205 -64.216  21.611  1.00  0.00     0.167 HD
BRANCH   7   9
HETATM    9  C   UNL     1     -17.436 -62.639  22.023  1.00  0.00     0.035 A 
HETATM   10  C   UNL     1     -16.968 -61.642  22.883  1.00  0.00     0.059 A 
HETATM   11  C   UNL     1     -17.391 -60.323  22.725  1.00  0.00     0.036 A 
HETATM   12  C   UNL     1     -18.285 -59.995  21.705  1.00  0.00     0.029 A 
HETATM   13  C   UNL     1     -18.756 -60.986  20.844  1.00  0.00     0.004 A 
HETATM   14  C   UNL     1     -18.333 -62.306  21.004  1.00  0.00     0.029 A 
BRANCH  11  15
HETATM   15  N   UNL     1     -16.920 -59.331  23.585  1.00  0.00    -0.327 N 
HETATM   16  C   UNL     1     -15.634 -58.788  23.652  1.00  0.00     0.226 C 
HETATM   17  O   UNL     1     -14.662 -59.075  22.966  1.00  0.00    -0.273 OA
HETATM   18  H   UNL     1     -17.604 -58.969  24.246  1.00  0.00     0.169 HD
BRANCH  16  19
HETATM   19  C   UNL     1     -15.477 -57.732  24.702  1.00  0.00     0.078 A 
HETATM   20  C   UNL     1     -16.532 -57.611  25.744  1.00  0.00     0.015 A 
HETATM   21  C   UNL     1     -16.403 -56.567  24.673  1.00  0.00     0.015 A 
ENDBRANCH  16  19
ENDBRANCH  11  15
ENDBRANCH   7   9
ENDBRANCH   3   7
BRANCH   5  22
HETATM   22  N   UNL     1     -17.284 -68.660  23.048  1.00  0.00    -0.341 N 
HETATM   23  H   UNL     1     -16.452 -68.715  22.465  1.00  0.00     0.167 HD
BRANCH  22  24
HETATM   24  C   UNL     1     -18.016 -69.866  23.058  1.00  0.00     0.034 A 
HETATM   25  C   UNL     1     -18.133 -70.602  24.237  1.00  0.00     0.045 A 
HETATM   26  C   UNL     1     -18.858 -71.793  24.247  1.00  0.00     0.050 A 
HETATM   27  C   UNL     1     -19.467 -72.248  23.077  1.00  0.00     0.016 A 
HETATM   28  C   UNL     1     -19.351 -71.512  21.898  1.00  0.00     0.003 A 
HETATM   29  C   UNL     1     -18.625 -70.321  21.888  1.00  0.00     0.029 A 
BRANCH  26  30
HETATM   30  C   UNL     1     -18.983 -72.581  25.507  1.00  0.00     0.417 C 
HETATM   31  F   UNL     1     -18.046 -72.261  26.448  1.00  0.00    -0.166 F 
HETATM   32  F   UNL     1     -20.186 -72.421  26.134  1.00  0.00    -0.166 F 
HETATM   33  F   UNL     1     -18.853 -73.924  25.302  1.00  0.00    -0.166 F 
ENDBRANCH  26  30
ENDBRANCH  22  24
ENDBRANCH   5  22
TORSDOF 7
ENDMDL
MODEL 3
REMARK VINA RESULT:      -6.1      2.215      3.541
REMARK  7 active torsions:
REMARK  status: ('A' for Active; 'I' for Inactive)
REMARK       I    between atoms: N_5  and  C_13 
REMARK    1  A    between atoms: N_5  and  C_14 
REMARK    2  A    between atoms: N_6  and  C_17 
REMARK    3  A    between atoms: N_6  and  C_20 
REMARK    4  A    between atoms: N_7  and  C_21 
REMARK    5  A    between atoms: N_7  and  C_23 
REMARK    6  A    between atoms: C_10  and  C_13 
REMARK    7  A    between atoms: C_24  and  C_29 
ROOT
HETATM    1  N   UNL     1     -18.770 -66.076  25.776  1.00  0.00    -0.224 NA
HETATM    2  N   UNL     1     -18.241 -63.859  24.997  1.00  0.00    -0.224 NA
HETATM    3  C   UNL     1     -17.864 -66.560  24.902  1.00  0.00     0.133 A 
HETATM    4  C   UNL     1     -17.117 -65.767  24.054  1.00  0.00     0.100 A 
HETATM    5  C   UNL     1     -17.346 -64.406  24.141  1.00  0.00     0.133 A 
HETATM    6  C   UNL     1     -18.907 -64.737  25.770  1.00  0.00     0.237 A 
ENDROOT
BRANCH   3   7
HETATM    7  N   UNL     1     -17.655 -67.960  24.839  1.00  0.00    -0.341 N 
HETATM    8  H   UNL     1     -17.336 -68.361  25.716  1.00  0.00     0.167 HD
BRANCH   7   9
HETATM    9  C   UNL     1     -17.812 -68.896  23.803  1.00  0.00     0.035 A 
HETATM   10  C   UNL     1     -18.203 -70.206  24.091  1.00  0.00     0.059 A 
HETATM   11  C   UNL     1     -18.359 -71.134  23.062  1.00  0.00     0.036 A 
HETATM   12  C   UNL     1     -18.124 -70.755  21.739  1.00  0.00     0.029 A 
HETATM   13  C   UNL     1     -17.734 -69.449  21.447  1.00  0.00     0.004 A 
HETATM   14  C   UNL     1     -17.577 -68.521  22.477  1.00  0.00     0.029 A 
BRANCH  11  15
HETATM   15  N   UNL     1     -18.751 -72.441  23.354  1.00  0.00    -0.327 N 
HETATM   16  C   UNL     1     -20.029 -72.997  23.267  1.00  0.00     0.226 C 
HETATM   17  O   UNL     1     -21.064 -72.446  22.915  1.00  0.00    -0.273 OA
HETATM   18  H   UNL     1     -18.005 -73.056  23.675  1.00  0.00     0.169 HD
BRANCH  16  19
HETATM   19  C   UNL     1     -20.090 -74.440  23.659  1.00  0.00     0.078 A 
HETATM   20  C   UNL     1     -19.365 -74.869  24.886  1.00  0.00     0.015 A 
HETATM   21  C   UNL     1     -18.853 -75.258  23.531  1.00  0.00     0.015 A 
ENDBRANCH  16  19
ENDBRANCH  11  15
ENDBRANCH   7   9
ENDBRANCH   3   7
BRANCH   5  22
HETATM   22  N   UNL     1     -16.604 -63.561  23.293  1.00  0.00    -0.341 N 
HETATM   23  H   UNL     1     -15.669 -63.915  23.104  1.00  0.00     0.167 HD
BRANCH  22  24
HETATM   24  C   UNL     1     -16.755 -62.209  22.922  1.00  0.00     0.034 A 
HETATM   25  C   UNL     1     -15.865 -61.249  23.402  1.00  0.00     0.045 A 
HETATM   26  C   UNL     1     -16.015 -59.913  23.033  1.00  0.00     0.050 A 
HETATM   27  C   UNL     1     -17.055 -59.536  22.182  1.00  0.00     0.016 A 
HETATM   28  C   UNL     1     -17.945 -60.496  21.702  1.00  0.00     0.003 A 
HETATM   29  C   UNL     1     -17.795 -61.833  22.071  1.00  0.00     0.029 A 
BRANCH  26  30
HETATM   30  C   UNL     1     -15.063 -58.885  23.547  1.00  0.00     0.417 C 
HETATM   31  F   UNL     1     -13.949 -58.734  22.772  1.00  0.00    -0.166 F 
HETATM   32  F   UNL     1     -15.606 -57.635  23.637  1.00  0.00    -0.166 F 
HETATM   33  F   UNL     1     -14.602 -59.176  24.799  1.00  0.00    -0.166 F 
ENDBRANCH  26  30
ENDBRANCH  22  24
ENDBRANCH   5  22
TORSDOF 7
ENDMDL
MODEL 4
REMARK VINA RESULT:      -6.1      1.645      2.263
REMARK  7 active torsions:
REMARK  status: ('A' for Active; 'I' for Inactive)
REMARK       I    between atoms: N_5  and  C_13 
REMARK    1  A    between atoms: N_5  and  C_14 
REMARK    2  A    between atoms: N_6  and  C_17 
REMARK    3  A    between atoms: N_6  and  C_20 
REMARK    4  A    between atoms: N_7  and  C_21 
REMARK    5  A    between atoms: N_7  and  C_23 
REMARK    6  A    between atoms: C_10  and  C_13 
REMARK    7  A    between atoms: C_24  and  C_29 
ROOT
HETATM    1  N   UNL     1     -18.067 -62.090  21.371  1.00  0.00    -0.224 NA
HETATM    2  N   UNL     1     -17.584 -59.851  22.120  1.00  0.00    -0.224 NA
HETATM    3  C   UNL     1     -17.117 -62.539  22.218  1.00  0.00     0.133 A 
HETATM    4  C   UNL     1     -16.370 -61.716  23.037  1.00  0.00     0.100 A 
HETATM    5  C   UNL     1     -16.645 -60.363  22.949  1.00  0.00     0.133 A 
HETATM    6  C   UNL     1     -18.245 -60.755  21.372  1.00  0.00     0.237 A 
ENDROOT
BRANCH   3   7
HETATM    7  N   UNL     1     -16.861 -63.930  22.282  1.00  0.00    -0.341 N 
HETATM    8  H   UNL     1     -16.171 -64.246  21.607  1.00  0.00     0.167 HD
BRANCH   7   9
HETATM    9  C   UNL     1     -17.372 -64.951  23.100  1.00  0.00     0.035 A 
HETATM   10  C   UNL     1     -17.309 -66.284  22.685  1.00  0.00     0.059 A 
HETATM   11  C   UNL     1     -17.816 -67.297  23.498  1.00  0.00     0.036 A 
HETATM   12  C   UNL     1     -18.387 -66.982  24.731  1.00  0.00     0.029 A 
HETATM   13  C   UNL     1     -18.452 -65.653  25.150  1.00  0.00     0.004 A 
HETATM   14  C   UNL     1     -17.946 -64.640  24.336  1.00  0.00     0.029 A 
BRANCH  11  15
HETATM   15  N   UNL     1     -17.750 -68.627  23.080  1.00  0.00    -0.327 N 
HETATM   16  C   UNL     1     -18.397 -69.221  21.994  1.00  0.00     0.226 C 
HETATM   17  O   UNL     1     -19.152 -68.692  21.190  1.00  0.00    -0.273 OA
HETATM   18  H   UNL     1     -17.159 -69.231  23.647  1.00  0.00     0.169 HD
BRANCH  16  19
HETATM   19  C   UNL     1     -18.098 -70.680  21.836  1.00  0.00     0.078 A 
HETATM   20  C   UNL     1     -19.237 -71.637  21.833  1.00  0.00     0.015 A 
HETATM   21  C   UNL     1     -18.306 -71.573  23.008  1.00  0.00     0.015 A 
ENDBRANCH  16  19
ENDBRANCH  11  15
ENDBRANCH   7   9
ENDBRANCH   3   7
BRANCH   5  22
HETATM   22  N   UNL     1     -15.904 -59.490  23.768  1.00  0.00    -0.341 N 
HETATM   23  H   UNL     1     -14.951 -59.810  23.926  1.00  0.00     0.167 HD
BRANCH  22  24
HETATM   24  C   UNL     1     -16.284 -58.463  24.658  1.00  0.00     0.034 A 
HETATM   25  C   UNL     1     -16.311 -57.138  24.224  1.00  0.00     0.045 A 
HETATM   26  C   UNL     1     -16.689 -56.124  25.103  1.00  0.00     0.050 A 
HETATM   27  C   UNL     1     -17.038 -56.435  26.418  1.00  0.00     0.016 A 
HETATM   28  C   UNL     1     -17.010 -57.760  26.852  1.00  0.00     0.003 A 
HETATM   29  C   UNL     1     -16.633 -58.774  25.972  1.00  0.00     0.029 A 
BRANCH  26  30
HETATM   30  C   UNL     1     -16.718 -54.706  24.640  1.00  0.00     0.417 C 
HETATM   31  F   UNL     1     -17.555 -54.493  23.582  1.00  0.00    -0.166 F 
HETATM   32  F   UNL     1     -17.127 -53.826  25.600  1.00  0.00    -0.166 F 
HETATM   33  F   UNL     1     -15.493 -54.261  24.233  1.00  0.00    -0.166 F 
ENDBRANCH  26  30
ENDBRANCH  22  24
ENDBRANCH   5  22
TORSDOF 7
ENDMDL
MODEL 5
REMARK VINA RESULT:      -6.1      2.817      4.040
REMARK  7 active torsions:
REMARK  status: ('A' for Active; 'I' for Inactive)
REMARK       I    between atoms: N_5  and  C_13 
REMARK    1  A    between atoms: N_5  and  C_14 
REMARK    2  A    between atoms: N_6  and  C_17 
REMARK    3  A    between atoms: N_6  and  C_20 
REMARK    4  A    between atoms: N_7  and  C_21 
REMARK    5  A    between atoms: N_7  and  C_23 
REMARK    6  A    between atoms: C_10  and  C_13 
REMARK    7  A    between atoms: C_24  and  C_29 
ROOT
HETATM    1  N   UNL     1     -18.229 -66.396  25.349  1.00  0.00    -0.224 NA
HETATM    2  N   UNL     1     -18.012 -64.103  24.639  1.00  0.00    -0.224 NA
HETATM    3  C   UNL     1     -17.533 -66.762  24.252  1.00  0.00     0.133 A 
HETATM    4  C   UNL     1     -17.050 -65.869  23.317  1.00  0.00     0.100 A 
HETATM    5  C   UNL     1     -17.320 -64.534  23.559  1.00  0.00     0.133 A 
HETATM    6  C   UNL     1     -18.431 -65.070  25.477  1.00  0.00     0.237 A 
ENDROOT
BRANCH   3   7
HETATM    7  N   UNL     1     -17.275 -68.138  24.035  1.00  0.00    -0.341 N 
HETATM    8  H   UNL     1     -16.419 -68.463  24.474  1.00  0.00     0.167 HD
BRANCH   7   9
HETATM    9  C   UNL     1     -17.978 -69.135  23.339  1.00  0.00     0.035 A 
HETATM   10  C   UNL     1     -18.988 -68.787  22.438  1.00  0.00     0.059 A 
HETATM   11  C   UNL     1     -19.683 -69.778  21.746  1.00  0.00     0.036 A 
HETATM   12  C   UNL     1     -19.371 -71.122  21.952  1.00  0.00     0.029 A 
HETATM   13  C   UNL     1     -18.364 -71.475  22.849  1.00  0.00     0.004 A 
HETATM   14  C   UNL     1     -17.669 -70.483  23.542  1.00  0.00     0.029 A 
BRANCH  11  15
HETATM   15  N   UNL     1     -20.691 -69.425  20.847  1.00  0.00    -0.327 N 
HETATM   16  C   UNL     1     -22.071 -69.418  21.060  1.00  0.00     0.226 C 
HETATM   17  O   UNL     1     -22.674 -69.719  22.081  1.00  0.00    -0.273 OA
HETATM   18  H   UNL     1     -20.369 -69.146  19.923  1.00  0.00     0.169 HD
BRANCH  16  19
HETATM   19  C   UNL     1     -22.865 -68.981  19.868  1.00  0.00     0.078 A 
HETATM   20  C   UNL     1     -22.710 -69.743  18.599  1.00  0.00     0.015 A 
HETATM   21  C   UNL     1     -22.138 -68.361  18.726  1.00  0.00     0.015 A 
ENDBRANCH  16  19
ENDBRANCH  11  15
ENDBRANCH   7   9
ENDBRANCH   3   7
BRANCH   5  22
HETATM   22  N   UNL     1     -16.843 -63.591  22.629  1.00  0.00    -0.341 N 
HETATM   23  H   UNL     1     -16.066 -63.941  22.074  1.00  0.00     0.167 HD
BRANCH  22  24
HETATM   24  C   UNL     1     -16.993 -62.192  22.526  1.00  0.00     0.034 A 
HETATM   25  C   UNL     1     -16.015 -61.344  23.046  1.00  0.00     0.045 A 
HETATM   26  C   UNL     1     -16.163 -59.962  22.942  1.00  0.00     0.050 A 
HETATM   27  C   UNL     1     -17.289 -59.426  22.318  1.00  0.00     0.016 A 
HETATM   28  C   UNL     1     -18.268 -60.273  21.798  1.00  0.00     0.003 A 
HETATM   29  C   UNL     1     -18.120 -61.656  21.902  1.00  0.00     0.029 A 
BRANCH  26  30
HETATM   30  C   UNL     1     -15.117 -59.055  23.498  1.00  0.00     0.417 C 
HETATM   31  F   UNL     1     -14.711 -59.394  24.757  1.00  0.00    -0.166 F 
HETATM   32  F   UNL     1     -13.974 -59.018  22.753  1.00  0.00    -0.166 F 
HETATM   33  F   UNL     1     -15.539 -57.759  23.587  1.00  0.00    -0.166 F 
ENDBRANCH  26  30
ENDBRANCH  22  24
ENDBRANCH   5  22
TORSDOF 7
ENDMDL
MODEL 6
REMARK VINA RESULT:      -6.0      5.553     10.915
REMARK  7 active torsions:
REMARK  status: ('A' for Active; 'I' for Inactive)
REMARK       I    between atoms: N_5  and  C_13 
REMARK    1  A    between atoms: N_5  and  C_14 
REMARK    2  A    between atoms: N_6  and  C_17 
REMARK    3  A    between atoms: N_6  and  C_20 
REMARK    4  A    between atoms: N_7  and  C_21 
REMARK    5  A    between atoms: N_7  and  C_23 
REMARK    6  A    between atoms: C_10  and  C_13 
REMARK    7  A    between atoms: C_24  and  C_29 
ROOT
HETATM    1  N   UNL     1     -19.450 -61.855  22.296  1.00  0.00    -0.224 NA
HETATM    2  N   UNL     1     -19.134 -64.201  22.750  1.00  0.00    -0.224 NA
HETATM    3  C   UNL     1     -18.108 -61.721  22.252  1.00  0.00     0.133 A 
HETATM    4  C   UNL     1     -17.226 -62.765  22.443  1.00  0.00     0.100 A 
HETATM    5  C   UNL     1     -17.796 -64.001  22.693  1.00  0.00     0.133 A 
HETATM    6  C   UNL     1     -19.888 -63.104  22.547  1.00  0.00     0.237 A 
ENDROOT
BRANCH   3   7
HETATM    7  N   UNL     1     -17.558 -60.441  21.995  1.00  0.00    -0.341 N 
HETATM    8  H   UNL     1     -17.860 -60.041  21.111  1.00  0.00     0.167 HD
BRANCH   7   9
HETATM    9  C   UNL     1     -16.685 -59.620  22.727  1.00  0.00     0.035 A 
HETATM   10  C   UNL     1     -17.193 -58.629  23.571  1.00  0.00     0.059 A 
HETATM   11  C   UNL     1     -16.325 -57.815  24.299  1.00  0.00     0.036 A 
HETATM   12  C   UNL     1     -14.946 -57.989  24.186  1.00  0.00     0.029 A 
HETATM   13  C   UNL     1     -14.434 -58.977  23.345  1.00  0.00     0.004 A 
HETATM   14  C   UNL     1     -15.302 -59.790  22.616  1.00  0.00     0.029 A 
BRANCH  11  15
HETATM   15  N   UNL     1     -16.837 -56.827  25.142  1.00  0.00    -0.327 N 
HETATM   16  C   UNL     1     -17.224 -55.527  24.809  1.00  0.00     0.226 C 
HETATM   17  O   UNL     1     -17.194 -54.994  23.707  1.00  0.00    -0.273 OA
HETATM   18  H   UNL     1     -16.929 -57.096  26.119  1.00  0.00     0.169 HD
BRANCH  16  19
HETATM   19  C   UNL     1     -17.732 -54.731  25.970  1.00  0.00     0.078 A 
HETATM   20  C   UNL     1     -16.749 -53.975  26.791  1.00  0.00     0.015 A 
HETATM   21  C   UNL     1     -17.409 -55.203  27.344  1.00  0.00     0.015 A 
ENDBRANCH  16  19
ENDBRANCH  11  15
ENDBRANCH   7   9
ENDBRANCH   3   7
BRANCH   5  22
HETATM   22  N   UNL     1     -16.931 -65.093  22.894  1.00  0.00    -0.341 N 
HETATM   23  H   UNL     1     -16.033 -64.976  22.428  1.00  0.00     0.167 HD
BRANCH  22  24
HETATM   24  C   UNL     1     -17.150 -66.420  23.319  1.00  0.00     0.034 A 
HETATM   25  C   UNL     1     -17.387 -67.424  22.380  1.00  0.00     0.045 A 
HETATM   26  C   UNL     1     -17.602 -68.736  22.801  1.00  0.00     0.050 A 
HETATM   27  C   UNL     1     -17.581 -69.044  24.161  1.00  0.00     0.016 A 
HETATM   28  C   UNL     1     -17.345 -68.040  25.100  1.00  0.00     0.003 A 
HETATM   29  C   UNL     1     -17.129 -66.728  24.679  1.00  0.00     0.029 A 
BRANCH  26  30
HETATM   30  C   UNL     1     -17.855 -69.810  21.797  1.00  0.00     0.417 C 
HETATM   31  F   UNL     1     -17.451 -71.048  22.207  1.00  0.00    -0.166 F 
HETATM   32  F   UNL     1     -19.174 -69.954  21.473  1.00  0.00    -0.166 F 
HETATM   33  F   UNL     1     -17.209 -69.587  20.615  1.00  0.00    -0.166 F 
ENDBRANCH  26  30
ENDBRANCH  22  24
ENDBRANCH   5  22
TORSDOF 7
ENDMDL
MODEL 7
REMARK VINA RESULT:      -6.0      6.054     10.934
REMARK  7 active torsions:
REMARK  status: ('A' for Active; 'I' for Inactive)
REMARK       I    between atoms: N_5  and  C_13 
REMARK    1  A    between atoms: N_5  and  C_14 
REMARK    2  A    between atoms: N_6  and  C_17 
REMARK    3  A    between atoms: N_6  and  C_20 
REMARK    4  A    between atoms: N_7  and  C_21 
REMARK    5  A    between atoms: N_7  and  C_23 
REMARK    6  A    between atoms: C_10  and  C_13 
REMARK    7  A    between atoms: C_24  and  C_29 
ROOT
HETATM    1  N   UNL     1     -18.029 -64.589  24.932  1.00  0.00    -0.224 NA
HETATM    2  N   UNL     1     -17.904 -66.860  25.729  1.00  0.00    -0.224 NA
HETATM    3  C   UNL     1     -17.419 -64.993  23.799  1.00  0.00     0.133 A 
HETATM    4  C   UNL     1     -17.027 -66.294  23.560  1.00  0.00     0.100 A 
HETATM    5  C   UNL     1     -17.295 -67.202  24.569  1.00  0.00     0.133 A 
HETATM    6  C   UNL     1     -18.237 -65.560  25.842  1.00  0.00     0.237 A 
ENDROOT
BRANCH   3   7
HETATM    7  N   UNL     1     -17.159 -64.037  22.786  1.00  0.00    -0.341 N 
HETATM    8  H   UNL     1     -17.088 -64.441  21.857  1.00  0.00     0.167 HD
BRANCH   7   9
HETATM    9  C   UNL     1     -16.988 -62.643  22.820  1.00  0.00     0.035 A 
HETATM   10  C   UNL     1     -18.004 -61.797  22.368  1.00  0.00     0.059 A 
HETATM   11  C   UNL     1     -17.834 -60.414  22.403  1.00  0.00     0.036 A 
HETATM   12  C   UNL     1     -16.646 -59.869  22.892  1.00  0.00     0.029 A 
HETATM   13  C   UNL     1     -15.629 -60.708  23.345  1.00  0.00     0.004 A 
HETATM   14  C   UNL     1     -15.799 -62.093  23.309  1.00  0.00     0.029 A 
BRANCH  11  15
HETATM   15  N   UNL     1     -18.852 -59.573  21.951  1.00  0.00    -0.327 N 
HETATM   16  C   UNL     1     -19.353 -59.448  20.653  1.00  0.00     0.226 C 
HETATM   17  O   UNL     1     -18.998 -60.054  19.650  1.00  0.00    -0.273 OA
HETATM   18  H   UNL     1     -19.271 -58.978  22.662  1.00  0.00     0.169 HD
BRANCH  16  19
HETATM   19  C   UNL     1     -20.454 -58.443  20.523  1.00  0.00     0.078 A 
HETATM   20  C   UNL     1     -20.477 -57.572  19.317  1.00  0.00     0.015 A 
HETATM   21  C   UNL     1     -20.111 -57.001  20.655  1.00  0.00     0.015 A 
ENDBRANCH  16  19
ENDBRANCH  11  15
ENDBRANCH   7   9
ENDBRANCH   3   7
BRANCH   5  22
HETATM   22  N   UNL     1     -16.911 -68.541  24.365  1.00  0.00    -0.341 N 
HETATM   23  H   UNL     1     -15.926 -68.703  24.558  1.00  0.00     0.167 HD
BRANCH  22  24
HETATM   24  C   UNL     1     -17.506 -69.607  23.659  1.00  0.00     0.034 A 
HETATM   25  C   UNL     1     -18.073 -70.675  24.354  1.00  0.00     0.045 A 
HETATM   26  C   UNL     1     -18.662 -71.728  23.656  1.00  0.00     0.050 A 
HETATM   27  C   UNL     1     -18.685 -71.714  22.261  1.00  0.00     0.016 A 
HETATM   28  C   UNL     1     -18.118 -70.647  21.565  1.00  0.00     0.003 A 
HETATM   29  C   UNL     1     -17.529 -69.593  22.264  1.00  0.00     0.029 A 
BRANCH  26  30
HETATM   30  C   UNL     1     -19.268 -72.871  24.399  1.00  0.00     0.417 C 
HETATM   31  F   UNL     1     -19.153 -74.068  23.753  1.00  0.00    -0.166 F 
HETATM   32  F   UNL     1     -18.714 -73.077  25.630  1.00  0.00    -0.166 F 
HETATM   33  F   UNL     1     -20.605 -72.703  24.623  1.00  0.00    -0.166 F 
ENDBRANCH  26  30
ENDBRANCH  22  24
ENDBRANCH   5  22
TORSDOF 7
ENDMDL
MODEL 8
REMARK VINA RESULT:      -5.7      4.603     10.260
REMARK  7 active torsions:
REMARK  status: ('A' for Active; 'I' for Inactive)
REMARK       I    between atoms: N_5  and  C_13 
REMARK    1  A    between atoms: N_5  and  C_14 
REMARK    2  A    between atoms: N_6  and  C_17 
REMARK    3  A    between atoms: N_6  and  C_20 
REMARK    4  A    between atoms: N_7  and  C_21 
REMARK    5  A    between atoms: N_7  and  C_23 
REMARK    6  A    between atoms: C_10  and  C_13 
REMARK    7  A    between atoms: C_24  and  C_29 
ROOT
HETATM    1  N   UNL     1     -19.531 -61.559  22.213  1.00  0.00    -0.224 NA
HETATM    2  N   UNL     1     -19.280 -63.921  22.617  1.00  0.00    -0.224 NA
HETATM    3  C   UNL     1     -18.185 -61.454  22.213  1.00  0.00     0.133 A 
HETATM    4  C   UNL     1     -17.333 -62.522  22.406  1.00  0.00     0.100 A 
HETATM    5  C   UNL     1     -17.937 -63.750  22.606  1.00  0.00     0.133 A 
HETATM    6  C   UNL     1     -20.003 -62.803  22.419  1.00  0.00     0.237 A 
ENDROOT
BRANCH   3   7
HETATM    7  N   UNL     1     -17.600 -60.181  22.006  1.00  0.00    -0.341 N 
HETATM    8  H   UNL     1     -17.918 -59.723  21.156  1.00  0.00     0.167 HD
BRANCH   7   9
HETATM    9  C   UNL     1     -16.675 -59.430  22.749  1.00  0.00     0.035 A 
HETATM   10  C   UNL     1     -17.109 -58.373  23.554  1.00  0.00     0.059 A 
HETATM   11  C   UNL     1     -16.190 -57.630  24.293  1.00  0.00     0.036 A 
HETATM   12  C   UNL     1     -14.831 -57.940  24.231  1.00  0.00     0.029 A 
HETATM   13  C   UNL     1     -14.392 -58.994  23.430  1.00  0.00     0.004 A 
HETATM   14  C   UNL     1     -15.312 -59.737  22.690  1.00  0.00     0.029 A 
BRANCH  11  15
HETATM   15  N   UNL     1     -16.628 -56.576  25.095  1.00  0.00    -0.327 N 
HETATM   16  C   UNL     1     -17.017 -56.618  26.436  1.00  0.00     0.226 C 
HETATM   17  O   UNL     1     -17.049 -57.591  27.177  1.00  0.00    -0.273 OA
HETATM   18  H   UNL     1     -16.672 -55.669  24.634  1.00  0.00     0.169 HD
BRANCH  16  19
HETATM   19  C   UNL     1     -17.433 -55.290  26.988  1.00  0.00     0.078 A 
HETATM   20  C   UNL     1     -18.783 -54.773  26.638  1.00  0.00     0.015 A 
HETATM   21  C   UNL     1     -17.556 -54.144  26.047  1.00  0.00     0.015 A 
ENDBRANCH  16  19
ENDBRANCH  11  15
ENDBRANCH   7   9
ENDBRANCH   3   7
BRANCH   5  22
HETATM   22  N   UNL     1     -17.102 -64.866  22.806  1.00  0.00    -0.341 N 
HETATM   23  H   UNL     1     -16.311 -64.887  22.167  1.00  0.00     0.167 HD
BRANCH  22  24
HETATM   24  C   UNL     1     -17.296 -66.098  23.465  1.00  0.00     0.034 A 
HETATM   25  C   UNL     1     -17.232 -66.164  24.856  1.00  0.00     0.045 A 
HETATM   26  C   UNL     1     -17.425 -67.382  25.507  1.00  0.00     0.050 A 
HETATM   27  C   UNL     1     -17.683 -68.535  24.766  1.00  0.00     0.016 A 
HETATM   28  C   UNL     1     -17.747 -68.470  23.374  1.00  0.00     0.003 A 
HETATM   29  C   UNL     1     -17.554 -67.251  22.723  1.00  0.00     0.029 A 
BRANCH  26  30
HETATM   30  C   UNL     1     -17.357 -67.453  26.996  1.00  0.00     0.417 C 
HETATM   31  F   UNL     1     -16.813 -68.614  27.464  1.00  0.00    -0.166 F 
HETATM   32  F   UNL     1     -16.608 -66.457  27.555  1.00  0.00    -0.166 F 
HETATM   33  F   UNL     1     -18.586 -67.360  27.583  1.00  0.00    -0.166 F 
ENDBRANCH  26  30
ENDBRANCH  22  24
ENDBRANCH   5  22
TORSDOF 7
ENDMDL
MODEL 9
REMARK VINA RESULT:      -5.7      6.057      7.632
REMARK  7 active torsions:
REMARK  status: ('A' for Active; 'I' for Inactive)
REMARK       I    between atoms: N_5  and  C_13 
REMARK    1  A    between atoms: N_5  and  C_14 
REMARK    2  A    between atoms: N_6  and  C_17 
REMARK    3  A    between atoms: N_6  and  C_20 
REMARK    4  A    between atoms: N_7  and  C_21 
REMARK    5  A    between atoms: N_7  and  C_23 
REMARK    6  A    between atoms: C_10  and  C_13 
REMARK    7  A    between atoms: C_24  and  C_29 
ROOT
HETATM    1  N   UNL     1     -21.002 -61.636  19.918  1.00  0.00    -0.224 NA
HETATM    2  N   UNL     1     -22.345 -59.791  19.146  1.00  0.00    -0.224 NA
HETATM    3  C   UNL     1     -19.915 -60.845  19.802  1.00  0.00     0.133 A 
HETATM    4  C   UNL     1     -19.963 -59.534  19.372  1.00  0.00     0.100 A 
HETATM    5  C   UNL     1     -21.218 -59.049  19.051  1.00  0.00     0.133 A 
HETATM    6  C   UNL     1     -22.167 -61.054  19.578  1.00  0.00     0.237 A 
ENDROOT
BRANCH   3   7
HETATM    7  N   UNL     1     -18.645 -61.375  20.139  1.00  0.00    -0.341 N 
HETATM    8  H   UNL     1     -18.123 -61.715  19.336  1.00  0.00     0.167 HD
BRANCH   7   9
HETATM    9  C   UNL     1     -17.970 -61.514  21.362  1.00  0.00     0.035 A 
HETATM   10  C   UNL     1     -17.652 -62.784  21.851  1.00  0.00     0.059 A 
HETATM   11  C   UNL     1     -16.980 -62.920  23.065  1.00  0.00     0.036 A 
HETATM   12  C   UNL     1     -16.623 -61.787  23.797  1.00  0.00     0.029 A 
HETATM   13  C   UNL     1     -16.938 -60.518  23.314  1.00  0.00     0.004 A 
HETATM   14  C   UNL     1     -17.611 -60.381  22.099  1.00  0.00     0.029 A 
BRANCH  11  15
HETATM   15  N   UNL     1     -16.663 -64.191  23.549  1.00  0.00    -0.327 N 
HETATM   16  C   UNL     1     -17.441 -65.024  24.355  1.00  0.00     0.226 C 
HETATM   17  O   UNL     1     -18.561 -64.806  24.799  1.00  0.00    -0.273 OA
HETATM   18  H   UNL     1     -15.746 -64.541  23.279  1.00  0.00     0.169 HD
BRANCH  16  19
HETATM   19  C   UNL     1     -16.786 -66.328  24.688  1.00  0.00     0.078 A 
HETATM   20  C   UNL     1     -17.622 -67.559  24.682  1.00  0.00     0.015 A 
HETATM   21  C   UNL     1     -17.135 -66.983  25.979  1.00  0.00     0.015 A 
ENDBRANCH  16  19
ENDBRANCH  11  15
ENDBRANCH   7   9
ENDBRANCH   3   7
BRANCH   5  22
HETATM   22  N   UNL     1     -21.310 -57.715  18.607  1.00  0.00    -0.341 N 
HETATM   23  H   UNL     1     -21.669 -57.085  19.321  1.00  0.00     0.167 HD
BRANCH  22  24
HETATM   24  C   UNL     1     -21.320 -57.135  17.322  1.00  0.00     0.034 A 
HETATM   25  C   UNL     1     -20.282 -57.400  16.428  1.00  0.00     0.045 A 
HETATM   26  C   UNL     1     -20.293 -56.827  15.157  1.00  0.00     0.050 A 
HETATM   27  C   UNL     1     -21.342 -55.990  14.778  1.00  0.00     0.016 A 
HETATM   28  C   UNL     1     -22.380 -55.725  15.671  1.00  0.00     0.003 A 
HETATM   29  C   UNL     1     -22.369 -56.298  16.943  1.00  0.00     0.029 A 
BRANCH  26  30
HETATM   30  C   UNL     1     -19.183 -57.109  14.201  1.00  0.00     0.417 C 
HETATM   31  F   UNL     1     -19.574 -57.113  12.893  1.00  0.00    -0.166 F 
HETATM   32  F   UNL     1     -18.163 -56.203  14.266  1.00  0.00    -0.166 F 
HETATM   33  F   UNL     1     -18.604 -58.328  14.414  1.00  0.00    -0.166 F 
ENDBRANCH  26  30
ENDBRANCH  22  24
ENDBRANCH   5  22
TORSDOF 7
ENDMDL
