MODEL 1
REMARK VINA RESULT:      -6.3      0.000      0.000
REMARK  7 active torsions:
REMARK  status: ('A' for Active; 'I' for Inactive)
REMARK       I    between atoms: N_5  and  C_13 
REMARK    1  A    between atoms: N_5  and  C_14 
REMARK    2  A    between atoms: N_6  and  C_17 
REMARK    3  A    between atoms: N_6  and  C_20 
REMARK    4  A    between atoms: N_7  and  C_21 
REMARK    5  A    between atoms: N_7  and  C_23 
REMARK    6  A    between atoms: C_10  and  C_13 
REMARK    7  A    between atoms: C_24  and  C_29 
ROOT
HETATM    1  N   UNL     1     -19.275 -63.895  22.920  1.00  0.00    -0.224 NA
HETATM    2  N   UNL     1     -19.352 -61.504  22.628  1.00  0.00    -0.224 NA
HETATM    3  C   UNL     1     -17.965 -63.854  22.604  1.00  0.00     0.133 A 
HETATM    4  C   UNL     1     -17.287 -62.693  22.292  1.00  0.00     0.100 A 
HETATM    5  C   UNL     1     -18.035 -61.530  22.318  1.00  0.00     0.133 A 
HETATM    6  C   UNL     1     -19.899 -62.701  22.912  1.00  0.00     0.237 A 
ENDROOT
BRANCH   3   7
HETATM    7  N   UNL     1     -17.229 -65.064  22.586  1.00  0.00    -0.341 N 
HETATM    8  H   UNL     1     -16.533 -65.104  21.847  1.00  0.00     0.167 HD
BRANCH   7   9
HETATM    9  C   UNL     1     -17.272 -66.212  23.395  1.00  0.00     0.035 A 
HETATM   10  C   UNL     1     -17.951 -67.354  22.961  1.00  0.00     0.059 A 
HETATM   11  C   UNL     1     -17.992 -68.493  23.764  1.00  0.00     0.036 A 
HETATM   12  C   UNL     1     -17.354 -68.495  25.006  1.00  0.00     0.029 A 
HETATM   13  C   UNL     1     -16.676 -67.358  25.443  1.00  0.00     0.004 A 
HETATM   14  C   UNL     1     -16.635 -66.218  24.639  1.00  0.00     0.029 A 
BRANCH  11  15
HETATM   15  N   UNL     1     -18.670 -69.632  23.327  1.00  0.00    -0.327 N 
HETATM   16  C   UNL     1     -18.250 -70.577  22.388  1.00  0.00     0.226 C 
HETATM   17  O   UNL     1     -17.199 -70.595  21.760  1.00  0.00    -0.273 OA
HETATM   18  H   UNL     1     -19.586 -69.779  23.746  1.00  0.00     0.169 HD
BRANCH  16  19
HETATM   19  C   UNL     1     -19.235 -71.680  22.157  1.00  0.00     0.078 A 
HETATM   20  C   UNL     1     -20.257 -71.944  23.206  1.00  0.00     0.015 A 
HETATM   21  C   UNL     1     -19.127 -72.907  22.992  1.00  0.00     0.015 A 
ENDBRANCH  16  19
ENDBRANCH  11  15
ENDBRANCH   7   9
ENDBRANCH   3   7
BRANCH   5  22
HETATM   22  N   UNL     1     -17.380 -60.323  22.007  1.00  0.00    -0.341 N 
HETATM   23  H   UNL     1     -17.283 -60.174  21.005  1.00  0.00     0.167 HD
BRANCH  22  24
HETATM   24  C   UNL     1     -16.565 -59.456  22.764  1.00  0.00     0.034 A 
HETATM   25  C   UNL     1     -17.143 -58.433  23.515  1.00  0.00     0.045 A 
HETATM   26  C   UNL     1     -16.337 -57.577  24.265  1.00  0.00     0.050 A 
HETATM   27  C   UNL     1     -14.952 -57.744  24.263  1.00  0.00     0.016 A 
HETATM   28  C   UNL     1     -14.373 -58.766  23.511  1.00  0.00     0.003 A 
HETATM   29  C   UNL     1     -15.180 -59.622  22.761  1.00  0.00     0.029 A 
BRANCH  26  30
HETATM   30  C   UNL     1     -16.955 -56.483  25.069  1.00  0.00     0.417 C 
HETATM   31  F   UNL     1     -18.319 -56.465  25.013  1.00  0.00    -0.166 F 
HETATM   32  F   UNL     1     -16.653 -56.546  26.399  1.00  0.00    -0.166 F 
HETATM   33  F   UNL     1     -16.555 -55.242  24.661  1.00  0.00    -0.166 F 
ENDBRANCH  26  30
ENDBRANCH  22  24
ENDBRANCH   5  22
TORSDOF 7
ENDMDL
MODEL 2
REMARK VINA RESULT:      -6.2      1.643      2.125
REMARK  7 active torsions:
REMARK  status: ('A' for Active; 'I' for Inactive)
REMARK       I    between atoms: N_5  and  C_13 
REMARK    1  A    between atoms: N_5  and  C_14 
REMARK    2  A    between atoms: N_6  and  C_17 
REMARK    3  A    between atoms: N_6  and  C_20 
REMARK    4  A    between atoms: N_7  and  C_21 
REMARK    5  A    between atoms: N_7  and  C_23 
REMARK    6  A    between atoms: C_10  and  C_13 
REMARK    7  A    between atoms: C_24  and  C_29 
ROOT
HETATM    1  N   UNL     1     -19.158 -63.474  23.442  1.00  0.00    -0.224 NA
HETATM    2  N   UNL     1     -17.688 -61.926  22.325  1.00  0.00    -0.224 NA
HETATM    3  C   UNL     1     -18.289 -63.498  24.474  1.00  0.00     0.133 A 
HETATM    4  C   UNL     1     -17.115 -62.773  24.504  1.00  0.00     0.100 A 
HETATM    5  C   UNL     1     -16.857 -61.993  23.391  1.00  0.00     0.133 A 
HETATM    6  C   UNL     1     -18.800 -62.680  22.416  1.00  0.00     0.237 A 
ENDROOT
BRANCH   3   7
HETATM    7  N   UNL     1     -18.584 -64.309  25.597  1.00  0.00    -0.341 N 
HETATM    8  H   UNL     1     -19.303 -63.918  26.200  1.00  0.00     0.167 HD
BRANCH   7   9
HETATM    9  C   UNL     1     -18.081 -65.546  26.031  1.00  0.00     0.035 A 
HETATM   10  C   UNL     1     -17.863 -66.578  25.115  1.00  0.00     0.059 A 
HETATM   11  C   UNL     1     -17.362 -67.806  25.547  1.00  0.00     0.036 A 
HETATM   12  C   UNL     1     -17.078 -68.007  26.898  1.00  0.00     0.029 A 
HETATM   13  C   UNL     1     -17.294 -66.980  27.816  1.00  0.00     0.004 A 
HETATM   14  C   UNL     1     -17.796 -65.752  27.384  1.00  0.00     0.029 A 
BRANCH  11  15
HETATM   15  N   UNL     1     -17.144 -68.834  24.628  1.00  0.00    -0.327 N 
HETATM   16  C   UNL     1     -18.072 -69.746  24.121  1.00  0.00     0.226 C 
HETATM   17  O   UNL     1     -19.265 -69.826  24.381  1.00  0.00    -0.273 OA
HETATM   18  H   UNL     1     -16.186 -68.924  24.297  1.00  0.00     0.169 HD
BRANCH  16  19
HETATM   19  C   UNL     1     -17.490 -70.721  23.145  1.00  0.00     0.078 A 
HETATM   20  C   UNL     1     -17.563 -70.397  21.695  1.00  0.00     0.015 A 
HETATM   21  C   UNL     1     -18.422 -71.483  22.270  1.00  0.00     0.015 A 
ENDBRANCH  16  19
ENDBRANCH  11  15
ENDBRANCH   7   9
ENDBRANCH   3   7
BRANCH   5  22
HETATM   22  N   UNL     1     -15.669 -61.237  23.382  1.00  0.00    -0.341 N 
HETATM   23  H   UNL     1     -14.833 -61.815  23.422  1.00  0.00     0.167 HD
BRANCH  22  24
HETATM   24  C   UNL     1     -15.400 -59.878  23.650  1.00  0.00     0.034 A 
HETATM   25  C   UNL     1     -16.282 -59.132  24.431  1.00  0.00     0.045 A 
HETATM   26  C   UNL     1     -16.014 -57.790  24.696  1.00  0.00     0.050 A 
HETATM   27  C   UNL     1     -14.864 -57.193  24.180  1.00  0.00     0.016 A 
HETATM   28  C   UNL     1     -13.981 -57.938  23.399  1.00  0.00     0.003 A 
HETATM   29  C   UNL     1     -14.250 -59.282  23.134  1.00  0.00     0.029 A 
BRANCH  26  30
HETATM   30  C   UNL     1     -16.958 -56.991  25.532  1.00  0.00     0.417 C 
HETATM   31  F   UNL     1     -16.568 -56.871  26.835  1.00  0.00    -0.166 F 
HETATM   32  F   UNL     1     -17.127 -55.710  25.091  1.00  0.00    -0.166 F 
HETATM   33  F   UNL     1     -18.210 -57.533  25.573  1.00  0.00    -0.166 F 
ENDBRANCH  26  30
ENDBRANCH  22  24
ENDBRANCH   5  22
TORSDOF 7
ENDMDL
MODEL 3
REMARK VINA RESULT:      -6.2      5.628     11.111
REMARK  7 active torsions:
REMARK  status: ('A' for Active; 'I' for Inactive)
REMARK       I    between atoms: N_5  and  C_13 
REMARK    1  A    between atoms: N_5  and  C_14 
REMARK    2  A    between atoms: N_6  and  C_17 
REMARK    3  A    between atoms: N_6  and  C_20 
REMARK    4  A    between atoms: N_7  and  C_21 
REMARK    5  A    between atoms: N_7  and  C_23 
REMARK    6  A    between atoms: C_10  and  C_13 
REMARK    7  A    between atoms: C_24  and  C_29 
ROOT
HETATM    1  N   UNL     1     -19.202 -61.560  22.886  1.00  0.00    -0.224 NA
HETATM    2  N   UNL     1     -19.060 -63.956  23.109  1.00  0.00    -0.224 NA
HETATM    3  C   UNL     1     -17.925 -61.563  22.451  1.00  0.00     0.133 A 
HETATM    4  C   UNL     1     -17.161 -62.705  22.319  1.00  0.00     0.100 A 
HETATM    5  C   UNL     1     -17.783 -63.891  22.666  1.00  0.00     0.133 A 
HETATM    6  C   UNL     1     -19.699 -62.773  23.194  1.00  0.00     0.237 A 
ENDROOT
BRANCH   3   7
HETATM    7  N   UNL     1     -17.320 -60.330  22.105  1.00  0.00    -0.341 N 
HETATM    8  H   UNL     1     -17.535 -60.024  21.160  1.00  0.00     0.167 HD
BRANCH   7   9
HETATM    9  C   UNL     1     -16.488 -59.449  22.817  1.00  0.00     0.035 A 
HETATM   10  C   UNL     1     -17.043 -58.422  23.584  1.00  0.00     0.059 A 
HETATM   11  C   UNL     1     -16.216 -57.549  24.291  1.00  0.00     0.036 A 
HETATM   12  C   UNL     1     -14.831 -57.701  24.235  1.00  0.00     0.029 A 
HETATM   13  C   UNL     1     -14.272 -58.725  23.471  1.00  0.00     0.004 A 
HETATM   14  C   UNL     1     -15.099 -59.597  22.762  1.00  0.00     0.029 A 
BRANCH  11  15
HETATM   15  N   UNL     1     -16.775 -56.525  25.057  1.00  0.00    -0.327 N 
HETATM   16  C   UNL     1     -16.729 -55.149  24.820  1.00  0.00     0.226 C 
HETATM   17  O   UNL     1     -16.188 -54.566  23.890  1.00  0.00    -0.273 OA
HETATM   18  H   UNL     1     -17.271 -56.829  25.892  1.00  0.00     0.169 HD
BRANCH  16  19
HETATM   19  C   UNL     1     -17.441 -54.332  25.853  1.00  0.00     0.078 A 
HETATM   20  C   UNL     1     -16.633 -53.435  26.722  1.00  0.00     0.015 A 
HETATM   21  C   UNL     1     -17.245 -54.683  27.286  1.00  0.00     0.015 A 
ENDBRANCH  16  19
ENDBRANCH  11  15
ENDBRANCH   7   9
ENDBRANCH   3   7
BRANCH   5  22
HETATM   22  N   UNL     1     -17.038 -65.080  22.546  1.00  0.00    -0.341 N 
HETATM   23  H   UNL     1     -16.374 -65.054  21.776  1.00  0.00     0.167 HD
BRANCH  22  24
HETATM   24  C   UNL     1     -17.234 -66.384  23.045  1.00  0.00     0.034 A 
HETATM   25  C   UNL     1     -17.407 -67.451  22.163  1.00  0.00     0.045 A 
HETATM   26  C   UNL     1     -17.600 -68.741  22.658  1.00  0.00     0.050 A 
HETATM   27  C   UNL     1     -17.620 -68.964  24.035  1.00  0.00     0.016 A 
HETATM   28  C   UNL     1     -17.447 -67.898  24.917  1.00  0.00     0.003 A 
HETATM   29  C   UNL     1     -17.254 -66.607  24.422  1.00  0.00     0.029 A 
BRANCH  26  30
HETATM   30  C   UNL     1     -17.785 -69.882  21.715  1.00  0.00     0.417 C 
HETATM   31  F   UNL     1     -17.158 -71.028  22.113  1.00  0.00    -0.166 F 
HETATM   32  F   UNL     1     -19.091 -70.235  21.535  1.00  0.00    -0.166 F 
HETATM   33  F   UNL     1     -17.302 -69.615  20.466  1.00  0.00    -0.166 F 
ENDBRANCH  26  30
ENDBRANCH  22  24
ENDBRANCH   5  22
TORSDOF 7
ENDMDL
MODEL 4
REMARK VINA RESULT:      -6.2      2.713      3.894
REMARK  7 active torsions:
REMARK  status: ('A' for Active; 'I' for Inactive)
REMARK       I    between atoms: N_5  and  C_13 
REMARK    1  A    between atoms: N_5  and  C_14 
REMARK    2  A    between atoms: N_6  and  C_17 
REMARK    3  A    between atoms: N_6  and  C_20 
REMARK    4  A    between atoms: N_7  and  C_21 
REMARK    5  A    between atoms: N_7  and  C_23 
REMARK    6  A    between atoms: C_10  and  C_13 
REMARK    7  A    between atoms: C_24  and  C_29 
ROOT
HETATM    1  N   UNL     1     -19.270 -66.591  22.757  1.00  0.00    -0.224 NA
HETATM    2  N   UNL     1     -18.841 -64.243  23.094  1.00  0.00    -0.224 NA
HETATM    3  C   UNL     1     -17.952 -66.759  22.518  1.00  0.00     0.133 A 
HETATM    4  C   UNL     1     -17.030 -65.732  22.549  1.00  0.00     0.100 A 
HETATM    5  C   UNL     1     -17.532 -64.477  22.845  1.00  0.00     0.133 A 
HETATM    6  C   UNL     1     -19.640 -65.326  23.033  1.00  0.00     0.237 A 
ENDROOT
BRANCH   3   7
HETATM    7  N   UNL     1     -17.473 -68.057  22.217  1.00  0.00    -0.341 N 
HETATM    8  H   UNL     1     -16.656 -68.057  21.614  1.00  0.00     0.167 HD
BRANCH   7   9
HETATM    9  C   UNL     1     -17.906 -69.339  22.597  1.00  0.00     0.035 A 
HETATM   10  C   UNL     1     -17.748 -69.773  23.916  1.00  0.00     0.059 A 
HETATM   11  C   UNL     1     -18.179 -71.045  24.292  1.00  0.00     0.036 A 
HETATM   12  C   UNL     1     -18.770 -71.888  23.351  1.00  0.00     0.029 A 
HETATM   13  C   UNL     1     -18.931 -71.459  22.034  1.00  0.00     0.004 A 
HETATM   14  C   UNL     1     -18.498 -70.187  21.658  1.00  0.00     0.029 A 
BRANCH  11  15
HETATM   15  N   UNL     1     -18.019 -71.474  25.611  1.00  0.00    -0.327 N 
HETATM   16  C   UNL     1     -18.975 -71.501  26.629  1.00  0.00     0.226 C 
HETATM   17  O   UNL     1     -20.147 -71.154  26.567  1.00  0.00    -0.273 OA
HETATM   18  H   UNL     1     -17.086 -71.801  25.851  1.00  0.00     0.169 HD
BRANCH  16  19
HETATM   19  C   UNL     1     -18.457 -72.028  27.931  1.00  0.00     0.078 A 
HETATM   20  C   UNL     1     -19.254 -73.066  28.639  1.00  0.00     0.015 A 
HETATM   21  C   UNL     1     -19.187 -71.667  29.177  1.00  0.00     0.015 A 
ENDBRANCH  16  19
ENDBRANCH  11  15
ENDBRANCH   7   9
ENDBRANCH   3   7
BRANCH   5  22
HETATM   22  N   UNL     1     -16.624 -63.402  22.887  1.00  0.00    -0.341 N 
HETATM   23  H   UNL     1     -15.754 -63.638  23.360  1.00  0.00     0.167 HD
BRANCH  22  24
HETATM   24  C   UNL     1     -16.780 -62.012  22.707  1.00  0.00     0.034 A 
HETATM   25  C   UNL     1     -15.873 -61.126  23.287  1.00  0.00     0.045 A 
HETATM   26  C   UNL     1     -16.027 -59.752  23.107  1.00  0.00     0.050 A 
HETATM   27  C   UNL     1     -17.090 -59.263  22.347  1.00  0.00     0.016 A 
HETATM   28  C   UNL     1     -17.998 -60.149  21.767  1.00  0.00     0.003 A 
HETATM   29  C   UNL     1     -17.843 -61.524  21.947  1.00  0.00     0.029 A 
BRANCH  26  30
HETATM   30  C   UNL     1     -15.057 -58.804  23.727  1.00  0.00     0.417 C 
HETATM   31  F   UNL     1     -15.526 -57.525  23.825  1.00  0.00    -0.166 F 
HETATM   32  F   UNL     1     -14.694 -59.148  24.998  1.00  0.00    -0.166 F 
HETATM   33  F   UNL     1     -13.889 -58.713  23.025  1.00  0.00    -0.166 F 
ENDBRANCH  26  30
ENDBRANCH  22  24
ENDBRANCH   5  22
TORSDOF 7
ENDMDL
MODEL 5
REMARK VINA RESULT:      -6.1      6.038     11.257
REMARK  7 active torsions:
REMARK  status: ('A' for Active; 'I' for Inactive)
REMARK       I    between atoms: N_5  and  C_13 
REMARK    1  A    between atoms: N_5  and  C_14 
REMARK    2  A    between atoms: N_6  and  C_17 
REMARK    3  A    between atoms: N_6  and  C_20 
REMARK    4  A    between atoms: N_7  and  C_21 
REMARK    5  A    between atoms: N_7  and  C_23 
REMARK    6  A    between atoms: C_10  and  C_13 
REMARK    7  A    between atoms: C_24  and  C_29 
ROOT
HETATM    1  N   UNL     1     -18.361 -64.766  24.700  1.00  0.00    -0.224 NA
HETATM    2  N   UNL     1     -18.537 -67.055  25.431  1.00  0.00    -0.224 NA
HETATM    3  C   UNL     1     -17.390 -65.152  23.847  1.00  0.00     0.133 A 
HETATM    4  C   UNL     1     -16.945 -66.453  23.730  1.00  0.00     0.100 A 
HETATM    5  C   UNL     1     -17.558 -67.379  24.555  1.00  0.00     0.133 A 
HETATM    6  C   UNL     1     -18.883 -65.754  25.452  1.00  0.00     0.237 A 
ENDROOT
BRANCH   3   7
HETATM    7  N   UNL     1     -16.783 -64.178  23.018  1.00  0.00    -0.341 N 
HETATM    8  H   UNL     1     -15.893 -64.475  22.628  1.00  0.00     0.167 HD
BRANCH   7   9
HETATM    9  C   UNL     1     -17.177 -62.887  22.627  1.00  0.00     0.035 A 
HETATM   10  C   UNL     1     -16.771 -61.773  23.366  1.00  0.00     0.059 A 
HETATM   11  C   UNL     1     -17.162 -60.493  22.976  1.00  0.00     0.036 A 
HETATM   12  C   UNL     1     -17.960 -60.320  21.844  1.00  0.00     0.029 A 
HETATM   13  C   UNL     1     -18.366 -61.429  21.103  1.00  0.00     0.004 A 
HETATM   14  C   UNL     1     -17.976 -62.710  21.494  1.00  0.00     0.029 A 
BRANCH  11  15
HETATM   15  N   UNL     1     -16.754 -59.382  23.717  1.00  0.00    -0.327 N 
HETATM   16  C   UNL     1     -15.521 -58.728  23.680  1.00  0.00     0.226 C 
HETATM   17  O   UNL     1     -14.548 -58.999  22.988  1.00  0.00    -0.273 OA
HETATM   18  H   UNL     1     -17.448 -59.015  24.365  1.00  0.00     0.169 HD
BRANCH  16  19
HETATM   19  C   UNL     1     -15.425 -57.563  24.615  1.00  0.00     0.078 A 
HETATM   20  C   UNL     1     -16.431 -57.449  25.706  1.00  0.00     0.015 A 
HETATM   21  C   UNL     1     -16.473 -56.509  24.537  1.00  0.00     0.015 A 
ENDBRANCH  16  19
ENDBRANCH  11  15
ENDBRANCH   7   9
ENDBRANCH   3   7
BRANCH   5  22
HETATM   22  N   UNL     1     -17.133 -68.718  24.467  1.00  0.00    -0.341 N 
HETATM   23  H   UNL     1     -16.155 -68.840  24.719  1.00  0.00     0.167 HD
BRANCH  22  24
HETATM   24  C   UNL     1     -17.666 -69.848  23.811  1.00  0.00     0.034 A 
HETATM   25  C   UNL     1     -18.222 -70.889  24.554  1.00  0.00     0.045 A 
HETATM   26  C   UNL     1     -18.750 -72.004  23.904  1.00  0.00     0.050 A 
HETATM   27  C   UNL     1     -18.722 -72.079  22.512  1.00  0.00     0.016 A 
HETATM   28  C   UNL     1     -18.165 -71.038  21.768  1.00  0.00     0.003 A 
HETATM   29  C   UNL     1     -17.637 -69.922  22.418  1.00  0.00     0.029 A 
BRANCH  26  30
HETATM   30  C   UNL     1     -19.346 -73.118  24.698  1.00  0.00     0.417 C 
HETATM   31  F   UNL     1     -20.664 -72.932  25.000  1.00  0.00    -0.166 F 
HETATM   32  F   UNL     1     -19.291 -74.328  24.067  1.00  0.00    -0.166 F 
HETATM   33  F   UNL     1     -18.718 -73.302  25.897  1.00  0.00    -0.166 F 
ENDBRANCH  26  30
ENDBRANCH  22  24
ENDBRANCH   5  22
TORSDOF 7
ENDMDL
MODEL 6
REMARK VINA RESULT:      -6.0      1.659      2.323
REMARK  7 active torsions:
REMARK  status: ('A' for Active; 'I' for Inactive)
REMARK       I    between atoms: N_5  and  C_13 
REMARK    1  A    between atoms: N_5  and  C_14 
REMARK    2  A    between atoms: N_6  and  C_17 
REMARK    3  A    between atoms: N_6  and  C_20 
REMARK    4  A    between atoms: N_7  and  C_21 
REMARK    5  A    between atoms: N_7  and  C_23 
REMARK    6  A    between atoms: C_10  and  C_13 
REMARK    7  A    between atoms: C_24  and  C_29 
ROOT
HETATM    1  N   UNL     1     -18.115 -62.064  21.313  1.00  0.00    -0.224 NA
HETATM    2  N   UNL     1     -17.602 -59.831  22.062  1.00  0.00    -0.224 NA
HETATM    3  C   UNL     1     -17.168 -62.524  22.157  1.00  0.00     0.133 A 
HETATM    4  C   UNL     1     -16.409 -61.712  22.974  1.00  0.00     0.100 A 
HETATM    5  C   UNL     1     -16.667 -60.355  22.888  1.00  0.00     0.133 A 
HETATM    6  C   UNL     1     -18.276 -60.727  21.316  1.00  0.00     0.237 A 
ENDROOT
BRANCH   3   7
HETATM    7  N   UNL     1     -16.930 -63.919  22.220  1.00  0.00    -0.341 N 
HETATM    8  H   UNL     1     -16.251 -64.244  21.537  1.00  0.00     0.167 HD
BRANCH   7   9
HETATM    9  C   UNL     1     -17.443 -64.933  23.045  1.00  0.00     0.035 A 
HETATM   10  C   UNL     1     -17.341 -66.273  22.662  1.00  0.00     0.059 A 
HETATM   11  C   UNL     1     -17.850 -67.278  23.483  1.00  0.00     0.036 A 
HETATM   12  C   UNL     1     -18.464 -66.948  24.692  1.00  0.00     0.029 A 
HETATM   13  C   UNL     1     -18.568 -65.613  25.079  1.00  0.00     0.004 A 
HETATM   14  C   UNL     1     -18.060 -64.607  24.257  1.00  0.00     0.029 A 
BRANCH  11  15
HETATM   15  N   UNL     1     -17.746 -68.615  23.096  1.00  0.00    -0.327 N 
HETATM   16  C   UNL     1     -18.498 -69.296  22.136  1.00  0.00     0.226 C 
HETATM   17  O   UNL     1     -19.402 -68.853  21.439  1.00  0.00    -0.273 OA
HETATM   18  H   UNL     1     -17.033 -69.153  23.585  1.00  0.00     0.169 HD
BRANCH  16  19
HETATM   19  C   UNL     1     -18.115 -70.734  21.975  1.00  0.00     0.078 A 
HETATM   20  C   UNL     1     -19.201 -71.740  21.822  1.00  0.00     0.015 A 
HETATM   21  C   UNL     1     -18.409 -71.670  23.094  1.00  0.00     0.015 A 
ENDBRANCH  16  19
ENDBRANCH  11  15
ENDBRANCH   7   9
ENDBRANCH   3   7
BRANCH   5  22
HETATM   22  N   UNL     1     -15.913 -59.492  23.705  1.00  0.00    -0.341 N 
HETATM   23  H   UNL     1     -14.955 -59.809  23.837  1.00  0.00     0.167 HD
BRANCH  22  24
HETATM   24  C   UNL     1     -16.278 -58.482  24.620  1.00  0.00     0.034 A 
HETATM   25  C   UNL     1     -16.390 -57.159  24.192  1.00  0.00     0.045 A 
HETATM   26  C   UNL     1     -16.753 -56.162  25.097  1.00  0.00     0.050 A 
HETATM   27  C   UNL     1     -17.004 -56.488  26.430  1.00  0.00     0.016 A 
HETATM   28  C   UNL     1     -16.892 -57.810  26.859  1.00  0.00     0.003 A 
HETATM   29  C   UNL     1     -16.529 -58.808  25.953  1.00  0.00     0.029 A 
BRANCH  26  30
HETATM   30  C   UNL     1     -16.873 -54.747  24.640  1.00  0.00     0.417 C 
HETATM   31  F   UNL     1     -15.692 -54.062  24.666  1.00  0.00    -0.166 F 
HETATM   32  F   UNL     1     -17.329 -54.624  23.359  1.00  0.00    -0.166 F 
HETATM   33  F   UNL     1     -17.736 -54.019  25.408  1.00  0.00    -0.166 F 
ENDBRANCH  26  30
ENDBRANCH  22  24
ENDBRANCH   5  22
TORSDOF 7
ENDMDL
MODEL 7
REMARK VINA RESULT:      -6.0      2.566      3.866
REMARK  7 active torsions:
REMARK  status: ('A' for Active; 'I' for Inactive)
REMARK       I    between atoms: N_5  and  C_13 
REMARK    1  A    between atoms: N_5  and  C_14 
REMARK    2  A    between atoms: N_6  and  C_17 
REMARK    3  A    between atoms: N_6  and  C_20 
REMARK    4  A    between atoms: N_7  and  C_21 
REMARK    5  A    between atoms: N_7  and  C_23 
REMARK    6  A    between atoms: C_10  and  C_13 
REMARK    7  A    between atoms: C_24  and  C_29 
ROOT
HETATM    1  N   UNL     1     -18.997 -66.878  23.715  1.00  0.00    -0.224 NA
HETATM    2  N   UNL     1     -18.714 -64.503  23.425  1.00  0.00    -0.224 NA
HETATM    3  C   UNL     1     -17.875 -67.063  22.990  1.00  0.00     0.133 A 
HETATM    4  C   UNL     1     -17.127 -66.032  22.458  1.00  0.00     0.100 A 
HETATM    5  C   UNL     1     -17.596 -64.755  22.706  1.00  0.00     0.133 A 
HETATM    6  C   UNL     1     -19.355 -65.592  23.890  1.00  0.00     0.237 A 
ENDROOT
BRANCH   3   7
HETATM    7  N   UNL     1     -17.424 -68.385  22.755  1.00  0.00    -0.341 N 
HETATM    8  H   UNL     1     -16.463 -68.433  22.429  1.00  0.00     0.167 HD
BRANCH   7   9
HETATM    9  C   UNL     1     -18.047 -69.637  22.891  1.00  0.00     0.035 A 
HETATM   10  C   UNL     1     -18.796 -70.170  21.839  1.00  0.00     0.059 A 
HETATM   11  C   UNL     1     -19.412 -71.413  21.975  1.00  0.00     0.036 A 
HETATM   12  C   UNL     1     -19.282 -72.130  23.165  1.00  0.00     0.029 A 
HETATM   13  C   UNL     1     -18.535 -71.603  24.218  1.00  0.00     0.004 A 
HETATM   14  C   UNL     1     -17.920 -70.358  24.082  1.00  0.00     0.029 A 
BRANCH  11  15
HETATM   15  N   UNL     1     -20.158 -71.942  20.920  1.00  0.00    -0.327 N 
HETATM   16  C   UNL     1     -21.537 -72.154  20.863  1.00  0.00     0.226 C 
HETATM   17  O   UNL     1     -22.370 -71.917  21.728  1.00  0.00    -0.273 OA
HETATM   18  H   UNL     1     -19.619 -72.208  20.099  1.00  0.00     0.169 HD
BRANCH  16  19
HETATM   19  C   UNL     1     -22.006 -72.742  19.568  1.00  0.00     0.078 A 
HETATM   20  C   UNL     1     -23.017 -71.989  18.777  1.00  0.00     0.015 A 
HETATM   21  C   UNL     1     -23.402 -73.251  19.491  1.00  0.00     0.015 A 
ENDBRANCH  16  19
ENDBRANCH  11  15
ENDBRANCH   7   9
ENDBRANCH   3   7
BRANCH   5  22
HETATM   22  N   UNL     1     -16.861 -63.674  22.180  1.00  0.00    -0.341 N 
HETATM   23  H   UNL     1     -15.882 -63.902  22.022  1.00  0.00     0.167 HD
BRANCH  22  24
HETATM   24  C   UNL     1     -17.108 -62.287  22.130  1.00  0.00     0.034 A 
HETATM   25  C   UNL     1     -16.286 -61.405  22.833  1.00  0.00     0.045 A 
HETATM   26  C   UNL     1     -16.529 -60.033  22.782  1.00  0.00     0.050 A 
HETATM   27  C   UNL     1     -17.595 -59.542  22.028  1.00  0.00     0.016 A 
HETATM   28  C   UNL     1     -18.417 -60.422  21.325  1.00  0.00     0.003 A 
HETATM   29  C   UNL     1     -18.174 -61.795  21.377  1.00  0.00     0.029 A 
BRANCH  26  30
HETATM   30  C   UNL     1     -15.650 -59.091  23.533  1.00  0.00     0.417 C 
HETATM   31  F   UNL     1     -16.175 -57.837  23.661  1.00  0.00    -0.166 F 
HETATM   32  F   UNL     1     -15.380 -59.496  24.809  1.00  0.00    -0.166 F 
HETATM   33  F   UNL     1     -14.433 -58.920  22.938  1.00  0.00    -0.166 F 
ENDBRANCH  26  30
ENDBRANCH  22  24
ENDBRANCH   5  22
TORSDOF 7
ENDMDL
MODEL 8
REMARK VINA RESULT:      -5.8      1.466      1.982
REMARK  7 active torsions:
REMARK  status: ('A' for Active; 'I' for Inactive)
REMARK       I    between atoms: N_5  and  C_13 
REMARK    1  A    between atoms: N_5  and  C_14 
REMARK    2  A    between atoms: N_6  and  C_17 
REMARK    3  A    between atoms: N_6  and  C_20 
REMARK    4  A    between atoms: N_7  and  C_21 
REMARK    5  A    between atoms: N_7  and  C_23 
REMARK    6  A    between atoms: C_10  and  C_13 
REMARK    7  A    between atoms: C_24  and  C_29 
ROOT
HETATM    1  N   UNL     1     -19.847 -64.231  23.123  1.00  0.00    -0.224 NA
HETATM    2  N   UNL     1     -20.313 -61.897  22.746  1.00  0.00    -0.224 NA
HETATM    3  C   UNL     1     -18.577 -64.003  22.729  1.00  0.00     0.133 A 
HETATM    4  C   UNL     1     -18.106 -62.766  22.335  1.00  0.00     0.100 A 
HETATM    5  C   UNL     1     -19.025 -61.733  22.362  1.00  0.00     0.133 A 
HETATM    6  C   UNL     1     -20.650 -63.150  23.106  1.00  0.00     0.237 A 
ENDROOT
BRANCH   3   7
HETATM    7  N   UNL     1     -17.662 -65.084  22.713  1.00  0.00    -0.341 N 
HETATM    8  H   UNL     1     -16.941 -64.995  22.003  1.00  0.00     0.167 HD
BRANCH   7   9
HETATM    9  C   UNL     1     -17.557 -66.248  23.493  1.00  0.00     0.035 A 
HETATM   10  C   UNL     1     -18.201 -67.423  23.096  1.00  0.00     0.059 A 
HETATM   11  C   UNL     1     -18.094 -68.577  23.870  1.00  0.00     0.036 A 
HETATM   12  C   UNL     1     -17.343 -68.563  25.046  1.00  0.00     0.029 A 
HETATM   13  C   UNL     1     -16.698 -67.393  25.447  1.00  0.00     0.004 A 
HETATM   14  C   UNL     1     -16.806 -66.237  24.672  1.00  0.00     0.029 A 
BRANCH  11  15
HETATM   15  N   UNL     1     -18.738 -69.749  23.469  1.00  0.00    -0.327 N 
HETATM   16  C   UNL     1     -18.276 -70.726  22.585  1.00  0.00     0.226 C 
HETATM   17  O   UNL     1     -17.209 -70.751  21.985  1.00  0.00    -0.273 OA
HETATM   18  H   UNL     1     -19.661 -69.896  23.872  1.00  0.00     0.169 HD
BRANCH  16  19
HETATM   19  C   UNL     1     -19.233 -71.859  22.381  1.00  0.00     0.078 A 
HETATM   20  C   UNL     1     -20.130 -72.237  23.506  1.00  0.00     0.015 A 
HETATM   21  C   UNL     1     -18.988 -73.129  23.118  1.00  0.00     0.015 A 
ENDBRANCH  16  19
ENDBRANCH  11  15
ENDBRANCH   7   9
ENDBRANCH   3   7
BRANCH   5  22
HETATM   22  N   UNL     1     -18.585 -60.455  21.968  1.00  0.00    -0.341 N 
HETATM   23  H   UNL     1     -18.454 -60.375  20.962  1.00  0.00     0.167 HD
BRANCH  22  24
HETATM   24  C   UNL     1     -17.992 -59.389  22.676  1.00  0.00     0.034 A 
HETATM   25  C   UNL     1     -16.608 -59.350  22.849  1.00  0.00     0.045 A 
HETATM   26  C   UNL     1     -16.023 -58.295  23.547  1.00  0.00     0.050 A 
HETATM   27  C   UNL     1     -16.820 -57.279  24.074  1.00  0.00     0.016 A 
HETATM   28  C   UNL     1     -18.204 -57.318  23.902  1.00  0.00     0.003 A 
HETATM   29  C   UNL     1     -18.790 -58.373  23.203  1.00  0.00     0.029 A 
BRANCH  26  30
HETATM   30  C   UNL     1     -14.543 -58.252  23.733  1.00  0.00     0.417 C 
HETATM   31  F   UNL     1     -14.122 -58.807  24.907  1.00  0.00    -0.166 F 
HETATM   32  F   UNL     1     -13.851 -58.913  22.758  1.00  0.00    -0.166 F 
HETATM   33  F   UNL     1     -14.050 -56.979  23.732  1.00  0.00    -0.166 F 
ENDBRANCH  26  30
ENDBRANCH  22  24
ENDBRANCH   5  22
TORSDOF 7
ENDMDL
MODEL 9
REMARK VINA RESULT:      -5.8      3.122      4.590
REMARK  7 active torsions:
REMARK  status: ('A' for Active; 'I' for Inactive)
REMARK       I    between atoms: N_5  and  C_13 
REMARK    1  A    between atoms: N_5  and  C_14 
REMARK    2  A    between atoms: N_6  and  C_17 
REMARK    3  A    between atoms: N_6  and  C_20 
REMARK    4  A    between atoms: N_7  and  C_21 
REMARK    5  A    between atoms: N_7  and  C_23 
REMARK    6  A    between atoms: C_10  and  C_13 
REMARK    7  A    between atoms: C_24  and  C_29 
ROOT
HETATM    1  N   UNL     1     -19.118 -67.184  23.428  1.00  0.00    -0.224 NA
HETATM    2  N   UNL     1     -18.739 -64.808  23.303  1.00  0.00    -0.224 NA
HETATM    3  C   UNL     1     -17.960 -67.366  22.761  1.00  0.00     0.133 A 
HETATM    4  C   UNL     1     -17.148 -66.334  22.338  1.00  0.00     0.100 A 
HETATM    5  C   UNL     1     -17.588 -65.057  22.637  1.00  0.00     0.133 A 
HETATM    6  C   UNL     1     -19.443 -65.899  23.662  1.00  0.00     0.237 A 
ENDROOT
BRANCH   3   7
HETATM    7  N   UNL     1     -17.540 -68.688  22.470  1.00  0.00    -0.341 N 
HETATM    8  H   UNL     1     -16.743 -68.730  21.842  1.00  0.00     0.167 HD
BRANCH   7   9
HETATM    9  C   UNL     1     -18.008 -69.944  22.888  1.00  0.00     0.035 A 
HETATM   10  C   UNL     1     -17.897 -70.327  24.228  1.00  0.00     0.059 A 
HETATM   11  C   UNL     1     -18.363 -71.575  24.642  1.00  0.00     0.036 A 
HETATM   12  C   UNL     1     -18.943 -72.445  23.718  1.00  0.00     0.029 A 
HETATM   13  C   UNL     1     -19.056 -72.067  22.380  1.00  0.00     0.004 A 
HETATM   14  C   UNL     1     -18.589 -70.820  21.966  1.00  0.00     0.029 A 
BRANCH  11  15
HETATM   15  N   UNL     1     -18.251 -71.953  25.981  1.00  0.00    -0.327 N 
HETATM   16  C   UNL     1     -19.245 -71.953  26.962  1.00  0.00     0.226 C 
HETATM   17  O   UNL     1     -20.417 -71.622  26.842  1.00  0.00    -0.273 OA
HETATM   18  H   UNL     1     -17.324 -72.259  26.268  1.00  0.00     0.169 HD
BRANCH  16  19
HETATM   19  C   UNL     1     -18.773 -72.425  28.302  1.00  0.00     0.078 A 
HETATM   20  C   UNL     1     -18.095 -73.747  28.386  1.00  0.00     0.015 A 
HETATM   21  C   UNL     1     -19.481 -73.571  28.935  1.00  0.00     0.015 A 
ENDBRANCH  16  19
ENDBRANCH  11  15
ENDBRANCH   7   9
ENDBRANCH   3   7
BRANCH   5  22
HETATM   22  N   UNL     1     -16.788 -63.974  22.224  1.00  0.00    -0.341 N 
HETATM   23  H   UNL     1     -15.845 -64.256  21.966  1.00  0.00     0.167 HD
BRANCH  22  24
HETATM   24  C   UNL     1     -16.907 -62.579  22.393  1.00  0.00     0.034 A 
HETATM   25  C   UNL     1     -17.849 -61.864  21.655  1.00  0.00     0.045 A 
HETATM   26  C   UNL     1     -17.967 -60.485  21.825  1.00  0.00     0.050 A 
HETATM   27  C   UNL     1     -17.142 -59.821  22.732  1.00  0.00     0.016 A 
HETATM   28  C   UNL     1     -16.199 -60.535  23.471  1.00  0.00     0.003 A 
HETATM   29  C   UNL     1     -16.082 -61.915  23.301  1.00  0.00     0.029 A 
BRANCH  26  30
HETATM   30  C   UNL     1     -18.976 -59.719  21.035  1.00  0.00     0.417 C 
HETATM   31  F   UNL     1     -18.895 -58.367  21.209  1.00  0.00    -0.166 F 
HETATM   32  F   UNL     1     -18.875 -59.912  19.687  1.00  0.00    -0.166 F 
HETATM   33  F   UNL     1     -20.260 -60.054  21.358  1.00  0.00    -0.166 F 
ENDBRANCH  26  30
ENDBRANCH  22  24
ENDBRANCH   5  22
TORSDOF 7
ENDMDL
