MODEL 1
REMARK VINA RESULT:      -6.6      0.000      0.000
REMARK  7 active torsions:
REMARK  status: ('A' for Active; 'I' for Inactive)
REMARK       I    between atoms: N_5  and  C_13 
REMARK    1  A    between atoms: N_5  and  C_14 
REMARK    2  A    between atoms: N_6  and  C_17 
REMARK    3  A    between atoms: N_6  and  C_20 
REMARK    4  A    between atoms: N_7  and  C_21 
REMARK    5  A    between atoms: N_7  and  C_23 
REMARK    6  A    between atoms: C_10  and  C_13 
REMARK    7  A    between atoms: C_24  and  C_29 
ROOT
HETATM    1  N   UNL     1     -19.313 -66.776  22.502  1.00  0.00    -0.224 NA
HETATM    2  N   UNL     1     -18.938 -64.425  22.878  1.00  0.00    -0.224 NA
HETATM    3  C   UNL     1     -17.975 -66.944  22.454  1.00  0.00     0.133 A 
HETATM    4  C   UNL     1     -17.067 -65.915  22.607  1.00  0.00     0.100 A 
HETATM    5  C   UNL     1     -17.606 -64.659  22.819  1.00  0.00     0.133 A 
HETATM    6  C   UNL     1     -19.720 -65.509  22.713  1.00  0.00     0.237 A 
ENDROOT
BRANCH   3   7
HETATM    7  N   UNL     1     -17.458 -68.243  22.234  1.00  0.00    -0.341 N 
HETATM    8  H   UNL     1     -16.624 -68.255  21.653  1.00  0.00     0.167 HD
BRANCH   7   9
HETATM    9  C   UNL     1     -17.870 -69.514  22.669  1.00  0.00     0.035 A 
HETATM   10  C   UNL     1     -17.814 -69.846  24.025  1.00  0.00     0.059 A 
HETATM   11  C   UNL     1     -18.225 -71.107  24.456  1.00  0.00     0.036 A 
HETATM   12  C   UNL     1     -18.695 -72.042  23.532  1.00  0.00     0.029 A 
HETATM   13  C   UNL     1     -18.753 -71.715  22.178  1.00  0.00     0.004 A 
HETATM   14  C   UNL     1     -18.340 -70.453  21.747  1.00  0.00     0.029 A 
BRANCH  11  15
HETATM   15  N   UNL     1     -18.169 -71.435  25.811  1.00  0.00    -0.327 N 
HETATM   16  C   UNL     1     -19.104 -71.145  26.808  1.00  0.00     0.226 C 
HETATM   17  O   UNL     1     -20.164 -70.544  26.689  1.00  0.00    -0.273 OA
HETATM   18  H   UNL     1     -17.335 -71.943  26.100  1.00  0.00     0.169 HD
BRANCH  16  19
HETATM   19  C   UNL     1     -18.720 -71.650  28.163  1.00  0.00     0.078 A 
HETATM   20  C   UNL     1     -19.800 -72.129  29.069  1.00  0.00     0.015 A 
HETATM   21  C   UNL     1     -19.096 -70.835  29.351  1.00  0.00     0.015 A 
ENDBRANCH  16  19
ENDBRANCH  11  15
ENDBRANCH   7   9
ENDBRANCH   3   7
BRANCH   5  22
HETATM   22  N   UNL     1     -16.714 -63.582  22.980  1.00  0.00    -0.341 N 
HETATM   23  H   UNL     1     -15.943 -63.799  23.608  1.00  0.00     0.167 HD
BRANCH  22  24
HETATM   24  C   UNL     1     -16.828 -62.200  22.723  1.00  0.00     0.034 A 
HETATM   25  C   UNL     1     -15.904 -61.309  23.269  1.00  0.00     0.045 A 
HETATM   26  C   UNL     1     -16.017 -59.943  23.013  1.00  0.00     0.050 A 
HETATM   27  C   UNL     1     -17.055 -59.467  22.211  1.00  0.00     0.016 A 
HETATM   28  C   UNL     1     -17.979 -60.358  21.665  1.00  0.00     0.003 A 
HETATM   29  C   UNL     1     -17.866 -61.724  21.921  1.00  0.00     0.029 A 
BRANCH  26  30
HETATM   30  C   UNL     1     -15.030 -58.990  23.597  1.00  0.00     0.417 C 
HETATM   31  F   UNL     1     -13.852 -58.931  22.908  1.00  0.00    -0.166 F 
HETATM   32  F   UNL     1     -15.478 -57.701  23.646  1.00  0.00    -0.166 F 
HETATM   33  F   UNL     1     -14.688 -59.308  24.880  1.00  0.00    -0.166 F 
ENDBRANCH  26  30
ENDBRANCH  22  24
ENDBRANCH   5  22
TORSDOF 7
ENDMDL
MODEL 2
REMARK VINA RESULT:      -6.6      2.772      4.118
REMARK  7 active torsions:
REMARK  status: ('A' for Active; 'I' for Inactive)
REMARK       I    between atoms: N_5  and  C_13 
REMARK    1  A    between atoms: N_5  and  C_14 
REMARK    2  A    between atoms: N_6  and  C_17 
REMARK    3  A    between atoms: N_6  and  C_20 
REMARK    4  A    between atoms: N_7  and  C_21 
REMARK    5  A    between atoms: N_7  and  C_23 
REMARK    6  A    between atoms: C_10  and  C_13 
REMARK    7  A    between atoms: C_24  and  C_29 
ROOT
HETATM    1  N   UNL     1     -19.306 -63.969  22.860  1.00  0.00    -0.224 NA
HETATM    2  N   UNL     1     -19.470 -61.582  22.573  1.00  0.00    -0.224 NA
HETATM    3  C   UNL     1     -17.989 -63.874  22.583  1.00  0.00     0.133 A 
HETATM    4  C   UNL     1     -17.349 -62.686  22.296  1.00  0.00     0.100 A 
HETATM    5  C   UNL     1     -18.144 -61.554  22.303  1.00  0.00     0.133 A 
HETATM    6  C   UNL     1     -19.977 -62.801  22.838  1.00  0.00     0.237 A 
ENDROOT
BRANCH   3   7
HETATM    7  N   UNL     1     -17.205 -65.054  22.584  1.00  0.00    -0.341 N 
HETATM    8  H   UNL     1     -16.475 -65.055  21.877  1.00  0.00     0.167 HD
BRANCH   7   9
HETATM    9  C   UNL     1     -17.239 -66.214  23.375  1.00  0.00     0.035 A 
HETATM   10  C   UNL     1     -17.886 -67.364  22.912  1.00  0.00     0.059 A 
HETATM   11  C   UNL     1     -17.918 -68.515  23.697  1.00  0.00     0.036 A 
HETATM   12  C   UNL     1     -17.303 -68.524  24.949  1.00  0.00     0.029 A 
HETATM   13  C   UNL     1     -16.656 -67.380  25.415  1.00  0.00     0.004 A 
HETATM   14  C   UNL     1     -16.625 -66.227  24.630  1.00  0.00     0.029 A 
BRANCH  11  15
HETATM   15  N   UNL     1     -18.565 -69.661  23.230  1.00  0.00    -0.327 N 
HETATM   16  C   UNL     1     -18.291 -70.393  22.073  1.00  0.00     0.226 C 
HETATM   17  O   UNL     1     -17.425 -70.177  21.235  1.00  0.00    -0.273 OA
HETATM   18  H   UNL     1     -19.333 -69.991  23.810  1.00  0.00     0.169 HD
BRANCH  16  19
HETATM   19  C   UNL     1     -19.187 -71.576  21.879  1.00  0.00     0.078 A 
HETATM   20  C   UNL     1     -20.416 -71.674  22.712  1.00  0.00     0.015 A 
HETATM   21  C   UNL     1     -19.257 -72.593  22.963  1.00  0.00     0.015 A 
ENDBRANCH  16  19
ENDBRANCH  11  15
ENDBRANCH   7   9
ENDBRANCH   3   7
BRANCH   5  22
HETATM   22  N   UNL     1     -17.530 -60.320  22.015  1.00  0.00    -0.341 N 
HETATM   23  H   UNL     1     -17.521 -60.105  21.021  1.00  0.00     0.167 HD
BRANCH  22  24
HETATM   24  C   UNL     1     -16.659 -59.492  22.754  1.00  0.00     0.034 A 
HETATM   25  C   UNL     1     -17.168 -58.423  23.491  1.00  0.00     0.045 A 
HETATM   26  C   UNL     1     -16.306 -57.606  24.222  1.00  0.00     0.050 A 
HETATM   27  C   UNL     1     -14.934 -57.857  24.215  1.00  0.00     0.016 A 
HETATM   28  C   UNL     1     -14.424 -58.926  23.478  1.00  0.00     0.003 A 
HETATM   29  C   UNL     1     -15.286 -59.743  22.747  1.00  0.00     0.029 A 
BRANCH  26  30
HETATM   30  C   UNL     1     -16.851 -56.463  25.010  1.00  0.00     0.417 C 
HETATM   31  F   UNL     1     -16.666 -56.589  26.357  1.00  0.00    -0.166 F 
HETATM   32  F   UNL     1     -16.293 -55.260  24.685  1.00  0.00    -0.166 F 
HETATM   33  F   UNL     1     -18.196 -56.300  24.839  1.00  0.00    -0.166 F 
ENDBRANCH  26  30
ENDBRANCH  22  24
ENDBRANCH   5  22
TORSDOF 7
ENDMDL
MODEL 3
REMARK VINA RESULT:      -6.3      2.310      3.894
REMARK  7 active torsions:
REMARK  status: ('A' for Active; 'I' for Inactive)
REMARK       I    between atoms: N_5  and  C_13 
REMARK    1  A    between atoms: N_5  and  C_14 
REMARK    2  A    between atoms: N_6  and  C_17 
REMARK    3  A    between atoms: N_6  and  C_20 
REMARK    4  A    between atoms: N_7  and  C_21 
REMARK    5  A    between atoms: N_7  and  C_23 
REMARK    6  A    between atoms: C_10  and  C_13 
REMARK    7  A    between atoms: C_24  and  C_29 
ROOT
HETATM    1  N   UNL     1     -18.573 -67.068  24.202  1.00  0.00    -0.224 NA
HETATM    2  N   UNL     1     -18.293 -64.691  23.925  1.00  0.00    -0.224 NA
HETATM    3  C   UNL     1     -17.711 -67.251  23.180  1.00  0.00     0.133 A 
HETATM    4  C   UNL     1     -17.107 -66.218  22.492  1.00  0.00     0.100 A 
HETATM    5  C   UNL     1     -17.436 -64.940  22.908  1.00  0.00     0.133 A 
HETATM    6  C   UNL     1     -18.817 -65.781  24.517  1.00  0.00     0.237 A 
ENDROOT
BRANCH   3   7
HETATM    7  N   UNL     1     -17.398 -68.573  22.780  1.00  0.00    -0.341 N 
HETATM    8  H   UNL     1     -16.489 -68.656  22.333  1.00  0.00     0.167 HD
BRANCH   7   9
HETATM    9  C   UNL     1     -18.097 -69.787  22.888  1.00  0.00     0.035 A 
HETATM   10  C   UNL     1     -18.965 -70.192  21.870  1.00  0.00     0.059 A 
HETATM   11  C   UNL     1     -19.657 -71.398  21.978  1.00  0.00     0.036 A 
HETATM   12  C   UNL     1     -19.484 -72.204  23.103  1.00  0.00     0.029 A 
HETATM   13  C   UNL     1     -18.619 -71.804  24.121  1.00  0.00     0.004 A 
HETATM   14  C   UNL     1     -17.927 -70.597  24.014  1.00  0.00     0.029 A 
BRANCH  11  15
HETATM   15  N   UNL     1     -20.523 -71.799  20.959  1.00  0.00    -0.327 N 
HETATM   16  C   UNL     1     -21.865 -71.456  20.784  1.00  0.00     0.226 C 
HETATM   17  O   UNL     1     -22.552 -70.731  21.492  1.00  0.00    -0.273 OA
HETATM   18  H   UNL     1     -20.116 -72.424  20.266  1.00  0.00     0.169 HD
BRANCH  16  19
HETATM   19  C   UNL     1     -22.495 -72.071  19.573  1.00  0.00     0.078 A 
HETATM   20  C   UNL     1     -23.324 -73.293  19.752  1.00  0.00     0.015 A 
HETATM   21  C   UNL     1     -21.976 -73.383  19.099  1.00  0.00     0.015 A 
ENDBRANCH  16  19
ENDBRANCH  11  15
ENDBRANCH   7   9
ENDBRANCH   3   7
BRANCH   5  22
HETATM   22  N   UNL     1     -16.841 -63.858  22.232  1.00  0.00    -0.341 N 
HETATM   23  H   UNL     1     -15.901 -64.067  21.902  1.00  0.00     0.167 HD
BRANCH  22  24
HETATM   24  C   UNL     1     -17.130 -62.478  22.197  1.00  0.00     0.034 A 
HETATM   25  C   UNL     1     -16.273 -61.568  22.816  1.00  0.00     0.045 A 
HETATM   26  C   UNL     1     -16.559 -60.204  22.779  1.00  0.00     0.050 A 
HETATM   27  C   UNL     1     -17.704 -59.749  22.124  1.00  0.00     0.016 A 
HETATM   28  C   UNL     1     -18.562 -60.658  21.506  1.00  0.00     0.003 A 
HETATM   29  C   UNL     1     -18.275 -62.023  21.542  1.00  0.00     0.029 A 
BRANCH  26  30
HETATM   30  C   UNL     1     -15.643 -59.231  23.441  1.00  0.00     0.417 C 
HETATM   31  F   UNL     1     -14.465 -59.048  22.776  1.00  0.00    -0.166 F 
HETATM   32  F   UNL     1     -16.176 -57.981  23.572  1.00  0.00    -0.166 F 
HETATM   33  F   UNL     1     -15.294 -59.614  24.705  1.00  0.00    -0.166 F 
ENDBRANCH  26  30
ENDBRANCH  22  24
ENDBRANCH   5  22
TORSDOF 7
ENDMDL
MODEL 4
REMARK VINA RESULT:      -6.3      2.103      2.411
REMARK  7 active torsions:
REMARK  status: ('A' for Active; 'I' for Inactive)
REMARK       I    between atoms: N_5  and  C_13 
REMARK    1  A    between atoms: N_5  and  C_14 
REMARK    2  A    between atoms: N_6  and  C_17 
REMARK    3  A    between atoms: N_6  and  C_20 
REMARK    4  A    between atoms: N_7  and  C_21 
REMARK    5  A    between atoms: N_7  and  C_23 
REMARK    6  A    between atoms: C_10  and  C_13 
REMARK    7  A    between atoms: C_24  and  C_29 
ROOT
HETATM    1  N   UNL     1     -18.399 -66.123  25.582  1.00  0.00    -0.224 NA
HETATM    2  N   UNL     1     -18.137 -63.855  24.810  1.00  0.00    -0.224 NA
HETATM    3  C   UNL     1     -17.507 -66.505  24.645  1.00  0.00     0.133 A 
HETATM    4  C   UNL     1     -16.896 -65.633  23.767  1.00  0.00     0.100 A 
HETATM    5  C   UNL     1     -17.250 -64.302  23.891  1.00  0.00     0.133 A 
HETATM    6  C   UNL     1     -18.665 -64.803  25.608  1.00  0.00     0.237 A 
ENDROOT
BRANCH   3   7
HETATM    7  N   UNL     1     -17.168 -67.877  24.544  1.00  0.00    -0.341 N 
HETATM    8  H   UNL     1     -16.539 -68.193  25.277  1.00  0.00     0.167 HD
BRANCH   7   9
HETATM    9  C   UNL     1     -17.540 -68.881  23.635  1.00  0.00     0.035 A 
HETATM   10  C   UNL     1     -17.986 -70.121  24.099  1.00  0.00     0.059 A 
HETATM   11  C   UNL     1     -18.356 -71.117  23.195  1.00  0.00     0.036 A 
HETATM   12  C   UNL     1     -18.281 -70.876  21.823  1.00  0.00     0.029 A 
HETATM   13  C   UNL     1     -17.837 -69.640  21.355  1.00  0.00     0.004 A 
HETATM   14  C   UNL     1     -17.466 -68.645  22.259  1.00  0.00     0.029 A 
BRANCH  11  15
HETATM   15  N   UNL     1     -18.802 -72.354  23.663  1.00  0.00    -0.327 N 
HETATM   16  C   UNL     1     -20.107 -72.733  23.986  1.00  0.00     0.226 C 
HETATM   17  O   UNL     1     -21.123 -72.053  23.922  1.00  0.00    -0.273 OA
HETATM   18  H   UNL     1     -18.077 -73.058  23.785  1.00  0.00     0.169 HD
BRANCH  16  19
HETATM   19  C   UNL     1     -20.226 -74.147  24.460  1.00  0.00     0.078 A 
HETATM   20  C   UNL     1     -19.240 -74.643  25.458  1.00  0.00     0.015 A 
HETATM   21  C   UNL     1     -19.184 -75.123  24.038  1.00  0.00     0.015 A 
ENDBRANCH  16  19
ENDBRANCH  11  15
ENDBRANCH   7   9
ENDBRANCH   3   7
BRANCH   5  22
HETATM   22  N   UNL     1     -16.648 -63.379  23.014  1.00  0.00    -0.341 N 
HETATM   23  H   UNL     1     -15.788 -63.731  22.601  1.00  0.00     0.167 HD
BRANCH  22  24
HETATM   24  C   UNL     1     -16.803 -61.989  22.838  1.00  0.00     0.034 A 
HETATM   25  C   UNL     1     -15.862 -61.108  23.372  1.00  0.00     0.045 A 
HETATM   26  C   UNL     1     -16.015 -59.733  23.196  1.00  0.00     0.050 A 
HETATM   27  C   UNL     1     -17.109 -59.238  22.486  1.00  0.00     0.016 A 
HETATM   28  C   UNL     1     -18.050 -60.118  21.952  1.00  0.00     0.003 A 
HETATM   29  C   UNL     1     -17.897 -61.494  22.128  1.00  0.00     0.029 A 
BRANCH  26  30
HETATM   30  C   UNL     1     -15.009 -58.791  23.767  1.00  0.00     0.417 C 
HETATM   31  F   UNL     1     -13.841 -58.744  23.062  1.00  0.00    -0.166 F 
HETATM   32  F   UNL     1     -15.444 -57.498  23.824  1.00  0.00    -0.166 F 
HETATM   33  F   UNL     1     -14.653 -59.115  25.045  1.00  0.00    -0.166 F 
ENDBRANCH  26  30
ENDBRANCH  22  24
ENDBRANCH   5  22
TORSDOF 7
ENDMDL
MODEL 5
REMARK VINA RESULT:      -6.3      5.278     10.654
REMARK  7 active torsions:
REMARK  status: ('A' for Active; 'I' for Inactive)
REMARK       I    between atoms: N_5  and  C_13 
REMARK    1  A    between atoms: N_5  and  C_14 
REMARK    2  A    between atoms: N_6  and  C_17 
REMARK    3  A    between atoms: N_6  and  C_20 
REMARK    4  A    between atoms: N_7  and  C_21 
REMARK    5  A    between atoms: N_7  and  C_23 
REMARK    6  A    between atoms: C_10  and  C_13 
REMARK    7  A    between atoms: C_24  and  C_29 
ROOT
HETATM    1  N   UNL     1     -18.976 -64.588  23.434  1.00  0.00    -0.224 NA
HETATM    2  N   UNL     1     -19.028 -66.894  24.131  1.00  0.00    -0.224 NA
HETATM    3  C   UNL     1     -17.809 -64.843  22.807  1.00  0.00     0.133 A 
HETATM    4  C   UNL     1     -17.198 -66.081  22.797  1.00  0.00     0.100 A 
HETATM    5  C   UNL     1     -17.856 -67.086  23.482  1.00  0.00     0.133 A 
HETATM    6  C   UNL     1     -19.523 -65.643  24.067  1.00  0.00     0.237 A 
ENDROOT
BRANCH   3   7
HETATM    7  N   UNL     1     -17.162 -63.790  22.115  1.00  0.00    -0.341 N 
HETATM    8  H   UNL     1     -16.292 -64.071  21.672  1.00  0.00     0.167 HD
BRANCH   7   9
HETATM    9  C   UNL     1     -17.494 -62.439  21.919  1.00  0.00     0.035 A 
HETATM   10  C   UNL     1     -17.042 -61.466  22.814  1.00  0.00     0.059 A 
HETATM   11  C   UNL     1     -17.371 -60.126  22.618  1.00  0.00     0.036 A 
HETATM   12  C   UNL     1     -18.154 -59.752  21.526  1.00  0.00     0.029 A 
HETATM   13  C   UNL     1     -18.608 -60.719  20.629  1.00  0.00     0.004 A 
HETATM   14  C   UNL     1     -18.279 -62.061  20.826  1.00  0.00     0.029 A 
BRANCH  11  15
HETATM   15  N   UNL     1     -16.917 -59.157  23.514  1.00  0.00    -0.327 N 
HETATM   16  C   UNL     1     -15.623 -58.650  23.652  1.00  0.00     0.226 C 
HETATM   17  O   UNL     1     -14.625 -58.955  23.011  1.00  0.00    -0.273 OA
HETATM   18  H   UNL     1     -17.623 -58.784  24.145  1.00  0.00     0.169 HD
BRANCH  16  19
HETATM   19  C   UNL     1     -15.489 -57.612  24.722  1.00  0.00     0.078 A 
HETATM   20  C   UNL     1     -16.612 -57.441  25.683  1.00  0.00     0.015 A 
HETATM   21  C   UNL     1     -16.347 -56.399  24.637  1.00  0.00     0.015 A 
ENDBRANCH  16  19
ENDBRANCH  11  15
ENDBRANCH   7   9
ENDBRANCH   3   7
BRANCH   5  22
HETATM   22  N   UNL     1     -17.266 -68.364  23.496  1.00  0.00    -0.341 N 
HETATM   23  H   UNL     1     -16.278 -68.346  23.251  1.00  0.00     0.167 HD
BRANCH  22  24
HETATM   24  C   UNL     1     -17.807 -69.666  23.460  1.00  0.00     0.034 A 
HETATM   25  C   UNL     1     -18.197 -70.293  24.643  1.00  0.00     0.045 A 
HETATM   26  C   UNL     1     -18.734 -71.580  24.607  1.00  0.00     0.050 A 
HETATM   27  C   UNL     1     -18.880 -72.240  23.387  1.00  0.00     0.016 A 
HETATM   28  C   UNL     1     -18.490 -71.614  22.203  1.00  0.00     0.003 A 
HETATM   29  C   UNL     1     -17.953 -70.326  22.240  1.00  0.00     0.029 A 
BRANCH  26  30
HETATM   30  C   UNL     1     -19.151 -72.251  25.872  1.00  0.00     0.417 C 
HETATM   31  F   UNL     1     -20.142 -73.174  25.702  1.00  0.00    -0.166 F 
HETATM   32  F   UNL     1     -18.139 -72.925  26.492  1.00  0.00    -0.166 F 
HETATM   33  F   UNL     1     -19.627 -71.370  26.801  1.00  0.00    -0.166 F 
ENDBRANCH  26  30
ENDBRANCH  22  24
ENDBRANCH   5  22
TORSDOF 7
ENDMDL
MODEL 6
REMARK VINA RESULT:      -6.2      5.507     11.185
REMARK  7 active torsions:
REMARK  status: ('A' for Active; 'I' for Inactive)
REMARK       I    between atoms: N_5  and  C_13 
REMARK    1  A    between atoms: N_5  and  C_14 
REMARK    2  A    between atoms: N_6  and  C_17 
REMARK    3  A    between atoms: N_6  and  C_20 
REMARK    4  A    between atoms: N_7  and  C_21 
REMARK    5  A    between atoms: N_7  and  C_23 
REMARK    6  A    between atoms: C_10  and  C_13 
REMARK    7  A    between atoms: C_24  and  C_29 
ROOT
HETATM    1  N   UNL     1     -19.157 -61.599  23.630  1.00  0.00    -0.224 NA
HETATM    2  N   UNL     1     -18.850 -63.934  24.139  1.00  0.00    -0.224 NA
HETATM    3  C   UNL     1     -17.914 -61.588  23.105  1.00  0.00     0.133 A 
HETATM    4  C   UNL     1     -17.091 -62.695  23.062  1.00  0.00     0.100 A 
HETATM    5  C   UNL     1     -17.612 -63.858  23.599  1.00  0.00     0.133 A 
HETATM    6  C   UNL     1     -19.555 -62.787  24.123  1.00  0.00     0.237 A 
ENDROOT
BRANCH   3   7
HETATM    7  N   UNL     1     -17.412 -60.379  22.565  1.00  0.00    -0.341 N 
HETATM    8  H   UNL     1     -17.782 -60.163  21.643  1.00  0.00     0.167 HD
BRANCH   7   9
HETATM    9  C   UNL     1     -16.509 -59.422  23.059  1.00  0.00     0.035 A 
HETATM   10  C   UNL     1     -16.980 -58.297  23.741  1.00  0.00     0.059 A 
HETATM   11  C   UNL     1     -16.083 -57.349  24.232  1.00  0.00     0.036 A 
HETATM   12  C   UNL     1     -14.711 -57.522  24.043  1.00  0.00     0.029 A 
HETATM   13  C   UNL     1     -14.237 -58.643  23.364  1.00  0.00     0.004 A 
HETATM   14  C   UNL     1     -15.135 -59.591  22.871  1.00  0.00     0.029 A 
BRANCH  11  15
HETATM   15  N   UNL     1     -16.557 -56.227  24.913  1.00  0.00    -0.327 N 
HETATM   16  C   UNL     1     -17.436 -55.246  24.450  1.00  0.00     0.226 C 
HETATM   17  O   UNL     1     -17.969 -55.174  23.351  1.00  0.00    -0.273 OA
HETATM   18  H   UNL     1     -16.208 -56.117  25.863  1.00  0.00     0.169 HD
BRANCH  16  19
HETATM   19  C   UNL     1     -17.733 -54.176  25.454  1.00  0.00     0.078 A 
HETATM   20  C   UNL     1     -16.744 -53.078  25.629  1.00  0.00     0.015 A 
HETATM   21  C   UNL     1     -16.909 -54.124  26.693  1.00  0.00     0.015 A 
ENDBRANCH  16  19
ENDBRANCH  11  15
ENDBRANCH   7   9
ENDBRANCH   3   7
BRANCH   5  22
HETATM   22  N   UNL     1     -16.803 -65.011  23.573  1.00  0.00    -0.341 N 
HETATM   23  H   UNL     1     -15.891 -64.844  23.155  1.00  0.00     0.167 HD
BRANCH  22  24
HETATM   24  C   UNL     1     -17.095 -66.384  23.704  1.00  0.00     0.034 A 
HETATM   25  C   UNL     1     -17.490 -67.123  22.589  1.00  0.00     0.045 A 
HETATM   26  C   UNL     1     -17.777 -68.482  22.718  1.00  0.00     0.050 A 
HETATM   27  C   UNL     1     -17.668 -69.102  23.963  1.00  0.00     0.016 A 
HETATM   28  C   UNL     1     -17.273 -68.364  25.078  1.00  0.00     0.003 A 
HETATM   29  C   UNL     1     -16.986 -67.005  24.948  1.00  0.00     0.029 A 
BRANCH  26  30
HETATM   30  C   UNL     1     -18.200 -69.273  21.526  1.00  0.00     0.417 C 
HETATM   31  F   UNL     1     -18.744 -70.485  21.838  1.00  0.00    -0.166 F 
HETATM   32  F   UNL     1     -19.142 -68.646  20.761  1.00  0.00    -0.166 F 
HETATM   33  F   UNL     1     -17.162 -69.544  20.680  1.00  0.00    -0.166 F 
ENDBRANCH  26  30
ENDBRANCH  22  24
ENDBRANCH   5  22
TORSDOF 7
ENDMDL
MODEL 7
REMARK VINA RESULT:      -6.2      5.414     10.479
REMARK  7 active torsions:
REMARK  status: ('A' for Active; 'I' for Inactive)
REMARK       I    between atoms: N_5  and  C_13 
REMARK    1  A    between atoms: N_5  and  C_14 
REMARK    2  A    between atoms: N_6  and  C_17 
REMARK    3  A    between atoms: N_6  and  C_20 
REMARK    4  A    between atoms: N_7  and  C_21 
REMARK    5  A    between atoms: N_7  and  C_23 
REMARK    6  A    between atoms: C_10  and  C_13 
REMARK    7  A    between atoms: C_24  and  C_29 
ROOT
HETATM    1  N   UNL     1     -18.152 -64.726  24.071  1.00  0.00    -0.224 NA
HETATM    2  N   UNL     1     -18.394 -67.096  24.432  1.00  0.00    -0.224 NA
HETATM    3  C   UNL     1     -17.460 -65.005  22.946  1.00  0.00     0.133 A 
HETATM    4  C   UNL     1     -17.199 -66.287  22.505  1.00  0.00     0.100 A 
HETATM    5  C   UNL     1     -17.693 -67.310  23.294  1.00  0.00     0.133 A 
HETATM    6  C   UNL     1     -18.582 -65.802  24.756  1.00  0.00     0.237 A 
ENDROOT
BRANCH   3   7
HETATM    7  N   UNL     1     -16.968 -63.933  22.163  1.00  0.00    -0.341 N 
HETATM    8  H   UNL     1     -16.152 -64.177  21.609  1.00  0.00     0.167 HD
BRANCH   7   9
HETATM    9  C   UNL     1     -17.394 -62.604  22.001  1.00  0.00     0.035 A 
HETATM   10  C   UNL     1     -16.915 -61.602  22.850  1.00  0.00     0.059 A 
HETATM   11  C   UNL     1     -17.338 -60.283  22.687  1.00  0.00     0.036 A 
HETATM   12  C   UNL     1     -18.241 -59.960  21.674  1.00  0.00     0.029 A 
HETATM   13  C   UNL     1     -18.722 -60.956  20.824  1.00  0.00     0.004 A 
HETATM   14  C   UNL     1     -18.300 -62.276  20.988  1.00  0.00     0.029 A 
BRANCH  11  15
HETATM   15  N   UNL     1     -16.856 -59.286  23.536  1.00  0.00    -0.327 N 
HETATM   16  C   UNL     1     -15.562 -58.765  23.606  1.00  0.00     0.226 C 
HETATM   17  O   UNL     1     -14.590 -59.079  22.933  1.00  0.00    -0.273 OA
HETATM   18  H   UNL     1     -17.540 -58.902  24.185  1.00  0.00     0.169 HD
BRANCH  16  19
HETATM   19  C   UNL     1     -15.395 -57.696  24.640  1.00  0.00     0.078 A 
HETATM   20  C   UNL     1     -16.448 -57.551  25.682  1.00  0.00     0.015 A 
HETATM   21  C   UNL     1     -16.311 -56.524  24.597  1.00  0.00     0.015 A 
ENDBRANCH  16  19
ENDBRANCH  11  15
ENDBRANCH   7   9
ENDBRANCH   3   7
BRANCH   5  22
HETATM   22  N   UNL     1     -17.449 -68.633  22.879  1.00  0.00    -0.341 N 
HETATM   23  H   UNL     1     -16.509 -68.765  22.512  1.00  0.00     0.167 HD
BRANCH  22  24
HETATM   24  C   UNL     1     -18.305 -69.710  22.568  1.00  0.00     0.034 A 
HETATM   25  C   UNL     1     -19.545 -69.469  21.976  1.00  0.00     0.045 A 
HETATM   26  C   UNL     1     -20.389 -70.534  21.668  1.00  0.00     0.050 A 
HETATM   27  C   UNL     1     -19.995 -71.842  21.952  1.00  0.00     0.016 A 
HETATM   28  C   UNL     1     -18.756 -72.084  22.544  1.00  0.00     0.003 A 
HETATM   29  C   UNL     1     -17.911 -71.018  22.852  1.00  0.00     0.029 A 
BRANCH  26  30
HETATM   30  C   UNL     1     -21.716 -70.277  21.035  1.00  0.00     0.417 C 
HETATM   31  F   UNL     1     -21.746 -69.148  20.267  1.00  0.00    -0.166 F 
HETATM   32  F   UNL     1     -22.130 -71.281  20.208  1.00  0.00    -0.166 F 
HETATM   33  F   UNL     1     -22.715 -70.122  21.953  1.00  0.00    -0.166 F 
ENDBRANCH  26  30
ENDBRANCH  22  24
ENDBRANCH   5  22
TORSDOF 7
ENDMDL
MODEL 8
REMARK VINA RESULT:      -6.1      5.600     10.936
REMARK  7 active torsions:
REMARK  status: ('A' for Active; 'I' for Inactive)
REMARK       I    between atoms: N_5  and  C_13 
REMARK    1  A    between atoms: N_5  and  C_14 
REMARK    2  A    between atoms: N_6  and  C_17 
REMARK    3  A    between atoms: N_6  and  C_20 
REMARK    4  A    between atoms: N_7  and  C_21 
REMARK    5  A    between atoms: N_7  and  C_23 
REMARK    6  A    between atoms: C_10  and  C_13 
REMARK    7  A    between atoms: C_24  and  C_29 
ROOT
HETATM    1  N   UNL     1     -18.445 -64.726  24.267  1.00  0.00    -0.224 NA
HETATM    2  N   UNL     1     -18.459 -66.961  25.168  1.00  0.00    -0.224 NA
HETATM    3  C   UNL     1     -17.551 -65.143  23.346  1.00  0.00     0.133 A 
HETATM    4  C   UNL     1     -17.071 -66.435  23.273  1.00  0.00     0.100 A 
HETATM    5  C   UNL     1     -17.562 -67.317  24.219  1.00  0.00     0.133 A 
HETATM    6  C   UNL     1     -18.850 -65.673  25.135  1.00  0.00     0.237 A 
ENDROOT
BRANCH   3   7
HETATM    7  N   UNL     1     -17.069 -64.212  22.394  1.00  0.00    -0.341 N 
HETATM    8  H   UNL     1     -16.616 -64.648  21.595  1.00  0.00     0.167 HD
BRANCH   7   9
HETATM    9  C   UNL     1     -17.101 -62.809  22.338  1.00  0.00     0.035 A 
HETATM   10  C   UNL     1     -17.905 -62.160  21.397  1.00  0.00     0.059 A 
HETATM   11  C   UNL     1     -17.938 -60.767  21.344  1.00  0.00     0.036 A 
HETATM   12  C   UNL     1     -17.167 -60.016  22.232  1.00  0.00     0.029 A 
HETATM   13  C   UNL     1     -16.364 -60.659  23.173  1.00  0.00     0.004 A 
HETATM   14  C   UNL     1     -16.330 -62.053  23.225  1.00  0.00     0.029 A 
BRANCH  11  15
HETATM   15  N   UNL     1     -18.743 -60.123  20.403  1.00  0.00    -0.327 N 
HETATM   16  C   UNL     1     -19.948 -59.451  20.617  1.00  0.00     0.226 C 
HETATM   17  O   UNL     1     -20.540 -59.290  21.676  1.00  0.00    -0.273 OA
HETATM   18  H   UNL     1     -18.404 -60.160  19.444  1.00  0.00     0.169 HD
BRANCH  16  19
HETATM   19  C   UNL     1     -20.549 -58.873  19.373  1.00  0.00     0.078 A 
HETATM   20  C   UNL     1     -20.510 -57.397  19.191  1.00  0.00     0.015 A 
HETATM   21  C   UNL     1     -21.807 -58.087  19.497  1.00  0.00     0.015 A 
ENDBRANCH  16  19
ENDBRANCH  11  15
ENDBRANCH   7   9
ENDBRANCH   3   7
BRANCH   5  22
HETATM   22  N   UNL     1     -17.098 -68.646  24.178  1.00  0.00    -0.341 N 
HETATM   23  H   UNL     1     -16.098 -68.720  24.349  1.00  0.00     0.167 HD
BRANCH  22  24
HETATM   24  C   UNL     1     -17.645 -69.832  23.647  1.00  0.00     0.034 A 
HETATM   25  C   UNL     1     -18.253 -70.761  24.492  1.00  0.00     0.045 A 
HETATM   26  C   UNL     1     -18.795 -71.933  23.965  1.00  0.00     0.050 A 
HETATM   27  C   UNL     1     -18.728 -72.177  22.593  1.00  0.00     0.016 A 
HETATM   28  C   UNL     1     -18.120 -71.249  21.748  1.00  0.00     0.003 A 
HETATM   29  C   UNL     1     -17.579 -70.076  22.275  1.00  0.00     0.029 A 
BRANCH  26  30
HETATM   30  C   UNL     1     -19.445 -72.926  24.868  1.00  0.00     0.417 C 
HETATM   31  F   UNL     1     -19.338 -72.614  26.193  1.00  0.00    -0.166 F 
HETATM   32  F   UNL     1     -20.784 -73.073  24.645  1.00  0.00    -0.166 F 
HETATM   33  F   UNL     1     -18.913 -74.178  24.742  1.00  0.00    -0.166 F 
ENDBRANCH  26  30
ENDBRANCH  22  24
ENDBRANCH   5  22
TORSDOF 7
ENDMDL
MODEL 9
REMARK VINA RESULT:      -6.0      6.483     10.471
REMARK  7 active torsions:
REMARK  status: ('A' for Active; 'I' for Inactive)
REMARK       I    between atoms: N_5  and  C_13 
REMARK    1  A    between atoms: N_5  and  C_14 
REMARK    2  A    between atoms: N_6  and  C_17 
REMARK    3  A    between atoms: N_6  and  C_20 
REMARK    4  A    between atoms: N_7  and  C_21 
REMARK    5  A    between atoms: N_7  and  C_23 
REMARK    6  A    between atoms: C_10  and  C_13 
REMARK    7  A    between atoms: C_24  and  C_29 
ROOT
HETATM    1  N   UNL     1     -20.168 -62.700  23.116  1.00  0.00    -0.224 NA
HETATM    2  N   UNL     1     -18.311 -62.629  24.649  1.00  0.00    -0.224 NA
HETATM    3  C   UNL     1     -19.522 -61.797  22.349  1.00  0.00     0.133 A 
HETATM    4  C   UNL     1     -18.285 -61.271  22.661  1.00  0.00     0.100 A 
HETATM    5  C   UNL     1     -17.714 -61.725  23.837  1.00  0.00     0.133 A 
HETATM    6  C   UNL     1     -19.515 -63.066  24.235  1.00  0.00     0.237 A 
ENDROOT
BRANCH   3   7
HETATM    7  N   UNL     1     -20.136 -61.353  21.152  1.00  0.00    -0.341 N 
HETATM    8  H   UNL     1     -20.477 -62.111  20.567  1.00  0.00     0.167 HD
BRANCH   7   9
HETATM    9  C   UNL     1     -20.369 -60.073  20.625  1.00  0.00     0.035 A 
HETATM   10  C   UNL     1     -20.076 -59.798  19.286  1.00  0.00     0.059 A 
HETATM   11  C   UNL     1     -20.309 -58.527  18.763  1.00  0.00     0.036 A 
HETATM   12  C   UNL     1     -20.837 -57.524  19.576  1.00  0.00     0.029 A 
HETATM   13  C   UNL     1     -21.132 -57.793  20.912  1.00  0.00     0.004 A 
HETATM   14  C   UNL     1     -20.898 -59.064  21.436  1.00  0.00     0.029 A 
BRANCH  11  15
HETATM   15  N   UNL     1     -20.015 -58.258  17.426  1.00  0.00    -0.327 N 
HETATM   16  C   UNL     1     -20.905 -58.128  16.357  1.00  0.00     0.226 C 
HETATM   17  O   UNL     1     -22.125 -58.225  16.381  1.00  0.00    -0.273 OA
HETATM   18  H   UNL     1     -19.025 -58.149  17.212  1.00  0.00     0.169 HD
BRANCH  16  19
HETATM   19  C   UNL     1     -20.241 -57.835  15.048  1.00  0.00     0.078 A 
HETATM   20  C   UNL     1     -18.847 -57.316  15.065  1.00  0.00     0.015 A 
HETATM   21  C   UNL     1     -19.985 -56.413  14.690  1.00  0.00     0.015 A 
ENDBRANCH  16  19
ENDBRANCH  11  15
ENDBRANCH   7   9
ENDBRANCH   3   7
BRANCH   5  22
HETATM   22  N   UNL     1     -16.451 -61.214  24.192  1.00  0.00    -0.341 N 
HETATM   23  H   UNL     1     -15.955 -61.809  24.852  1.00  0.00     0.167 HD
BRANCH  22  24
HETATM   24  C   UNL     1     -15.876 -59.930  24.084  1.00  0.00     0.034 A 
HETATM   25  C   UNL     1     -16.531 -58.824  24.624  1.00  0.00     0.045 A 
HETATM   26  C   UNL     1     -15.961 -57.556  24.519  1.00  0.00     0.050 A 
HETATM   27  C   UNL     1     -14.735 -57.394  23.873  1.00  0.00     0.016 A 
HETATM   28  C   UNL     1     -14.080 -58.499  23.333  1.00  0.00     0.003 A 
HETATM   29  C   UNL     1     -14.650 -59.768  23.438  1.00  0.00     0.029 A 
BRANCH  26  30
HETATM   30  C   UNL     1     -16.661 -56.372  25.097  1.00  0.00     0.417 C 
HETATM   31  F   UNL     1     -17.973 -56.279  24.730  1.00  0.00    -0.166 F 
HETATM   32  F   UNL     1     -16.671 -56.356  26.462  1.00  0.00    -0.166 F 
HETATM   33  F   UNL     1     -16.091 -55.189  24.720  1.00  0.00    -0.166 F 
ENDBRANCH  26  30
ENDBRANCH  22  24
ENDBRANCH   5  22
TORSDOF 7
ENDMDL
