MODEL 1
REMARK VINA RESULT:      -6.4      0.000      0.000
REMARK  7 active torsions:
REMARK  status: ('A' for Active; 'I' for Inactive)
REMARK       I    between atoms: N_5  and  C_13 
REMARK    1  A    between atoms: N_5  and  C_14 
REMARK    2  A    between atoms: N_6  and  C_17 
REMARK    3  A    between atoms: N_6  and  C_20 
REMARK    4  A    between atoms: N_7  and  C_21 
REMARK    5  A    between atoms: N_7  and  C_23 
REMARK    6  A    between atoms: C_10  and  C_13 
REMARK    7  A    between atoms: C_24  and  C_29 
ROOT
HETATM    1  N   UNL     1     -19.222 -63.917  22.851  1.00  0.00    -0.224 NA
HETATM    2  N   UNL     1     -19.308 -61.529  22.542  1.00  0.00    -0.224 NA
HETATM    3  C   UNL     1     -17.904 -63.869  22.567  1.00  0.00     0.133 A 
HETATM    4  C   UNL     1     -17.227 -62.705  22.265  1.00  0.00     0.100 A 
HETATM    5  C   UNL     1     -17.984 -61.547  22.265  1.00  0.00     0.133 A 
HETATM    6  C   UNL     1     -19.854 -62.728  22.819  1.00  0.00     0.237 A 
ENDROOT
BRANCH   3   7
HETATM    7  N   UNL     1     -17.159 -65.074  22.575  1.00  0.00    -0.341 N 
HETATM    8  H   UNL     1     -16.448 -65.115  21.850  1.00  0.00     0.167 HD
BRANCH   7   9
HETATM    9  C   UNL     1     -17.211 -66.214  23.393  1.00  0.00     0.035 A 
HETATM   10  C   UNL     1     -17.915 -67.348  22.977  1.00  0.00     0.059 A 
HETATM   11  C   UNL     1     -17.965 -68.480  23.789  1.00  0.00     0.036 A 
HETATM   12  C   UNL     1     -17.310 -68.485  25.021  1.00  0.00     0.029 A 
HETATM   13  C   UNL     1     -16.606 -67.356  25.440  1.00  0.00     0.004 A 
HETATM   14  C   UNL     1     -16.558 -66.223  24.628  1.00  0.00     0.029 A 
BRANCH  11  15
HETATM   15  N   UNL     1     -18.668 -69.610  23.369  1.00  0.00    -0.327 N 
HETATM   16  C   UNL     1     -18.243 -70.616  22.498  1.00  0.00     0.226 C 
HETATM   17  O   UNL     1     -17.163 -70.707  21.928  1.00  0.00    -0.273 OA
HETATM   18  H   UNL     1     -19.610 -69.700  23.746  1.00  0.00     0.169 HD
BRANCH  16  19
HETATM   19  C   UNL     1     -19.261 -71.688  22.267  1.00  0.00     0.078 A 
HETATM   20  C   UNL     1     -20.125 -72.098  23.406  1.00  0.00     0.015 A 
HETATM   21  C   UNL     1     -19.046 -73.014  22.907  1.00  0.00     0.015 A 
ENDBRANCH  16  19
ENDBRANCH  11  15
ENDBRANCH   7   9
ENDBRANCH   3   7
BRANCH   5  22
HETATM   22  N   UNL     1     -17.330 -60.337  21.963  1.00  0.00    -0.341 N 
HETATM   23  H   UNL     1     -17.208 -60.193  20.963  1.00  0.00     0.167 HD
BRANCH  22  24
HETATM   24  C   UNL     1     -16.541 -59.459  22.735  1.00  0.00     0.034 A 
HETATM   25  C   UNL     1     -17.141 -58.408  23.429  1.00  0.00     0.045 A 
HETATM   26  C   UNL     1     -16.360 -57.542  24.193  1.00  0.00     0.050 A 
HETATM   27  C   UNL     1     -14.979 -57.726  24.264  1.00  0.00     0.016 A 
HETATM   28  C   UNL     1     -14.379 -58.776  23.570  1.00  0.00     0.003 A 
HETATM   29  C   UNL     1     -15.160 -59.643  22.806  1.00  0.00     0.029 A 
BRANCH  26  30
HETATM   30  C   UNL     1     -17.001 -56.417  24.936  1.00  0.00     0.417 C 
HETATM   31  F   UNL     1     -16.653 -55.183  24.467  1.00  0.00    -0.166 F 
HETATM   32  F   UNL     1     -18.365 -56.443  24.894  1.00  0.00    -0.166 F 
HETATM   33  F   UNL     1     -16.675 -56.411  26.262  1.00  0.00    -0.166 F 
ENDBRANCH  26  30
ENDBRANCH  22  24
ENDBRANCH   5  22
TORSDOF 7
ENDMDL
MODEL 2
REMARK VINA RESULT:      -6.2      2.729      4.011
REMARK  7 active torsions:
REMARK  status: ('A' for Active; 'I' for Inactive)
REMARK       I    between atoms: N_5  and  C_13 
REMARK    1  A    between atoms: N_5  and  C_14 
REMARK    2  A    between atoms: N_6  and  C_17 
REMARK    3  A    between atoms: N_6  and  C_20 
REMARK    4  A    between atoms: N_7  and  C_21 
REMARK    5  A    between atoms: N_7  and  C_23 
REMARK    6  A    between atoms: C_10  and  C_13 
REMARK    7  A    between atoms: C_24  and  C_29 
ROOT
HETATM    1  N   UNL     1     -19.252 -66.775  23.256  1.00  0.00    -0.224 NA
HETATM    2  N   UNL     1     -18.762 -64.441  23.599  1.00  0.00    -0.224 NA
HETATM    3  C   UNL     1     -17.998 -66.931  22.782  1.00  0.00     0.133 A 
HETATM    4  C   UNL     1     -17.081 -65.903  22.687  1.00  0.00     0.100 A 
HETATM    5  C   UNL     1     -17.518 -64.662  23.113  1.00  0.00     0.133 A 
HETATM    6  C   UNL     1     -19.563 -65.523  23.640  1.00  0.00     0.237 A 
ENDROOT
BRANCH   3   7
HETATM    7  N   UNL     1     -17.585 -68.216  22.353  1.00  0.00    -0.341 N 
HETATM    8  H   UNL     1     -16.869 -68.192  21.632  1.00  0.00     0.167 HD
BRANCH   7   9
HETATM    9  C   UNL     1     -17.968 -69.512  22.737  1.00  0.00     0.035 A 
HETATM   10  C   UNL     1     -17.861 -69.912  24.072  1.00  0.00     0.059 A 
HETATM   11  C   UNL     1     -18.242 -71.198  24.452  1.00  0.00     0.036 A 
HETATM   12  C   UNL     1     -18.734 -72.090  23.498  1.00  0.00     0.029 A 
HETATM   13  C   UNL     1     -18.844 -71.696  22.165  1.00  0.00     0.004 A 
HETATM   14  C   UNL     1     -18.460 -70.409  21.785  1.00  0.00     0.029 A 
BRANCH  11  15
HETATM   15  N   UNL     1     -18.134 -71.593  25.786  1.00  0.00    -0.327 N 
HETATM   16  C   UNL     1     -19.096 -71.495  26.794  1.00  0.00     0.226 C 
HETATM   17  O   UNL     1     -20.230 -71.043  26.707  1.00  0.00    -0.273 OA
HETATM   18  H   UNL     1     -17.237 -71.995  26.048  1.00  0.00     0.169 HD
BRANCH  16  19
HETATM   19  C   UNL     1     -18.640 -72.020  28.119  1.00  0.00     0.078 A 
HETATM   20  C   UNL     1     -18.301 -73.465  28.227  1.00  0.00     0.015 A 
HETATM   21  C   UNL     1     -19.549 -72.932  28.867  1.00  0.00     0.015 A 
ENDBRANCH  16  19
ENDBRANCH  11  15
ENDBRANCH   7   9
ENDBRANCH   3   7
BRANCH   5  22
HETATM   22  N   UNL     1     -16.612 -63.587  23.034  1.00  0.00    -0.341 N 
HETATM   23  H   UNL     1     -15.722 -63.785  23.486  1.00  0.00     0.167 HD
BRANCH  22  24
HETATM   24  C   UNL     1     -16.781 -62.215  22.754  1.00  0.00     0.034 A 
HETATM   25  C   UNL     1     -15.904 -61.277  23.300  1.00  0.00     0.045 A 
HETATM   26  C   UNL     1     -16.071 -59.921  23.021  1.00  0.00     0.050 A 
HETATM   27  C   UNL     1     -17.115 -59.502  22.197  1.00  0.00     0.016 A 
HETATM   28  C   UNL     1     -17.993 -60.439  21.651  1.00  0.00     0.003 A 
HETATM   29  C   UNL     1     -17.825 -61.795  21.929  1.00  0.00     0.029 A 
BRANCH  26  30
HETATM   30  C   UNL     1     -15.134 -58.918  23.605  1.00  0.00     0.417 C 
HETATM   31  F   UNL     1     -15.652 -57.657  23.669  1.00  0.00    -0.166 F 
HETATM   32  F   UNL     1     -14.748 -59.210  24.882  1.00  0.00    -0.166 F 
HETATM   33  F   UNL     1     -13.976 -58.802  22.890  1.00  0.00    -0.166 F 
ENDBRANCH  26  30
ENDBRANCH  22  24
ENDBRANCH   5  22
TORSDOF 7
ENDMDL
MODEL 3
REMARK VINA RESULT:      -6.2      5.796     11.182
REMARK  7 active torsions:
REMARK  status: ('A' for Active; 'I' for Inactive)
REMARK       I    between atoms: N_5  and  C_13 
REMARK    1  A    between atoms: N_5  and  C_14 
REMARK    2  A    between atoms: N_6  and  C_17 
REMARK    3  A    between atoms: N_6  and  C_20 
REMARK    4  A    between atoms: N_7  and  C_21 
REMARK    5  A    between atoms: N_7  and  C_23 
REMARK    6  A    between atoms: C_10  and  C_13 
REMARK    7  A    between atoms: C_24  and  C_29 
ROOT
HETATM    1  N   UNL     1     -18.370 -64.919  23.923  1.00  0.00    -0.224 NA
HETATM    2  N   UNL     1     -18.535 -67.291  24.313  1.00  0.00    -0.224 NA
HETATM    3  C   UNL     1     -17.490 -65.180  22.934  1.00  0.00     0.133 A 
HETATM    4  C   UNL     1     -17.090 -66.453  22.581  1.00  0.00     0.100 A 
HETATM    5  C   UNL     1     -17.648 -67.487  23.310  1.00  0.00     0.133 A 
HETATM    6  C   UNL     1     -18.845 -66.005  24.562  1.00  0.00     0.237 A 
ENDROOT
BRANCH   3   7
HETATM    7  N   UNL     1     -16.937 -64.096  22.209  1.00  0.00    -0.341 N 
HETATM    8  H   UNL     1     -16.077 -64.332  21.721  1.00  0.00     0.167 HD
BRANCH   7   9
HETATM    9  C   UNL     1     -17.352 -62.766  22.029  1.00  0.00     0.035 A 
HETATM   10  C   UNL     1     -16.875 -61.760  22.873  1.00  0.00     0.059 A 
HETATM   11  C   UNL     1     -17.286 -60.440  22.692  1.00  0.00     0.036 A 
HETATM   12  C   UNL     1     -18.176 -60.120  21.667  1.00  0.00     0.029 A 
HETATM   13  C   UNL     1     -18.655 -61.120  20.821  1.00  0.00     0.004 A 
HETATM   14  C   UNL     1     -18.244 -62.441  21.003  1.00  0.00     0.029 A 
BRANCH  11  15
HETATM   15  N   UNL     1     -16.807 -59.438  23.537  1.00  0.00    -0.327 N 
HETATM   16  C   UNL     1     -15.528 -58.876  23.569  1.00  0.00     0.226 C 
HETATM   17  O   UNL     1     -14.570 -59.151  22.858  1.00  0.00    -0.273 OA
HETATM   18  H   UNL     1     -17.479 -59.083  24.215  1.00  0.00     0.169 HD
BRANCH  16  19
HETATM   19  C   UNL     1     -15.359 -57.815  24.611  1.00  0.00     0.078 A 
HETATM   20  C   UNL     1     -16.290 -57.810  25.771  1.00  0.00     0.015 A 
HETATM   21  C   UNL     1     -16.398 -56.754  24.711  1.00  0.00     0.015 A 
ENDBRANCH  16  19
ENDBRANCH  11  15
ENDBRANCH   7   9
ENDBRANCH   3   7
BRANCH   5  22
HETATM   22  N   UNL     1     -17.266 -68.801  22.980  1.00  0.00    -0.341 N 
HETATM   23  H   UNL     1     -16.459 -68.834  22.360  1.00  0.00     0.167 HD
BRANCH  22  24
HETATM   24  C   UNL     1     -17.937 -70.039  23.059  1.00  0.00     0.034 A 
HETATM   25  C   UNL     1     -18.101 -70.668  24.293  1.00  0.00     0.045 A 
HETATM   26  C   UNL     1     -18.766 -71.891  24.371  1.00  0.00     0.050 A 
HETATM   27  C   UNL     1     -19.268 -72.486  23.213  1.00  0.00     0.016 A 
HETATM   28  C   UNL     1     -19.104 -71.859  21.978  1.00  0.00     0.003 A 
HETATM   29  C   UNL     1     -18.438 -70.635  21.901  1.00  0.00     0.029 A 
BRANCH  26  30
HETATM   30  C   UNL     1     -18.941 -72.563  25.691  1.00  0.00     0.417 C 
HETATM   31  F   UNL     1     -20.121 -72.259  26.308  1.00  0.00    -0.166 F 
HETATM   32  F   UNL     1     -18.920 -73.926  25.616  1.00  0.00    -0.166 F 
HETATM   33  F   UNL     1     -17.964 -72.229  26.584  1.00  0.00    -0.166 F 
ENDBRANCH  26  30
ENDBRANCH  22  24
ENDBRANCH   5  22
TORSDOF 7
ENDMDL
MODEL 4
REMARK VINA RESULT:      -6.1      1.667      2.170
REMARK  7 active torsions:
REMARK  status: ('A' for Active; 'I' for Inactive)
REMARK       I    between atoms: N_5  and  C_13 
REMARK    1  A    between atoms: N_5  and  C_14 
REMARK    2  A    between atoms: N_6  and  C_17 
REMARK    3  A    between atoms: N_6  and  C_20 
REMARK    4  A    between atoms: N_7  and  C_21 
REMARK    5  A    between atoms: N_7  and  C_23 
REMARK    6  A    between atoms: C_10  and  C_13 
REMARK    7  A    between atoms: C_24  and  C_29 
ROOT
HETATM    1  N   UNL     1     -19.735 -63.428  24.049  1.00  0.00    -0.224 NA
HETATM    2  N   UNL     1     -18.563 -61.966  22.534  1.00  0.00    -0.224 NA
HETATM    3  C   UNL     1     -18.628 -63.455  24.820  1.00  0.00     0.133 A 
HETATM    4  C   UNL     1     -17.467 -62.773  24.519  1.00  0.00     0.100 A 
HETATM    5  C   UNL     1     -17.485 -62.034  23.350  1.00  0.00     0.133 A 
HETATM    6  C   UNL     1     -19.634 -62.675  22.936  1.00  0.00     0.237 A 
ENDROOT
BRANCH   3   7
HETATM    7  N   UNL     1     -18.645 -64.223  26.010  1.00  0.00    -0.341 N 
HETATM    8  H   UNL     1     -19.152 -63.780  26.771  1.00  0.00     0.167 HD
BRANCH   7   9
HETATM    9  C   UNL     1     -18.103 -65.478  26.336  1.00  0.00     0.035 A 
HETATM   10  C   UNL     1     -17.844 -66.416  25.332  1.00  0.00     0.059 A 
HETATM   11  C   UNL     1     -17.305 -67.660  25.657  1.00  0.00     0.036 A 
HETATM   12  C   UNL     1     -17.021 -67.972  26.987  1.00  0.00     0.029 A 
HETATM   13  C   UNL     1     -17.277 -67.039  27.992  1.00  0.00     0.004 A 
HETATM   14  C   UNL     1     -17.817 -65.795  27.667  1.00  0.00     0.029 A 
BRANCH  11  15
HETATM   15  N   UNL     1     -17.048 -68.593  24.652  1.00  0.00    -0.327 N 
HETATM   16  C   UNL     1     -17.938 -69.497  24.067  1.00  0.00     0.226 C 
HETATM   17  O   UNL     1     -19.126 -69.650  24.321  1.00  0.00    -0.273 OA
HETATM   18  H   UNL     1     -16.088 -68.613  24.314  1.00  0.00     0.169 HD
BRANCH  16  19
HETATM   19  C   UNL     1     -17.320 -70.357  23.010  1.00  0.00     0.078 A 
HETATM   20  C   UNL     1     -17.485 -69.955  21.587  1.00  0.00     0.015 A 
HETATM   21  C   UNL     1     -18.222 -71.145  22.126  1.00  0.00     0.015 A 
ENDBRANCH  16  19
ENDBRANCH  11  15
ENDBRANCH   7   9
ENDBRANCH   3   7
BRANCH   5  22
HETATM   22  N   UNL     1     -16.319 -61.323  23.006  1.00  0.00    -0.341 N 
HETATM   23  H   UNL     1     -15.598 -61.917  22.604  1.00  0.00     0.167 HD
BRANCH  22  24
HETATM   24  C   UNL     1     -15.826 -60.058  23.387  1.00  0.00     0.034 A 
HETATM   25  C   UNL     1     -16.612 -59.205  24.162  1.00  0.00     0.045 A 
HETATM   26  C   UNL     1     -16.123 -57.955  24.539  1.00  0.00     0.050 A 
HETATM   27  C   UNL     1     -14.846 -57.557  24.142  1.00  0.00     0.016 A 
HETATM   28  C   UNL     1     -14.060 -58.409  23.367  1.00  0.00     0.003 A 
HETATM   29  C   UNL     1     -14.549 -59.659  22.989  1.00  0.00     0.029 A 
BRANCH  26  30
HETATM   30  C   UNL     1     -16.964 -57.043  25.368  1.00  0.00     0.417 C 
HETATM   31  F   UNL     1     -16.569 -56.968  26.673  1.00  0.00    -0.166 F 
HETATM   32  F   UNL     1     -16.970 -55.752  24.923  1.00  0.00    -0.166 F 
HETATM   33  F   UNL     1     -18.274 -57.425  25.403  1.00  0.00    -0.166 F 
ENDBRANCH  26  30
ENDBRANCH  22  24
ENDBRANCH   5  22
TORSDOF 7
ENDMDL
MODEL 5
REMARK VINA RESULT:      -6.1      5.427     10.870
REMARK  7 active torsions:
REMARK  status: ('A' for Active; 'I' for Inactive)
REMARK       I    between atoms: N_5  and  C_13 
REMARK    1  A    between atoms: N_5  and  C_14 
REMARK    2  A    between atoms: N_6  and  C_17 
REMARK    3  A    between atoms: N_6  and  C_20 
REMARK    4  A    between atoms: N_7  and  C_21 
REMARK    5  A    between atoms: N_7  and  C_23 
REMARK    6  A    between atoms: C_10  and  C_13 
REMARK    7  A    between atoms: C_24  and  C_29 
ROOT
HETATM    1  N   UNL     1     -19.431 -61.651  22.436  1.00  0.00    -0.224 NA
HETATM    2  N   UNL     1     -19.180 -64.021  22.792  1.00  0.00    -0.224 NA
HETATM    3  C   UNL     1     -18.093 -61.572  22.274  1.00  0.00     0.133 A 
HETATM    4  C   UNL     1     -17.246 -62.658  22.355  1.00  0.00     0.100 A 
HETATM    5  C   UNL     1     -17.846 -63.876  22.619  1.00  0.00     0.133 A 
HETATM    6  C   UNL     1     -19.900 -62.888  22.690  1.00  0.00     0.237 A 
ENDROOT
BRANCH   3   7
HETATM    7  N   UNL     1     -17.512 -60.309  22.005  1.00  0.00    -0.341 N 
HETATM    8  H   UNL     1     -17.760 -59.935  21.093  1.00  0.00     0.167 HD
BRANCH   7   9
HETATM    9  C   UNL     1     -16.669 -59.474  22.757  1.00  0.00     0.035 A 
HETATM   10  C   UNL     1     -17.207 -58.444  23.533  1.00  0.00     0.059 A 
HETATM   11  C   UNL     1     -16.369 -57.617  24.280  1.00  0.00     0.036 A 
HETATM   12  C   UNL     1     -14.988 -57.816  24.255  1.00  0.00     0.029 A 
HETATM   13  C   UNL     1     -14.446 -58.843  23.482  1.00  0.00     0.004 A 
HETATM   14  C   UNL     1     -15.285 -59.669  22.734  1.00  0.00     0.029 A 
BRANCH  11  15
HETATM   15  N   UNL     1     -16.911 -56.590  25.054  1.00  0.00    -0.327 N 
HETATM   16  C   UNL     1     -17.185 -56.596  26.424  1.00  0.00     0.226 C 
HETATM   17  O   UNL     1     -17.003 -57.507  27.221  1.00  0.00    -0.273 OA
HETATM   18  H   UNL     1     -17.136 -55.737  24.547  1.00  0.00     0.169 HD
BRANCH  16  19
HETATM   19  C   UNL     1     -17.768 -55.314  26.931  1.00  0.00     0.078 A 
HETATM   20  C   UNL     1     -17.937 -54.188  25.973  1.00  0.00     0.015 A 
HETATM   21  C   UNL     1     -16.877 -54.127  27.033  1.00  0.00     0.015 A 
ENDBRANCH  16  19
ENDBRANCH  11  15
ENDBRANCH   7   9
ENDBRANCH   3   7
BRANCH   5  22
HETATM   22  N   UNL     1     -17.016 -65.009  22.709  1.00  0.00    -0.341 N 
HETATM   23  H   UNL     1     -16.185 -64.938  22.125  1.00  0.00     0.167 HD
BRANCH  22  24
HETATM   24  C   UNL     1     -17.240 -66.323  23.170  1.00  0.00     0.034 A 
HETATM   25  C   UNL     1     -17.397 -67.366  22.257  1.00  0.00     0.045 A 
HETATM   26  C   UNL     1     -17.618 -68.665  22.713  1.00  0.00     0.050 A 
HETATM   27  C   UNL     1     -17.681 -68.922  24.083  1.00  0.00     0.016 A 
HETATM   28  C   UNL     1     -17.524 -67.880  24.996  1.00  0.00     0.003 A 
HETATM   29  C   UNL     1     -17.303 -66.580  24.539  1.00  0.00     0.029 A 
BRANCH  26  30
HETATM   30  C   UNL     1     -17.786 -69.781  21.737  1.00  0.00     0.417 C 
HETATM   31  F   UNL     1     -17.194 -70.947  22.131  1.00  0.00    -0.166 F 
HETATM   32  F   UNL     1     -19.091 -70.107  21.500  1.00  0.00    -0.166 F 
HETATM   33  F   UNL     1     -17.252 -69.494  20.514  1.00  0.00    -0.166 F 
ENDBRANCH  26  30
ENDBRANCH  22  24
ENDBRANCH   5  22
TORSDOF 7
ENDMDL
MODEL 6
REMARK VINA RESULT:      -6.0      1.656      2.230
REMARK  7 active torsions:
REMARK  status: ('A' for Active; 'I' for Inactive)
REMARK       I    between atoms: N_5  and  C_13 
REMARK    1  A    between atoms: N_5  and  C_14 
REMARK    2  A    between atoms: N_6  and  C_17 
REMARK    3  A    between atoms: N_6  and  C_20 
REMARK    4  A    between atoms: N_7  and  C_21 
REMARK    5  A    between atoms: N_7  and  C_23 
REMARK    6  A    between atoms: C_10  and  C_13 
REMARK    7  A    between atoms: C_24  and  C_29 
ROOT
HETATM    1  N   UNL     1     -18.116 -62.068  21.362  1.00  0.00    -0.224 NA
HETATM    2  N   UNL     1     -17.644 -59.812  22.063  1.00  0.00    -0.224 NA
HETATM    3  C   UNL     1     -17.119 -62.488  22.169  1.00  0.00     0.133 A 
HETATM    4  C   UNL     1     -16.352 -61.642  22.943  1.00  0.00     0.100 A 
HETATM    5  C   UNL     1     -16.658 -60.295  22.853  1.00  0.00     0.133 A 
HETATM    6  C   UNL     1     -18.321 -60.737  21.357  1.00  0.00     0.237 A 
ENDROOT
BRANCH   3   7
HETATM    7  N   UNL     1     -16.833 -63.873  22.236  1.00  0.00    -0.341 N 
HETATM    8  H   UNL     1     -16.150 -64.179  21.549  1.00  0.00     0.167 HD
BRANCH   7   9
HETATM    9  C   UNL     1     -17.305 -64.900  23.070  1.00  0.00     0.035 A 
HETATM   10  C   UNL     1     -17.254 -66.231  22.648  1.00  0.00     0.059 A 
HETATM   11  C   UNL     1     -17.722 -67.249  23.478  1.00  0.00     0.036 A 
HETATM   12  C   UNL     1     -18.243 -66.941  24.735  1.00  0.00     0.029 A 
HETATM   13  C   UNL     1     -18.297 -65.614  25.161  1.00  0.00     0.004 A 
HETATM   14  C   UNL     1     -17.829 -64.595  24.330  1.00  0.00     0.029 A 
BRANCH  11  15
HETATM   15  N   UNL     1     -17.668 -68.577  23.052  1.00  0.00    -0.327 N 
HETATM   16  C   UNL     1     -18.474 -69.211  22.104  1.00  0.00     0.226 C 
HETATM   17  O   UNL     1     -19.392 -68.727  21.455  1.00  0.00    -0.273 OA
HETATM   18  H   UNL     1     -16.952 -69.147  23.498  1.00  0.00     0.169 HD
BRANCH  16  19
HETATM   19  C   UNL     1     -18.137 -70.654  21.890  1.00  0.00     0.078 A 
HETATM   20  C   UNL     1     -19.251 -71.639  21.843  1.00  0.00     0.015 A 
HETATM   21  C   UNL     1     -18.328 -71.598  23.025  1.00  0.00     0.015 A 
ENDBRANCH  16  19
ENDBRANCH  11  15
ENDBRANCH   7   9
ENDBRANCH   3   7
BRANCH   5  22
HETATM   22  N   UNL     1     -15.898 -59.398  23.628  1.00  0.00    -0.341 N 
HETATM   23  H   UNL     1     -14.921 -59.673  23.706  1.00  0.00     0.167 HD
BRANCH  22  24
HETATM   24  C   UNL     1     -16.255 -58.404  24.562  1.00  0.00     0.034 A 
HETATM   25  C   UNL     1     -16.381 -57.075  24.154  1.00  0.00     0.045 A 
HETATM   26  C   UNL     1     -16.736 -56.093  25.078  1.00  0.00     0.050 A 
HETATM   27  C   UNL     1     -16.965 -56.438  26.410  1.00  0.00     0.016 A 
HETATM   28  C   UNL     1     -16.839 -57.765  26.818  1.00  0.00     0.003 A 
HETATM   29  C   UNL     1     -16.484 -58.749  25.894  1.00  0.00     0.029 A 
BRANCH  26  30
HETATM   30  C   UNL     1     -16.871 -54.672  24.642  1.00  0.00     0.417 C 
HETATM   31  F   UNL     1     -15.709 -53.961  24.727  1.00  0.00    -0.166 F 
HETATM   32  F   UNL     1     -17.279 -54.535  23.346  1.00  0.00    -0.166 F 
HETATM   33  F   UNL     1     -17.780 -53.979  25.388  1.00  0.00    -0.166 F 
ENDBRANCH  26  30
ENDBRANCH  22  24
ENDBRANCH   5  22
TORSDOF 7
ENDMDL
MODEL 7
REMARK VINA RESULT:      -6.0      4.242      7.010
REMARK  7 active torsions:
REMARK  status: ('A' for Active; 'I' for Inactive)
REMARK       I    between atoms: N_5  and  C_13 
REMARK    1  A    between atoms: N_5  and  C_14 
REMARK    2  A    between atoms: N_6  and  C_17 
REMARK    3  A    between atoms: N_6  and  C_20 
REMARK    4  A    between atoms: N_7  and  C_21 
REMARK    5  A    between atoms: N_7  and  C_23 
REMARK    6  A    between atoms: C_10  and  C_13 
REMARK    7  A    between atoms: C_24  and  C_29 
ROOT
HETATM    1  N   UNL     1     -18.648 -66.963  24.393  1.00  0.00    -0.224 NA
HETATM    2  N   UNL     1     -17.696 -66.108  22.352  1.00  0.00    -0.224 NA
HETATM    3  C   UNL     1     -18.383 -65.774  24.972  1.00  0.00     0.133 A 
HETATM    4  C   UNL     1     -17.785 -64.718  24.314  1.00  0.00     0.100 A 
HETATM    5  C   UNL     1     -17.457 -64.938  22.989  1.00  0.00     0.133 A 
HETATM    6  C   UNL     1     -18.283 -67.061  23.101  1.00  0.00     0.237 A 
ENDROOT
BRANCH   3   7
HETATM    7  N   UNL     1     -18.732 -65.583  26.331  1.00  0.00    -0.341 N 
HETATM    8  H   UNL     1     -19.725 -65.697  26.514  1.00  0.00     0.167 HD
BRANCH   7   9
HETATM    9  C   UNL     1     -17.971 -65.274  27.471  1.00  0.00     0.035 A 
HETATM   10  C   UNL     1     -17.983 -63.978  27.995  1.00  0.00     0.059 A 
HETATM   11  C   UNL     1     -17.229 -63.673  29.128  1.00  0.00     0.036 A 
HETATM   12  C   UNL     1     -16.459 -64.662  29.741  1.00  0.00     0.029 A 
HETATM   13  C   UNL     1     -16.444 -65.956  29.222  1.00  0.00     0.004 A 
HETATM   14  C   UNL     1     -17.198 -66.261  28.088  1.00  0.00     0.029 A 
BRANCH  11  15
HETATM   15  N   UNL     1     -17.244 -62.378  29.648  1.00  0.00    -0.327 N 
HETATM   16  C   UNL     1     -17.052 -61.174  28.968  1.00  0.00     0.226 C 
HETATM   17  O   UNL     1     -16.832 -61.013  27.775  1.00  0.00    -0.273 OA
HETATM   18  H   UNL     1     -17.411 -62.316  30.651  1.00  0.00     0.169 HD
BRANCH  16  19
HETATM   19  C   UNL     1     -17.136 -59.963  29.845  1.00  0.00     0.078 A 
HETATM   20  C   UNL     1     -15.880 -59.231  30.159  1.00  0.00     0.015 A 
HETATM   21  C   UNL     1     -16.564 -60.046  31.216  1.00  0.00     0.015 A 
ENDBRANCH  16  19
ENDBRANCH  11  15
ENDBRANCH   7   9
ENDBRANCH   3   7
BRANCH   5  22
HETATM   22  N   UNL     1     -16.845 -63.885  22.282  1.00  0.00    -0.341 N 
HETATM   23  H   UNL     1     -15.943 -64.145  21.888  1.00  0.00     0.167 HD
BRANCH  22  24
HETATM   24  C   UNL     1     -17.056 -62.491  22.275  1.00  0.00     0.034 A 
HETATM   25  C   UNL     1     -16.187 -61.649  22.969  1.00  0.00     0.045 A 
HETATM   26  C   UNL     1     -16.395 -60.271  22.961  1.00  0.00     0.050 A 
HETATM   27  C   UNL     1     -17.473 -59.732  22.258  1.00  0.00     0.016 A 
HETATM   28  C   UNL     1     -18.343 -60.573  21.564  1.00  0.00     0.003 A 
HETATM   29  C   UNL     1     -18.134 -61.952  21.572  1.00  0.00     0.029 A 
BRANCH  26  30
HETATM   30  C   UNL     1     -15.465 -59.371  23.703  1.00  0.00     0.417 C 
HETATM   31  F   UNL     1     -15.522 -59.523  25.059  1.00  0.00    -0.166 F 
HETATM   32  F   UNL     1     -14.152 -59.555  23.379  1.00  0.00    -0.166 F 
HETATM   33  F   UNL     1     -15.718 -58.049  23.472  1.00  0.00    -0.166 F 
ENDBRANCH  26  30
ENDBRANCH  22  24
ENDBRANCH   5  22
TORSDOF 7
ENDMDL
MODEL 8
REMARK VINA RESULT:      -5.9      2.621      4.151
REMARK  7 active torsions:
REMARK  status: ('A' for Active; 'I' for Inactive)
REMARK       I    between atoms: N_5  and  C_13 
REMARK    1  A    between atoms: N_5  and  C_14 
REMARK    2  A    between atoms: N_6  and  C_17 
REMARK    3  A    between atoms: N_6  and  C_20 
REMARK    4  A    between atoms: N_7  and  C_21 
REMARK    5  A    between atoms: N_7  and  C_23 
REMARK    6  A    between atoms: C_10  and  C_13 
REMARK    7  A    between atoms: C_24  and  C_29 
ROOT
HETATM    1  N   UNL     1     -18.125 -67.223  24.591  1.00  0.00    -0.224 NA
HETATM    2  N   UNL     1     -17.981 -64.852  24.189  1.00  0.00    -0.224 NA
HETATM    3  C   UNL     1     -17.539 -67.424  23.393  1.00  0.00     0.133 A 
HETATM    4  C   UNL     1     -17.151 -66.404  22.548  1.00  0.00     0.100 A 
HETATM    5  C   UNL     1     -17.397 -65.120  22.998  1.00  0.00     0.133 A 
HETATM    6  C   UNL     1     -18.314 -65.931  24.922  1.00  0.00     0.237 A 
ENDROOT
BRANCH   3   7
HETATM    7  N   UNL     1     -17.302 -68.753  22.963  1.00  0.00    -0.341 N 
HETATM    8  H   UNL     1     -16.403 -68.877  22.507  1.00  0.00     0.167 HD
BRANCH   7   9
HETATM    9  C   UNL     1     -18.066 -69.929  23.052  1.00  0.00     0.035 A 
HETATM   10  C   UNL     1     -18.835 -70.353  21.965  1.00  0.00     0.059 A 
HETATM   11  C   UNL     1     -19.591 -71.521  22.054  1.00  0.00     0.036 A 
HETATM   12  C   UNL     1     -19.583 -72.270  23.231  1.00  0.00     0.029 A 
HETATM   13  C   UNL     1     -18.818 -71.850  24.319  1.00  0.00     0.004 A 
HETATM   14  C   UNL     1     -18.062 -70.681  24.230  1.00  0.00     0.029 A 
BRANCH  11  15
HETATM   15  N   UNL     1     -20.357 -71.942  20.965  1.00  0.00    -0.327 N 
HETATM   16  C   UNL     1     -21.735 -71.815  20.781  1.00  0.00     0.226 C 
HETATM   17  O   UNL     1     -22.550 -71.307  21.540  1.00  0.00    -0.273 OA
HETATM   18  H   UNL     1     -19.836 -72.402  20.222  1.00  0.00     0.169 HD
BRANCH  16  19
HETATM   19  C   UNL     1     -22.228 -72.381  19.486  1.00  0.00     0.078 A 
HETATM   20  C   UNL     1     -23.595 -72.967  19.447  1.00  0.00     0.015 A 
HETATM   21  C   UNL     1     -22.389 -73.857  19.379  1.00  0.00     0.015 A 
ENDBRANCH  16  19
ENDBRANCH  11  15
ENDBRANCH   7   9
ENDBRANCH   3   7
BRANCH   5  22
HETATM   22  N   UNL     1     -17.016 -64.050  22.166  1.00  0.00    -0.341 N 
HETATM   23  H   UNL     1     -16.251 -64.290  21.539  1.00  0.00     0.167 HD
BRANCH  22  24
HETATM   24  C   UNL     1     -17.240 -62.659  22.235  1.00  0.00     0.034 A 
HETATM   25  C   UNL     1     -16.347 -61.842  22.929  1.00  0.00     0.045 A 
HETATM   26  C   UNL     1     -16.568 -60.467  22.996  1.00  0.00     0.050 A 
HETATM   27  C   UNL     1     -17.682 -59.908  22.369  1.00  0.00     0.016 A 
HETATM   28  C   UNL     1     -18.575 -60.725  21.676  1.00  0.00     0.003 A 
HETATM   29  C   UNL     1     -18.354 -62.100  21.609  1.00  0.00     0.029 A 
BRANCH  26  30
HETATM   30  C   UNL     1     -15.614 -59.592  23.737  1.00  0.00     0.417 C 
HETATM   31  F   UNL     1     -14.303 -59.848  23.454  1.00  0.00    -0.166 F 
HETATM   32  F   UNL     1     -15.780 -58.261  23.481  1.00  0.00    -0.166 F 
HETATM   33  F   UNL     1     -15.727 -59.721  25.092  1.00  0.00    -0.166 F 
ENDBRANCH  26  30
ENDBRANCH  22  24
ENDBRANCH   5  22
TORSDOF 7
ENDMDL
MODEL 9
REMARK VINA RESULT:      -5.9      6.116     10.910
REMARK  7 active torsions:
REMARK  status: ('A' for Active; 'I' for Inactive)
REMARK       I    between atoms: N_5  and  C_13 
REMARK    1  A    between atoms: N_5  and  C_14 
REMARK    2  A    between atoms: N_6  and  C_17 
REMARK    3  A    between atoms: N_6  and  C_20 
REMARK    4  A    between atoms: N_7  and  C_21 
REMARK    5  A    between atoms: N_7  and  C_23 
REMARK    6  A    between atoms: C_10  and  C_13 
REMARK    7  A    between atoms: C_24  and  C_29 
ROOT
HETATM    1  N   UNL     1     -18.057 -64.567  24.759  1.00  0.00    -0.224 NA
HETATM    2  N   UNL     1     -18.011 -66.801  25.661  1.00  0.00    -0.224 NA
HETATM    3  C   UNL     1     -17.399 -65.031  23.676  1.00  0.00     0.133 A 
HETATM    4  C   UNL     1     -17.019 -66.348  23.516  1.00  0.00     0.100 A 
HETATM    5  C   UNL     1     -17.352 -67.204  24.550  1.00  0.00     0.133 A 
HETATM    6  C   UNL     1     -18.327 -65.492  25.700  1.00  0.00     0.237 A 
ENDROOT
BRANCH   3   7
HETATM    7  N   UNL     1     -17.073 -64.126  22.637  1.00  0.00    -0.341 N 
HETATM    8  H   UNL     1     -16.818 -64.584  21.766  1.00  0.00     0.167 HD
BRANCH   7   9
HETATM    9  C   UNL     1     -17.041 -62.723  22.576  1.00  0.00     0.035 A 
HETATM   10  C   UNL     1     -17.970 -62.031  21.794  1.00  0.00     0.059 A 
HETATM   11  C   UNL     1     -17.938 -60.638  21.736  1.00  0.00     0.036 A 
HETATM   12  C   UNL     1     -16.978 -59.930  22.460  1.00  0.00     0.029 A 
HETATM   13  C   UNL     1     -16.049 -60.617  23.242  1.00  0.00     0.004 A 
HETATM   14  C   UNL     1     -16.080 -62.010  23.299  1.00  0.00     0.029 A 
BRANCH  11  15
HETATM   15  N   UNL     1     -18.868 -59.950  20.954  1.00  0.00    -0.327 N 
HETATM   16  C   UNL     1     -20.184 -59.613  21.278  1.00  0.00     0.226 C 
HETATM   17  O   UNL     1     -20.786 -59.854  22.317  1.00  0.00    -0.273 OA
HETATM   18  H   UNL     1     -18.537 -59.670  20.034  1.00  0.00     0.169 HD
BRANCH  16  19
HETATM   19  C   UNL     1     -20.902 -58.869  20.196  1.00  0.00     0.078 A 
HETATM   20  C   UNL     1     -20.246 -58.751  18.866  1.00  0.00     0.015 A 
HETATM   21  C   UNL     1     -20.356 -57.554  19.764  1.00  0.00     0.015 A 
ENDBRANCH  16  19
ENDBRANCH  11  15
ENDBRANCH   7   9
ENDBRANCH   3   7
BRANCH   5  22
HETATM   22  N   UNL     1     -16.982 -68.557  24.426  1.00  0.00    -0.341 N 
HETATM   23  H   UNL     1     -16.007 -68.723  24.664  1.00  0.00     0.167 HD
BRANCH  22  24
HETATM   24  C   UNL     1     -17.567 -69.648  23.749  1.00  0.00     0.034 A 
HETATM   25  C   UNL     1     -18.167 -70.678  24.473  1.00  0.00     0.045 A 
HETATM   26  C   UNL     1     -18.746 -71.755  23.804  1.00  0.00     0.050 A 
HETATM   27  C   UNL     1     -18.725 -71.804  22.410  1.00  0.00     0.016 A 
HETATM   28  C   UNL     1     -18.124 -70.774  21.686  1.00  0.00     0.003 A 
HETATM   29  C   UNL     1     -17.545 -69.696  22.356  1.00  0.00     0.029 A 
BRANCH  26  30
HETATM   30  C   UNL     1     -19.389 -72.857  24.578  1.00  0.00     0.417 C 
HETATM   31  F   UNL     1     -20.674 -72.586  24.953  1.00  0.00    -0.166 F 
HETATM   32  F   UNL     1     -19.458 -74.037  23.894  1.00  0.00    -0.166 F 
HETATM   33  F   UNL     1     -18.723 -73.143  25.735  1.00  0.00    -0.166 F 
ENDBRANCH  26  30
ENDBRANCH  22  24
ENDBRANCH   5  22
TORSDOF 7
ENDMDL
