MODEL 1
REMARK VINA RESULT:      -6.9      0.000      0.000
REMARK  7 active torsions:
REMARK  status: ('A' for Active; 'I' for Inactive)
REMARK       I    between atoms: N_5  and  C_13 
REMARK    1  A    between atoms: N_5  and  C_14 
REMARK    2  A    between atoms: N_6  and  C_17 
REMARK    3  A    between atoms: N_6  and  C_20 
REMARK    4  A    between atoms: N_7  and  C_21 
REMARK    5  A    between atoms: N_7  and  C_23 
REMARK    6  A    between atoms: C_10  and  C_13 
REMARK    7  A    between atoms: C_24  and  C_29 
ROOT
HETATM    1  N   UNL     1      -7.381 -70.183   8.282  1.00  0.00    -0.224 NA
HETATM    2  N   UNL     1      -6.078 -69.751  10.262  1.00  0.00    -0.224 NA
HETATM    3  C   UNL     1      -8.466 -69.726   8.941  1.00  0.00     0.133 A 
HETATM    4  C   UNL     1      -8.436 -69.271  10.244  1.00  0.00     0.100 A 
HETATM    5  C   UNL     1      -7.202 -69.305  10.868  1.00  0.00     0.133 A 
HETATM    6  C   UNL     1      -6.237 -70.169   8.992  1.00  0.00     0.237 A 
ENDROOT
BRANCH   3   7
HETATM    7  N   UNL     1      -9.714 -69.707   8.272  1.00  0.00    -0.341 N 
HETATM    8  H   UNL     1      -9.932 -68.809   7.848  1.00  0.00     0.167 HD
BRANCH   7   9
HETATM    9  C   UNL     1     -10.700 -70.687   8.076  1.00  0.00     0.035 A 
HETATM   10  C   UNL     1     -10.435 -72.024   8.384  1.00  0.00     0.059 A 
HETATM   11  C   UNL     1     -11.415 -72.997   8.191  1.00  0.00     0.036 A 
HETATM   12  C   UNL     1     -12.667 -72.637   7.689  1.00  0.00     0.029 A 
HETATM   13  C   UNL     1     -12.936 -71.304   7.380  1.00  0.00     0.004 A 
HETATM   14  C   UNL     1     -11.955 -70.331   7.573  1.00  0.00     0.029 A 
BRANCH  11  15
HETATM   15  N   UNL     1     -11.146 -74.331   8.501  1.00  0.00    -0.327 N 
HETATM   16  C   UNL     1     -11.780 -75.140   9.447  1.00  0.00     0.226 C 
HETATM   17  O   UNL     1     -12.701 -74.840  10.194  1.00  0.00    -0.273 OA
HETATM   18  H   UNL     1     -10.389 -74.755   7.970  1.00  0.00     0.169 HD
BRANCH  16  19
HETATM   19  C   UNL     1     -11.233 -76.532   9.516  1.00  0.00     0.078 A 
HETATM   20  C   UNL     1      -9.772 -76.706   9.738  1.00  0.00     0.015 A 
HETATM   21  C   UNL     1     -10.374 -77.008   8.397  1.00  0.00     0.015 A 
ENDBRANCH  16  19
ENDBRANCH  11  15
ENDBRANCH   7   9
ENDBRANCH   3   7
BRANCH   5  22
HETATM   22  N   UNL     1      -7.129 -68.848  12.198  1.00  0.00    -0.341 N 
HETATM   23  H   UNL     1      -6.783 -67.893  12.270  1.00  0.00     0.167 HD
BRANCH  22  24
HETATM   24  C   UNL     1      -7.123 -69.518  13.439  1.00  0.00     0.034 A 
HETATM   25  C   UNL     1      -8.295 -69.610  14.189  1.00  0.00     0.045 A 
HETATM   26  C   UNL     1      -8.288 -70.275  15.415  1.00  0.00     0.050 A 
HETATM   27  C   UNL     1      -7.109 -70.847  15.892  1.00  0.00     0.016 A 
HETATM   28  C   UNL     1      -5.936 -70.755  15.143  1.00  0.00     0.003 A 
HETATM   29  C   UNL     1      -5.943 -70.091  13.916  1.00  0.00     0.029 A 
BRANCH  26  30
HETATM   30  C   UNL     1      -9.542 -70.373  16.218  1.00  0.00     0.417 C 
HETATM   31  F   UNL     1      -9.523 -71.378  17.142  1.00  0.00    -0.166 F 
HETATM   32  F   UNL     1      -9.826 -69.242  16.928  1.00  0.00    -0.166 F 
HETATM   33  F   UNL     1     -10.644 -70.607  15.445  1.00  0.00    -0.166 F 
ENDBRANCH  26  30
ENDBRANCH  22  24
ENDBRANCH   5  22
TORSDOF 7
ENDMDL
MODEL 2
REMARK VINA RESULT:      -6.3     15.927     17.559
REMARK  7 active torsions:
REMARK  status: ('A' for Active; 'I' for Inactive)
REMARK       I    between atoms: N_5  and  C_13 
REMARK    1  A    between atoms: N_5  and  C_14 
REMARK    2  A    between atoms: N_6  and  C_17 
REMARK    3  A    between atoms: N_6  and  C_20 
REMARK    4  A    between atoms: N_7  and  C_21 
REMARK    5  A    between atoms: N_7  and  C_23 
REMARK    6  A    between atoms: C_10  and  C_13 
REMARK    7  A    between atoms: C_24  and  C_29 
ROOT
HETATM    1  N   UNL     1     -19.216 -63.938  22.850  1.00  0.00    -0.224 NA
HETATM    2  N   UNL     1     -19.367 -61.557  22.514  1.00  0.00    -0.224 NA
HETATM    3  C   UNL     1     -17.891 -63.850  22.613  1.00  0.00     0.133 A 
HETATM    4  C   UNL     1     -17.240 -62.667  22.326  1.00  0.00     0.100 A 
HETATM    5  C   UNL     1     -18.033 -61.534  22.287  1.00  0.00     0.133 A 
HETATM    6  C   UNL     1     -19.884 -62.770  22.784  1.00  0.00     0.237 A 
ENDROOT
BRANCH   3   7
HETATM    7  N   UNL     1     -17.109 -65.030  22.661  1.00  0.00    -0.341 N 
HETATM    8  H   UNL     1     -16.355 -65.044  21.980  1.00  0.00     0.167 HD
BRANCH   7   9
HETATM    9  C   UNL     1     -17.172 -66.177  23.469  1.00  0.00     0.035 A 
HETATM   10  C   UNL     1     -17.889 -67.299  23.045  1.00  0.00     0.059 A 
HETATM   11  C   UNL     1     -17.949 -68.438  23.848  1.00  0.00     0.036 A 
HETATM   12  C   UNL     1     -17.293 -68.459  25.079  1.00  0.00     0.029 A 
HETATM   13  C   UNL     1     -16.576 -67.342  25.507  1.00  0.00     0.004 A 
HETATM   14  C   UNL     1     -16.517 -66.203  24.704  1.00  0.00     0.029 A 
BRANCH  11  15
HETATM   15  N   UNL     1     -18.666 -69.556  23.420  1.00  0.00    -0.327 N 
HETATM   16  C   UNL     1     -18.244 -70.571  22.558  1.00  0.00     0.226 C 
HETATM   17  O   UNL     1     -17.158 -70.682  22.004  1.00  0.00    -0.273 OA
HETATM   18  H   UNL     1     -19.614 -69.629  23.783  1.00  0.00     0.169 HD
BRANCH  16  19
HETATM   19  C   UNL     1     -19.277 -71.626  22.313  1.00  0.00     0.078 A 
HETATM   20  C   UNL     1     -20.108 -72.080  23.462  1.00  0.00     0.015 A 
HETATM   21  C   UNL     1     -19.052 -72.980  22.890  1.00  0.00     0.015 A 
ENDBRANCH  16  19
ENDBRANCH  11  15
ENDBRANCH   7   9
ENDBRANCH   3   7
BRANCH   5  22
HETATM   22  N   UNL     1     -17.407 -60.307  21.996  1.00  0.00    -0.341 N 
HETATM   23  H   UNL     1     -17.349 -60.119  20.998  1.00  0.00     0.167 HD
BRANCH  22  24
HETATM   24  C   UNL     1     -16.577 -59.456  22.755  1.00  0.00     0.034 A 
HETATM   25  C   UNL     1     -17.134 -58.410  23.491  1.00  0.00     0.045 A 
HETATM   26  C   UNL     1     -16.313 -57.570  24.242  1.00  0.00     0.050 A 
HETATM   27  C   UNL     1     -14.933 -57.775  24.256  1.00  0.00     0.016 A 
HETATM   28  C   UNL     1     -14.375 -58.820  23.520  1.00  0.00     0.003 A 
HETATM   29  C   UNL     1     -15.197 -59.661  22.769  1.00  0.00     0.029 A 
BRANCH  26  30
HETATM   30  C   UNL     1     -16.909 -56.452  25.029  1.00  0.00     0.417 C 
HETATM   31  F   UNL     1     -16.453 -55.219  24.659  1.00  0.00    -0.166 F 
HETATM   32  F   UNL     1     -18.268 -56.375  24.926  1.00  0.00    -0.166 F 
HETATM   33  F   UNL     1     -16.647 -56.553  26.365  1.00  0.00    -0.166 F 
ENDBRANCH  26  30
ENDBRANCH  22  24
ENDBRANCH   5  22
TORSDOF 7
ENDMDL
MODEL 3
REMARK VINA RESULT:      -6.1     14.922     17.320
REMARK  7 active torsions:
REMARK  status: ('A' for Active; 'I' for Inactive)
REMARK       I    between atoms: N_5  and  C_13 
REMARK    1  A    between atoms: N_5  and  C_14 
REMARK    2  A    between atoms: N_6  and  C_17 
REMARK    3  A    between atoms: N_6  and  C_20 
REMARK    4  A    between atoms: N_7  and  C_21 
REMARK    5  A    between atoms: N_7  and  C_23 
REMARK    6  A    between atoms: C_10  and  C_13 
REMARK    7  A    between atoms: C_24  and  C_29 
ROOT
HETATM    1  N   UNL     1     -19.229 -65.840  24.858  1.00  0.00    -0.224 NA
HETATM    2  N   UNL     1     -18.002 -63.775  25.054  1.00  0.00    -0.224 NA
HETATM    3  C   UNL     1     -18.737 -65.970  23.609  1.00  0.00     0.133 A 
HETATM    4  C   UNL     1     -17.884 -65.058  23.021  1.00  0.00     0.100 A 
HETATM    5  C   UNL     1     -17.543 -63.963  23.795  1.00  0.00     0.133 A 
HETATM    6  C   UNL     1     -18.827 -64.735  25.515  1.00  0.00     0.237 A 
ENDROOT
BRANCH   3   7
HETATM    7  N   UNL     1     -19.108 -67.103  22.844  1.00  0.00    -0.341 N 
HETATM    8  H   UNL     1     -19.901 -66.936  22.231  1.00  0.00     0.167 HD
BRANCH   7   9
HETATM    9  C   UNL     1     -18.589 -68.406  22.766  1.00  0.00     0.035 A 
HETATM   10  C   UNL     1     -18.640 -69.252  23.877  1.00  0.00     0.059 A 
HETATM   11  C   UNL     1     -18.125 -70.545  23.798  1.00  0.00     0.036 A 
HETATM   12  C   UNL     1     -17.557 -70.999  22.608  1.00  0.00     0.029 A 
HETATM   13  C   UNL     1     -17.503 -70.159  21.496  1.00  0.00     0.004 A 
HETATM   14  C   UNL     1     -18.018 -68.864  21.576  1.00  0.00     0.029 A 
BRANCH  11  15
HETATM   15  N   UNL     1     -18.180 -71.387  24.910  1.00  0.00    -0.327 N 
HETATM   16  C   UNL     1     -19.067 -72.439  25.152  1.00  0.00     0.226 C 
HETATM   17  O   UNL     1     -19.977 -72.833  24.434  1.00  0.00    -0.273 OA
HETATM   18  H   UNL     1     -17.486 -71.200  25.631  1.00  0.00     0.169 HD
BRANCH  16  19
HETATM   19  C   UNL     1     -18.838 -73.136  26.457  1.00  0.00     0.078 A 
HETATM   20  C   UNL     1     -19.541 -72.625  27.664  1.00  0.00     0.015 A 
HETATM   21  C   UNL     1     -18.062 -72.425  27.509  1.00  0.00     0.015 A 
ENDBRANCH  16  19
ENDBRANCH  11  15
ENDBRANCH   7   9
ENDBRANCH   3   7
BRANCH   5  22
HETATM   22  N   UNL     1     -16.674 -63.009  23.233  1.00  0.00    -0.341 N 
HETATM   23  H   UNL     1     -15.713 -63.338  23.169  1.00  0.00     0.167 HD
BRANCH  22  24
HETATM   24  C   UNL     1     -16.781 -61.616  23.042  1.00  0.00     0.034 A 
HETATM   25  C   UNL     1     -15.772 -60.768  23.500  1.00  0.00     0.045 A 
HETATM   26  C   UNL     1     -15.877 -59.391  23.310  1.00  0.00     0.050 A 
HETATM   27  C   UNL     1     -16.993 -58.860  22.662  1.00  0.00     0.016 A 
HETATM   28  C   UNL     1     -18.002 -59.706  22.204  1.00  0.00     0.003 A 
HETATM   29  C   UNL     1     -17.896 -61.085  22.394  1.00  0.00     0.029 A 
BRANCH  26  30
HETATM   30  C   UNL     1     -14.798 -58.485  23.799  1.00  0.00     0.417 C 
HETATM   31  F   UNL     1     -14.325 -58.815  25.037  1.00  0.00    -0.166 F 
HETATM   32  F   UNL     1     -13.697 -58.461  22.992  1.00  0.00    -0.166 F 
HETATM   33  F   UNL     1     -15.208 -57.186  23.899  1.00  0.00    -0.166 F 
ENDBRANCH  26  30
ENDBRANCH  22  24
ENDBRANCH   5  22
TORSDOF 7
ENDMDL
MODEL 4
REMARK VINA RESULT:      -6.0     15.235     19.435
REMARK  7 active torsions:
REMARK  status: ('A' for Active; 'I' for Inactive)
REMARK       I    between atoms: N_5  and  C_13 
REMARK    1  A    between atoms: N_5  and  C_14 
REMARK    2  A    between atoms: N_6  and  C_17 
REMARK    3  A    between atoms: N_6  and  C_20 
REMARK    4  A    between atoms: N_7  and  C_21 
REMARK    5  A    between atoms: N_7  and  C_23 
REMARK    6  A    between atoms: C_10  and  C_13 
REMARK    7  A    between atoms: C_24  and  C_29 
ROOT
HETATM    1  N   UNL     1     -19.236 -61.713  23.035  1.00  0.00    -0.224 NA
HETATM    2  N   UNL     1     -18.993 -64.082  23.402  1.00  0.00    -0.224 NA
HETATM    3  C   UNL     1     -17.952 -61.683  22.622  1.00  0.00     0.133 A 
HETATM    4  C   UNL     1     -17.136 -62.796  22.572  1.00  0.00     0.100 A 
HETATM    5  C   UNL     1     -17.712 -63.986  22.978  1.00  0.00     0.133 A 
HETATM    6  C   UNL     1     -19.685 -62.927  23.406  1.00  0.00     0.237 A 
ENDROOT
BRANCH   3   7
HETATM    7  N   UNL     1     -17.394 -60.447  22.214  1.00  0.00    -0.341 N 
HETATM    8  H   UNL     1     -17.677 -60.163  21.281  1.00  0.00     0.167 HD
BRANCH   7   9
HETATM    9  C   UNL     1     -16.535 -59.537  22.853  1.00  0.00     0.035 A 
HETATM   10  C   UNL     1     -17.059 -58.468  23.584  1.00  0.00     0.059 A 
HETATM   11  C   UNL     1     -16.205 -57.567  24.219  1.00  0.00     0.036 A 
HETATM   12  C   UNL     1     -14.823 -57.731  24.126  1.00  0.00     0.029 A 
HETATM   13  C   UNL     1     -14.295 -58.797  23.398  1.00  0.00     0.004 A 
HETATM   14  C   UNL     1     -15.150 -59.698  22.762  1.00  0.00     0.029 A 
BRANCH  11  15
HETATM   15  N   UNL     1     -16.733 -56.501  24.949  1.00  0.00    -0.327 N 
HETATM   16  C   UNL     1     -17.090 -56.474  26.299  1.00  0.00     0.226 C 
HETATM   17  O   UNL     1     -17.010 -57.384  27.115  1.00  0.00    -0.273 OA
HETATM   18  H   UNL     1     -16.876 -55.643  24.421  1.00  0.00     0.169 HD
BRANCH  16  19
HETATM   19  C   UNL     1     -17.627 -55.154  26.758  1.00  0.00     0.078 A 
HETATM   20  C   UNL     1     -16.885 -53.921  26.381  1.00  0.00     0.015 A 
HETATM   21  C   UNL     1     -16.870 -54.409  27.799  1.00  0.00     0.015 A 
ENDBRANCH  16  19
ENDBRANCH  11  15
ENDBRANCH   7   9
ENDBRANCH   3   7
BRANCH   5  22
HETATM   22  N   UNL     1     -16.913 -65.146  22.940  1.00  0.00    -0.341 N 
HETATM   23  H   UNL     1     -16.120 -65.059  22.309  1.00  0.00     0.167 HD
BRANCH  22  24
HETATM   24  C   UNL     1     -17.149 -66.480  23.331  1.00  0.00     0.034 A 
HETATM   25  C   UNL     1     -17.397 -67.457  22.367  1.00  0.00     0.045 A 
HETATM   26  C   UNL     1     -17.628 -68.776  22.754  1.00  0.00     0.050 A 
HETATM   27  C   UNL     1     -17.611 -69.120  24.106  1.00  0.00     0.016 A 
HETATM   28  C   UNL     1     -17.364 -68.143  25.071  1.00  0.00     0.003 A 
HETATM   29  C   UNL     1     -17.132 -66.823  24.683  1.00  0.00     0.029 A 
BRANCH  26  30
HETATM   30  C   UNL     1     -17.893 -69.822  21.723  1.00  0.00     0.417 C 
HETATM   31  F   UNL     1     -19.220 -70.003  21.456  1.00  0.00    -0.166 F 
HETATM   32  F   UNL     1     -17.319 -69.553  20.513  1.00  0.00    -0.166 F 
HETATM   33  F   UNL     1     -17.421 -71.050  22.087  1.00  0.00    -0.166 F 
ENDBRANCH  26  30
ENDBRANCH  22  24
ENDBRANCH   5  22
TORSDOF 7
ENDMDL
MODEL 5
REMARK VINA RESULT:      -5.9     15.399     18.415
REMARK  7 active torsions:
REMARK  status: ('A' for Active; 'I' for Inactive)
REMARK       I    between atoms: N_5  and  C_13 
REMARK    1  A    between atoms: N_5  and  C_14 
REMARK    2  A    between atoms: N_6  and  C_17 
REMARK    3  A    between atoms: N_6  and  C_20 
REMARK    4  A    between atoms: N_7  and  C_21 
REMARK    5  A    between atoms: N_7  and  C_23 
REMARK    6  A    between atoms: C_10  and  C_13 
REMARK    7  A    between atoms: C_24  and  C_29 
ROOT
HETATM    1  N   UNL     1     -19.949 -63.560  24.555  1.00  0.00    -0.224 NA
HETATM    2  N   UNL     1     -19.223 -62.065  22.810  1.00  0.00    -0.224 NA
HETATM    3  C   UNL     1     -18.706 -63.497  25.076  1.00  0.00     0.133 A 
HETATM    4  C   UNL     1     -17.683 -62.750  24.528  1.00  0.00     0.100 A 
HETATM    5  C   UNL     1     -17.996 -62.043  23.381  1.00  0.00     0.133 A 
HETATM    6  C   UNL     1     -20.135 -62.831  23.438  1.00  0.00     0.237 A 
ENDROOT
BRANCH   3   7
HETATM    7  N   UNL     1     -18.420 -64.233  26.251  1.00  0.00    -0.341 N 
HETATM    8  H   UNL     1     -18.599 -63.716  27.107  1.00  0.00     0.167 HD
BRANCH   7   9
HETATM    9  C   UNL     1     -17.944 -65.539  26.459  1.00  0.00     0.035 A 
HETATM   10  C   UNL     1     -17.709 -66.384  25.372  1.00  0.00     0.059 A 
HETATM   11  C   UNL     1     -17.235 -67.679  25.580  1.00  0.00     0.036 A 
HETATM   12  C   UNL     1     -16.995 -68.135  26.877  1.00  0.00     0.029 A 
HETATM   13  C   UNL     1     -17.229 -67.295  27.965  1.00  0.00     0.004 A 
HETATM   14  C   UNL     1     -17.703 -65.999  27.757  1.00  0.00     0.029 A 
BRANCH  11  15
HETATM   15  N   UNL     1     -17.000 -68.520  24.491  1.00  0.00    -0.327 N 
HETATM   16  C   UNL     1     -17.806 -69.556  24.014  1.00  0.00     0.226 C 
HETATM   17  O   UNL     1     -18.883 -69.934  24.456  1.00  0.00    -0.273 OA
HETATM   18  H   UNL     1     -16.128 -68.352  23.994  1.00  0.00     0.169 HD
BRANCH  16  19
HETATM   19  C   UNL     1     -17.244 -70.257  22.816  1.00  0.00     0.078 A 
HETATM   20  C   UNL     1     -17.589 -69.735  21.467  1.00  0.00     0.015 A 
HETATM   21  C   UNL     1     -18.177 -71.028  21.950  1.00  0.00     0.015 A 
ENDBRANCH  16  19
ENDBRANCH  11  15
ENDBRANCH   7   9
ENDBRANCH   3   7
BRANCH   5  22
HETATM   22  N   UNL     1     -16.979 -61.268  22.791  1.00  0.00    -0.341 N 
HETATM   23  H   UNL     1     -16.507 -61.750  22.029  1.00  0.00     0.167 HD
BRANCH  22  24
HETATM   24  C   UNL     1     -16.276 -60.126  23.226  1.00  0.00     0.034 A 
HETATM   25  C   UNL     1     -16.945 -59.114  23.915  1.00  0.00     0.045 A 
HETATM   26  C   UNL     1     -16.248 -57.986  24.346  1.00  0.00     0.050 A 
HETATM   27  C   UNL     1     -14.882 -57.868  24.088  1.00  0.00     0.016 A 
HETATM   28  C   UNL     1     -14.213 -58.879  23.398  1.00  0.00     0.003 A 
HETATM   29  C   UNL     1     -14.910 -60.008  22.968  1.00  0.00     0.029 A 
BRANCH  26  30
HETATM   30  C   UNL     1     -16.963 -56.903  25.083  1.00  0.00     0.417 C 
HETATM   31  F   UNL     1     -18.308 -56.877  24.848  1.00  0.00    -0.166 F 
HETATM   32  F   UNL     1     -16.839 -56.993  26.440  1.00  0.00    -0.166 F 
HETATM   33  F   UNL     1     -16.510 -55.657  24.756  1.00  0.00    -0.166 F 
ENDBRANCH  26  30
ENDBRANCH  22  24
ENDBRANCH   5  22
TORSDOF 7
ENDMDL
MODEL 6
REMARK VINA RESULT:      -5.8     15.589     17.365
REMARK  7 active torsions:
REMARK  status: ('A' for Active; 'I' for Inactive)
REMARK       I    between atoms: N_5  and  C_13 
REMARK    1  A    between atoms: N_5  and  C_14 
REMARK    2  A    between atoms: N_6  and  C_17 
REMARK    3  A    between atoms: N_6  and  C_20 
REMARK    4  A    between atoms: N_7  and  C_21 
REMARK    5  A    between atoms: N_7  and  C_23 
REMARK    6  A    between atoms: C_10  and  C_13 
REMARK    7  A    between atoms: C_24  and  C_29 
ROOT
HETATM    1  N   UNL     1     -19.403 -64.645  22.625  1.00  0.00    -0.224 NA
HETATM    2  N   UNL     1     -19.970 -62.414  21.912  1.00  0.00    -0.224 NA
HETATM    3  C   UNL     1     -18.105 -64.276  22.622  1.00  0.00     0.133 A 
HETATM    4  C   UNL     1     -17.668 -63.012  22.282  1.00  0.00     0.100 A 
HETATM    5  C   UNL     1     -18.652 -62.106  21.929  1.00  0.00     0.133 A 
HETATM    6  C   UNL     1     -20.269 -63.678  22.264  1.00  0.00     0.237 A 
ENDROOT
BRANCH   3   7
HETATM    7  N   UNL     1     -17.124 -65.229  22.988  1.00  0.00    -0.341 N 
HETATM    8  H   UNL     1     -16.190 -64.993  22.665  1.00  0.00     0.167 HD
BRANCH   7   9
HETATM    9  C   UNL     1     -17.193 -66.430  23.713  1.00  0.00     0.035 A 
HETATM   10  C   UNL     1     -17.582 -67.614  23.079  1.00  0.00     0.059 A 
HETATM   11  C   UNL     1     -17.649 -68.806  23.800  1.00  0.00     0.036 A 
HETATM   12  C   UNL     1     -17.327 -68.820  25.157  1.00  0.00     0.029 A 
HETATM   13  C   UNL     1     -16.938 -67.642  25.794  1.00  0.00     0.004 A 
HETATM   14  C   UNL     1     -16.872 -66.449  25.073  1.00  0.00     0.029 A 
BRANCH  11  15
HETATM   15  N   UNL     1     -18.037 -69.986  23.163  1.00  0.00    -0.327 N 
HETATM   16  C   UNL     1     -19.211 -70.719  23.350  1.00  0.00     0.226 C 
HETATM   17  O   UNL     1     -20.138 -70.471  24.110  1.00  0.00    -0.273 OA
HETATM   18  H   UNL     1     -17.372 -70.351  22.485  1.00  0.00     0.169 HD
BRANCH  16  19
HETATM   19  C   UNL     1     -19.303 -71.943  22.494  1.00  0.00     0.078 A 
HETATM   20  C   UNL     1     -20.408 -72.030  21.502  1.00  0.00     0.015 A 
HETATM   21  C   UNL     1     -20.429 -72.887  22.733  1.00  0.00     0.015 A 
ENDBRANCH  16  19
ENDBRANCH  11  15
ENDBRANCH   7   9
ENDBRANCH   3   7
BRANCH   5  22
HETATM   22  N   UNL     1     -18.248 -60.804  21.575  1.00  0.00    -0.341 N 
HETATM   23  H   UNL     1     -17.986 -60.725  20.595  1.00  0.00     0.167 HD
BRANCH  22  24
HETATM   24  C   UNL     1     -17.829 -59.694  22.338  1.00  0.00     0.034 A 
HETATM   25  C   UNL     1     -16.486 -59.553  22.687  1.00  0.00     0.045 A 
HETATM   26  C   UNL     1     -16.073 -58.454  23.440  1.00  0.00     0.050 A 
HETATM   27  C   UNL     1     -17.003 -57.496  23.843  1.00  0.00     0.016 A 
HETATM   28  C   UNL     1     -18.346 -57.636  23.495  1.00  0.00     0.003 A 
HETATM   29  C   UNL     1     -18.759 -58.736  22.742  1.00  0.00     0.029 A 
BRANCH  26  30
HETATM   30  C   UNL     1     -14.637 -58.302  23.813  1.00  0.00     0.417 C 
HETATM   31  F   UNL     1     -13.781 -58.958  22.976  1.00  0.00    -0.166 F 
HETATM   32  F   UNL     1     -14.207 -57.006  23.818  1.00  0.00    -0.166 F 
HETATM   33  F   UNL     1     -14.366 -58.782  25.063  1.00  0.00    -0.166 F 
ENDBRANCH  26  30
ENDBRANCH  22  24
ENDBRANCH   5  22
TORSDOF 7
ENDMDL
MODEL 7
REMARK VINA RESULT:      -5.8     14.988     17.179
REMARK  7 active torsions:
REMARK  status: ('A' for Active; 'I' for Inactive)
REMARK       I    between atoms: N_5  and  C_13 
REMARK    1  A    between atoms: N_5  and  C_14 
REMARK    2  A    between atoms: N_6  and  C_17 
REMARK    3  A    between atoms: N_6  and  C_20 
REMARK    4  A    between atoms: N_7  and  C_21 
REMARK    5  A    between atoms: N_7  and  C_23 
REMARK    6  A    between atoms: C_10  and  C_13 
REMARK    7  A    between atoms: C_24  and  C_29 
ROOT
HETATM    1  N   UNL     1     -21.449 -63.651  20.919  1.00  0.00    -0.224 NA
HETATM    2  N   UNL     1     -20.643 -61.661  19.824  1.00  0.00    -0.224 NA
HETATM    3  C   UNL     1     -20.455 -63.512  21.821  1.00  0.00     0.133 A 
HETATM    4  C   UNL     1     -19.530 -62.489  21.791  1.00  0.00     0.100 A 
HETATM    5  C   UNL     1     -19.668 -61.578  20.759  1.00  0.00     0.133 A 
HETATM    6  C   UNL     1     -21.483 -62.705  19.961  1.00  0.00     0.237 A 
ENDROOT
BRANCH   3   7
HETATM    7  N   UNL     1     -20.343 -64.464  22.864  1.00  0.00    -0.341 N 
HETATM    8  H   UNL     1     -21.185 -64.549  23.427  1.00  0.00     0.167 HD
BRANCH   7   9
HETATM    9  C   UNL     1     -19.297 -65.312  23.264  1.00  0.00     0.035 A 
HETATM   10  C   UNL     1     -19.353 -66.680  22.982  1.00  0.00     0.059 A 
HETATM   11  C   UNL     1     -18.314 -67.521  23.378  1.00  0.00     0.036 A 
HETATM   12  C   UNL     1     -17.214 -66.999  24.059  1.00  0.00     0.029 A 
HETATM   13  C   UNL     1     -17.154 -65.635  24.343  1.00  0.00     0.004 A 
HETATM   14  C   UNL     1     -18.194 -64.794  23.947  1.00  0.00     0.029 A 
BRANCH  11  15
HETATM   15  N   UNL     1     -18.374 -68.886  23.093  1.00  0.00    -0.327 N 
HETATM   16  C   UNL     1     -17.766 -69.574  22.040  1.00  0.00     0.226 C 
HETATM   17  O   UNL     1     -17.057 -69.114  21.154  1.00  0.00    -0.273 OA
HETATM   18  H   UNL     1     -18.938 -69.439  23.735  1.00  0.00     0.169 HD
BRANCH  16  19
HETATM   19  C   UNL     1     -18.043 -71.045  22.037  1.00  0.00     0.078 A 
HETATM   20  C   UNL     1     -19.458 -71.496  21.936  1.00  0.00     0.015 A 
HETATM   21  C   UNL     1     -18.708 -71.638  23.228  1.00  0.00     0.015 A 
ENDBRANCH  16  19
ENDBRANCH  11  15
ENDBRANCH   7   9
ENDBRANCH   3   7
BRANCH   5  22
HETATM   22  N   UNL     1     -18.744 -60.518  20.694  1.00  0.00    -0.341 N 
HETATM   23  H   UNL     1     -18.240 -60.488  19.810  1.00  0.00     0.167 HD
BRANCH  22  24
HETATM   24  C   UNL     1     -18.151 -59.705  21.682  1.00  0.00     0.034 A 
HETATM   25  C   UNL     1     -16.838 -59.946  22.088  1.00  0.00     0.045 A 
HETATM   26  C   UNL     1     -16.251 -59.141  23.064  1.00  0.00     0.050 A 
HETATM   27  C   UNL     1     -16.977 -58.096  23.635  1.00  0.00     0.016 A 
HETATM   28  C   UNL     1     -18.290 -57.855  23.230  1.00  0.00     0.003 A 
HETATM   29  C   UNL     1     -18.876 -58.660  22.253  1.00  0.00     0.029 A 
BRANCH  26  30
HETATM   30  C   UNL     1     -14.847 -59.398  23.499  1.00  0.00     0.417 C 
HETATM   31  F   UNL     1     -14.504 -60.720  23.488  1.00  0.00    -0.166 F 
HETATM   32  F   UNL     1     -13.912 -58.781  22.718  1.00  0.00    -0.166 F 
HETATM   33  F   UNL     1     -14.605 -58.967  24.772  1.00  0.00    -0.166 F 
ENDBRANCH  26  30
ENDBRANCH  22  24
ENDBRANCH   5  22
TORSDOF 7
ENDMDL
MODEL 8
REMARK VINA RESULT:      -5.7     15.121     18.378
REMARK  7 active torsions:
REMARK  status: ('A' for Active; 'I' for Inactive)
REMARK       I    between atoms: N_5  and  C_13 
REMARK    1  A    between atoms: N_5  and  C_14 
REMARK    2  A    between atoms: N_6  and  C_17 
REMARK    3  A    between atoms: N_6  and  C_20 
REMARK    4  A    between atoms: N_7  and  C_21 
REMARK    5  A    between atoms: N_7  and  C_23 
REMARK    6  A    between atoms: C_10  and  C_13 
REMARK    7  A    between atoms: C_24  and  C_29 
ROOT
HETATM    1  N   UNL     1     -18.535 -64.242  24.443  1.00  0.00    -0.224 NA
HETATM    2  N   UNL     1     -18.575 -66.482  25.330  1.00  0.00    -0.224 NA
HETATM    3  C   UNL     1     -17.632 -64.659  23.531  1.00  0.00     0.133 A 
HETATM    4  C   UNL     1     -17.160 -65.954  23.457  1.00  0.00     0.100 A 
HETATM    5  C   UNL     1     -17.668 -66.838  24.391  1.00  0.00     0.133 A 
HETATM    6  C   UNL     1     -18.957 -65.191  25.300  1.00  0.00     0.237 A 
ENDROOT
BRANCH   3   7
HETATM    7  N   UNL     1     -17.132 -63.727  22.590  1.00  0.00    -0.341 N 
HETATM    8  H   UNL     1     -16.990 -64.122  21.664  1.00  0.00     0.167 HD
BRANCH   7   9
HETATM    9  C   UNL     1     -16.803 -62.365  22.688  1.00  0.00     0.035 A 
HETATM   10  C   UNL     1     -17.649 -61.395  22.144  1.00  0.00     0.059 A 
HETATM   11  C   UNL     1     -17.321 -60.043  22.243  1.00  0.00     0.036 A 
HETATM   12  C   UNL     1     -16.146 -59.655  22.887  1.00  0.00     0.029 A 
HETATM   13  C   UNL     1     -15.299 -60.619  23.432  1.00  0.00     0.004 A 
HETATM   14  C   UNL     1     -15.626 -61.972  23.331  1.00  0.00     0.029 A 
BRANCH  11  15
HETATM   15  N   UNL     1     -18.170 -59.077  21.699  1.00  0.00    -0.327 N 
HETATM   16  C   UNL     1     -18.987 -58.170  22.376  1.00  0.00     0.226 C 
HETATM   17  O   UNL     1     -19.123 -58.039  23.585  1.00  0.00    -0.273 OA
HETATM   18  H   UNL     1     -18.192 -59.043  20.682  1.00  0.00     0.169 HD
BRANCH  16  19
HETATM   19  C   UNL     1     -19.771 -57.270  21.471  1.00  0.00     0.078 A 
HETATM   20  C   UNL     1     -19.508 -55.806  21.533  1.00  0.00     0.015 A 
HETATM   21  C   UNL     1     -20.786 -56.369  22.082  1.00  0.00     0.015 A 
ENDBRANCH  16  19
ENDBRANCH  11  15
ENDBRANCH   7   9
ENDBRANCH   3   7
BRANCH   5  22
HETATM   22  N   UNL     1     -17.212 -68.169  24.349  1.00  0.00    -0.341 N 
HETATM   23  H   UNL     1     -16.270 -68.276  24.720  1.00  0.00     0.167 HD
BRANCH  22  24
HETATM   24  C   UNL     1     -17.639 -69.303  23.627  1.00  0.00     0.034 A 
HETATM   25  C   UNL     1     -18.163 -70.405  24.303  1.00  0.00     0.045 A 
HETATM   26  C   UNL     1     -18.586 -71.525  23.587  1.00  0.00     0.050 A 
HETATM   27  C   UNL     1     -18.486 -71.543  22.196  1.00  0.00     0.016 A 
HETATM   28  C   UNL     1     -17.963 -70.441  21.520  1.00  0.00     0.003 A 
HETATM   29  C   UNL     1     -17.539 -69.321  22.236  1.00  0.00     0.029 A 
BRANCH  26  30
HETATM   30  C   UNL     1     -19.146 -72.704  24.310  1.00  0.00     0.417 C 
HETATM   31  F   UNL     1     -18.857 -73.899  23.715  1.00  0.00    -0.166 F 
HETATM   32  F   UNL     1     -18.692 -72.825  25.592  1.00  0.00    -0.166 F 
HETATM   33  F   UNL     1     -20.508 -72.663  24.406  1.00  0.00    -0.166 F 
ENDBRANCH  26  30
ENDBRANCH  22  24
ENDBRANCH   5  22
TORSDOF 7
ENDMDL
MODEL 9
REMARK VINA RESULT:      -5.7     15.227     17.713
REMARK  7 active torsions:
REMARK  status: ('A' for Active; 'I' for Inactive)
REMARK       I    between atoms: N_5  and  C_13 
REMARK    1  A    between atoms: N_5  and  C_14 
REMARK    2  A    between atoms: N_6  and  C_17 
REMARK    3  A    between atoms: N_6  and  C_20 
REMARK    4  A    between atoms: N_7  and  C_21 
REMARK    5  A    between atoms: N_7  and  C_23 
REMARK    6  A    between atoms: C_10  and  C_13 
REMARK    7  A    between atoms: C_24  and  C_29 
ROOT
HETATM    1  N   UNL     1     -18.053 -59.986  22.267  1.00  0.00    -0.224 NA
HETATM    2  N   UNL     1     -16.458 -61.675  22.907  1.00  0.00    -0.224 NA
HETATM    3  C   UNL     1     -18.794 -60.956  21.692  1.00  0.00     0.133 A 
HETATM    4  C   UNL     1     -18.437 -62.290  21.684  1.00  0.00     0.100 A 
HETATM    5  C   UNL     1     -17.245 -62.601  22.312  1.00  0.00     0.133 A 
HETATM    6  C   UNL     1     -16.914 -60.410  22.847  1.00  0.00     0.237 A 
ENDROOT
BRANCH   3   7
HETATM    7  N   UNL     1     -20.009 -60.601  21.057  1.00  0.00    -0.341 N 
HETATM    8  H   UNL     1     -20.731 -61.311  21.139  1.00  0.00     0.167 HD
BRANCH   7   9
HETATM    9  C   UNL     1     -20.407 -59.458  20.345  1.00  0.00     0.035 A 
HETATM   10  C   UNL     1     -19.952 -59.246  19.041  1.00  0.00     0.059 A 
HETATM   11  C   UNL     1     -20.350 -58.111  18.335  1.00  0.00     0.036 A 
HETATM   12  C   UNL     1     -21.205 -57.183  18.930  1.00  0.00     0.029 A 
HETATM   13  C   UNL     1     -21.662 -57.390  20.231  1.00  0.00     0.004 A 
HETATM   14  C   UNL     1     -21.263 -58.525  20.938  1.00  0.00     0.029 A 
BRANCH  11  15
HETATM   15  N   UNL     1     -19.894 -57.904  17.032  1.00  0.00    -0.327 N 
HETATM   16  C   UNL     1     -20.597 -58.068  15.837  1.00  0.00     0.226 C 
HETATM   17  O   UNL     1     -21.759 -58.427  15.693  1.00  0.00    -0.273 OA
HETATM   18  H   UNL     1     -18.925 -57.601  16.955  1.00  0.00     0.169 HD
BRANCH  16  19
HETATM   19  C   UNL     1     -19.794 -57.755  14.613  1.00  0.00     0.078 A 
HETATM   20  C   UNL     1     -18.340 -57.484  14.775  1.00  0.00     0.015 A 
HETATM   21  C   UNL     1     -19.284 -56.367  14.442  1.00  0.00     0.015 A 
ENDBRANCH  16  19
ENDBRANCH  11  15
ENDBRANCH   7   9
ENDBRANCH   3   7
BRANCH   5  22
HETATM   22  N   UNL     1     -16.845 -63.951  22.325  1.00  0.00    -0.341 N 
HETATM   23  H   UNL     1     -16.226 -64.188  21.553  1.00  0.00     0.167 HD
BRANCH  22  24
HETATM   24  C   UNL     1     -17.361 -65.093  22.974  1.00  0.00     0.034 A 
HETATM   25  C   UNL     1     -17.413 -66.314  22.301  1.00  0.00     0.045 A 
HETATM   26  C   UNL     1     -17.921 -67.443  22.944  1.00  0.00     0.050 A 
HETATM   27  C   UNL     1     -18.378 -67.351  24.258  1.00  0.00     0.016 A 
HETATM   28  C   UNL     1     -18.327 -66.130  24.931  1.00  0.00     0.003 A 
HETATM   29  C   UNL     1     -17.818 -65.001  24.288  1.00  0.00     0.029 A 
BRANCH  26  30
HETATM   30  C   UNL     1     -17.977 -68.749  22.225  1.00  0.00     0.417 C 
HETATM   31  F   UNL     1     -19.089 -68.898  21.446  1.00  0.00    -0.166 F 
HETATM   32  F   UNL     1     -16.922 -68.954  21.383  1.00  0.00    -0.166 F 
HETATM   33  F   UNL     1     -17.980 -69.817  23.076  1.00  0.00    -0.166 F 
ENDBRANCH  26  30
ENDBRANCH  22  24
ENDBRANCH   5  22
TORSDOF 7
ENDMDL
