MODEL 1
REMARK VINA RESULT:      -6.2      0.000      0.000
REMARK  7 active torsions:
REMARK  status: ('A' for Active; 'I' for Inactive)
REMARK       I    between atoms: N_5  and  C_13 
REMARK    1  A    between atoms: N_5  and  C_14 
REMARK    2  A    between atoms: N_6  and  C_17 
REMARK    3  A    between atoms: N_6  and  C_20 
REMARK    4  A    between atoms: N_7  and  C_21 
REMARK    5  A    between atoms: N_7  and  C_23 
REMARK    6  A    between atoms: C_10  and  C_13 
REMARK    7  A    between atoms: C_24  and  C_29 
ROOT
HETATM    1  N   UNL     1     -19.297 -63.947  22.994  1.00  0.00    -0.224 NA
HETATM    2  N   UNL     1     -19.332 -61.558  22.681  1.00  0.00    -0.224 NA
HETATM    3  C   UNL     1     -17.993 -63.936  22.651  1.00  0.00     0.133 A 
HETATM    4  C   UNL     1     -17.298 -62.792  22.315  1.00  0.00     0.100 A 
HETATM    5  C   UNL     1     -18.022 -61.614  22.345  1.00  0.00     0.133 A 
HETATM    6  C   UNL     1     -19.897 -62.742  22.987  1.00  0.00     0.237 A 
ENDROOT
BRANCH   3   7
HETATM    7  N   UNL     1     -17.282 -65.161  22.629  1.00  0.00    -0.341 N 
HETATM    8  H   UNL     1     -16.691 -65.272  21.810  1.00  0.00     0.167 HD
BRANCH   7   9
HETATM    9  C   UNL     1     -17.233 -66.244  23.523  1.00  0.00     0.035 A 
HETATM   10  C   UNL     1     -17.863 -67.450  23.203  1.00  0.00     0.059 A 
HETATM   11  C   UNL     1     -17.812 -68.525  24.090  1.00  0.00     0.036 A 
HETATM   12  C   UNL     1     -17.131 -68.399  25.301  1.00  0.00     0.029 A 
HETATM   13  C   UNL     1     -16.500 -67.198  25.625  1.00  0.00     0.004 A 
HETATM   14  C   UNL     1     -16.552 -66.122  24.737  1.00  0.00     0.029 A 
BRANCH  11  15
HETATM   15  N   UNL     1     -18.442 -69.727  23.766  1.00  0.00    -0.327 N 
HETATM   16  C   UNL     1     -18.055 -70.674  22.815  1.00  0.00     0.226 C 
HETATM   17  O   UNL     1     -17.081 -70.638  22.074  1.00  0.00    -0.273 OA
HETATM   18  H   UNL     1     -19.292 -69.927  24.291  1.00  0.00     0.169 HD
BRANCH  16  19
HETATM   19  C   UNL     1     -18.969 -71.856  22.731  1.00  0.00     0.078 A 
HETATM   20  C   UNL     1     -19.947 -71.912  21.611  1.00  0.00     0.015 A 
HETATM   21  C   UNL     1     -20.416 -71.650  23.012  1.00  0.00     0.015 A 
ENDBRANCH  16  19
ENDBRANCH  11  15
ENDBRANCH   7   9
ENDBRANCH   3   7
BRANCH   5  22
HETATM   22  N   UNL     1     -17.349 -60.423  22.010  1.00  0.00    -0.341 N 
HETATM   23  H   UNL     1     -17.207 -60.319  21.007  1.00  0.00     0.167 HD
BRANCH  22  24
HETATM   24  C   UNL     1     -16.565 -59.525  22.762  1.00  0.00     0.034 A 
HETATM   25  C   UNL     1     -17.175 -58.492  23.474  1.00  0.00     0.045 A 
HETATM   26  C   UNL     1     -16.399 -57.605  24.219  1.00  0.00     0.050 A 
HETATM   27  C   UNL     1     -15.012 -57.751  24.254  1.00  0.00     0.016 A 
HETATM   28  C   UNL     1     -14.401 -58.783  23.542  1.00  0.00     0.003 A 
HETATM   29  C   UNL     1     -15.178 -59.670  22.797  1.00  0.00     0.029 A 
BRANCH  26  30
HETATM   30  C   UNL     1     -17.052 -56.500  24.980  1.00  0.00     0.417 C 
HETATM   31  F   UNL     1     -16.667 -56.435  26.289  1.00  0.00    -0.166 F 
HETATM   32  F   UNL     1     -16.793 -55.259  24.471  1.00  0.00    -0.166 F 
HETATM   33  F   UNL     1     -18.413 -56.610  25.003  1.00  0.00    -0.166 F 
ENDBRANCH  26  30
ENDBRANCH  22  24
ENDBRANCH   5  22
TORSDOF 7
ENDMDL
MODEL 2
REMARK VINA RESULT:      -6.2      2.496      3.440
REMARK  7 active torsions:
REMARK  status: ('A' for Active; 'I' for Inactive)
REMARK       I    between atoms: N_5  and  C_13 
REMARK    1  A    between atoms: N_5  and  C_14 
REMARK    2  A    between atoms: N_6  and  C_17 
REMARK    3  A    between atoms: N_6  and  C_20 
REMARK    4  A    between atoms: N_7  and  C_21 
REMARK    5  A    between atoms: N_7  and  C_23 
REMARK    6  A    between atoms: C_10  and  C_13 
REMARK    7  A    between atoms: C_24  and  C_29 
ROOT
HETATM    1  N   UNL     1     -19.099 -65.818  24.870  1.00  0.00    -0.224 NA
HETATM    2  N   UNL     1     -17.890 -63.738  24.999  1.00  0.00    -0.224 NA
HETATM    3  C   UNL     1     -18.682 -65.939  23.592  1.00  0.00     0.133 A 
HETATM    4  C   UNL     1     -17.877 -65.014  22.958  1.00  0.00     0.100 A 
HETATM    5  C   UNL     1     -17.504 -63.917  23.714  1.00  0.00     0.133 A 
HETATM    6  C   UNL     1     -18.673 -64.710  25.504  1.00  0.00     0.237 A 
ENDROOT
BRANCH   3   7
HETATM    7  N   UNL     1     -19.083 -67.075  22.847  1.00  0.00    -0.341 N 
HETATM    8  H   UNL     1     -19.900 -66.909  22.266  1.00  0.00     0.167 HD
BRANCH   7   9
HETATM    9  C   UNL     1     -18.567 -68.378  22.753  1.00  0.00     0.035 A 
HETATM   10  C   UNL     1     -18.601 -69.230  23.860  1.00  0.00     0.059 A 
HETATM   11  C   UNL     1     -18.090 -70.524  23.766  1.00  0.00     0.036 A 
HETATM   12  C   UNL     1     -17.542 -70.972  22.563  1.00  0.00     0.029 A 
HETATM   13  C   UNL     1     -17.506 -70.125  21.456  1.00  0.00     0.004 A 
HETATM   14  C   UNL     1     -18.016 -68.830  21.551  1.00  0.00     0.029 A 
BRANCH  11  15
HETATM   15  N   UNL     1     -18.127 -71.372  24.873  1.00  0.00    -0.327 N 
HETATM   16  C   UNL     1     -19.082 -72.344  25.183  1.00  0.00     0.226 C 
HETATM   17  O   UNL     1     -20.080 -72.646  24.541  1.00  0.00    -0.273 OA
HETATM   18  H   UNL     1     -17.362 -71.256  25.534  1.00  0.00     0.169 HD
BRANCH  16  19
HETATM   19  C   UNL     1     -18.809 -73.076  26.459  1.00  0.00     0.078 A 
HETATM   20  C   UNL     1     -19.538 -72.653  27.685  1.00  0.00     0.015 A 
HETATM   21  C   UNL     1     -18.073 -72.361  27.538  1.00  0.00     0.015 A 
ENDBRANCH  16  19
ENDBRANCH  11  15
ENDBRANCH   7   9
ENDBRANCH   3   7
BRANCH   5  22
HETATM   22  N   UNL     1     -16.683 -62.950  23.103  1.00  0.00    -0.341 N 
HETATM   23  H   UNL     1     -15.736 -63.283  22.939  1.00  0.00     0.167 HD
BRANCH  22  24
HETATM   24  C   UNL     1     -16.795 -61.550  22.969  1.00  0.00     0.034 A 
HETATM   25  C   UNL     1     -15.793 -60.718  23.470  1.00  0.00     0.045 A 
HETATM   26  C   UNL     1     -15.903 -59.335  23.335  1.00  0.00     0.050 A 
HETATM   27  C   UNL     1     -17.015 -58.782  22.700  1.00  0.00     0.016 A 
HETATM   28  C   UNL     1     -18.017 -59.613  22.200  1.00  0.00     0.003 A 
HETATM   29  C   UNL     1     -17.907 -60.997  22.334  1.00  0.00     0.029 A 
BRANCH  26  30
HETATM   30  C   UNL     1     -14.832 -58.445  23.870  1.00  0.00     0.417 C 
HETATM   31  F   UNL     1     -14.397 -58.799  25.115  1.00  0.00    -0.166 F 
HETATM   32  F   UNL     1     -13.708 -58.416  23.095  1.00  0.00    -0.166 F 
HETATM   33  F   UNL     1     -15.235 -57.145  23.980  1.00  0.00    -0.166 F 
ENDBRANCH  26  30
ENDBRANCH  22  24
ENDBRANCH   5  22
TORSDOF 7
ENDMDL
MODEL 3
REMARK VINA RESULT:      -6.1      6.063      7.843
REMARK  7 active torsions:
REMARK  status: ('A' for Active; 'I' for Inactive)
REMARK       I    between atoms: N_5  and  C_13 
REMARK    1  A    between atoms: N_5  and  C_14 
REMARK    2  A    between atoms: N_6  and  C_17 
REMARK    3  A    between atoms: N_6  and  C_20 
REMARK    4  A    between atoms: N_7  and  C_21 
REMARK    5  A    between atoms: N_7  and  C_23 
REMARK    6  A    between atoms: C_10  and  C_13 
REMARK    7  A    between atoms: C_24  and  C_29 
ROOT
HETATM    1  N   UNL     1     -20.884 -59.402  21.794  1.00  0.00    -0.224 NA
HETATM    2  N   UNL     1     -22.083 -59.502  19.707  1.00  0.00    -0.224 NA
HETATM    3  C   UNL     1     -19.765 -59.118  21.095  1.00  0.00     0.133 A 
HETATM    4  C   UNL     1     -19.728 -59.009  19.720  1.00  0.00     0.100 A 
HETATM    5  C   UNL     1     -20.928 -59.214  19.064  1.00  0.00     0.133 A 
HETATM    6  C   UNL     1     -21.990 -59.581  21.048  1.00  0.00     0.237 A 
ENDROOT
BRANCH   3   7
HETATM    7  N   UNL     1     -18.553 -58.916  21.799  1.00  0.00    -0.341 N 
HETATM    8  H   UNL     1     -18.358 -57.938  21.997  1.00  0.00     0.167 HD
BRANCH   7   9
HETATM    9  C   UNL     1     -17.577 -59.804  22.280  1.00  0.00     0.035 A 
HETATM   10  C   UNL     1     -17.690 -61.175  22.034  1.00  0.00     0.059 A 
HETATM   11  C   UNL     1     -16.719 -62.055  22.511  1.00  0.00     0.036 A 
HETATM   12  C   UNL     1     -15.631 -61.569  23.236  1.00  0.00     0.029 A 
HETATM   13  C   UNL     1     -15.513 -60.201  23.483  1.00  0.00     0.004 A 
HETATM   14  C   UNL     1     -16.485 -59.321  23.007  1.00  0.00     0.029 A 
BRANCH  11  15
HETATM   15  N   UNL     1     -16.835 -63.424  22.262  1.00  0.00    -0.327 N 
HETATM   16  C   UNL     1     -17.564 -64.371  22.984  1.00  0.00     0.226 C 
HETATM   17  O   UNL     1     -18.250 -64.190  23.982  1.00  0.00    -0.273 OA
HETATM   18  H   UNL     1     -16.316 -63.763  21.456  1.00  0.00     0.169 HD
BRANCH  16  19
HETATM   19  C   UNL     1     -17.466 -65.759  22.433  1.00  0.00     0.078 A 
HETATM   20  C   UNL     1     -18.670 -66.631  22.497  1.00  0.00     0.015 A 
HETATM   21  C   UNL     1     -17.493 -66.900  23.388  1.00  0.00     0.015 A 
ENDBRANCH  16  19
ENDBRANCH  11  15
ENDBRANCH   7   9
ENDBRANCH   3   7
BRANCH   5  22
HETATM   22  N   UNL     1     -20.933 -59.112  17.659  1.00  0.00    -0.341 N 
HETATM   23  H   UNL     1     -20.579 -59.949  17.201  1.00  0.00     0.167 HD
BRANCH  22  24
HETATM   24  C   UNL     1     -21.015 -58.010  16.782  1.00  0.00     0.034 A 
HETATM   25  C   UNL     1     -19.996 -57.775  15.859  1.00  0.00     0.045 A 
HETATM   26  C   UNL     1     -20.078 -56.687  14.991  1.00  0.00     0.050 A 
HETATM   27  C   UNL     1     -21.180 -55.833  15.046  1.00  0.00     0.016 A 
HETATM   28  C   UNL     1     -22.198 -56.067  15.969  1.00  0.00     0.003 A 
HETATM   29  C   UNL     1     -22.116 -57.156  16.837  1.00  0.00     0.029 A 
BRANCH  26  30
HETATM   30  C   UNL     1     -18.989 -56.436  14.003  1.00  0.00     0.417 C 
HETATM   31  F   UNL     1     -17.842 -57.128  14.265  1.00  0.00    -0.166 F 
HETATM   32  F   UNL     1     -19.324 -56.772  12.723  1.00  0.00    -0.166 F 
HETATM   33  F   UNL     1     -18.620 -55.122  13.952  1.00  0.00    -0.166 F 
ENDBRANCH  26  30
ENDBRANCH  22  24
ENDBRANCH   5  22
TORSDOF 7
ENDMDL
MODEL 4
REMARK VINA RESULT:      -6.1      5.399     10.795
REMARK  7 active torsions:
REMARK  status: ('A' for Active; 'I' for Inactive)
REMARK       I    between atoms: N_5  and  C_13 
REMARK    1  A    between atoms: N_5  and  C_14 
REMARK    2  A    between atoms: N_6  and  C_17 
REMARK    3  A    between atoms: N_6  and  C_20 
REMARK    4  A    between atoms: N_7  and  C_21 
REMARK    5  A    between atoms: N_7  and  C_23 
REMARK    6  A    between atoms: C_10  and  C_13 
REMARK    7  A    between atoms: C_24  and  C_29 
ROOT
HETATM    1  N   UNL     1     -19.429 -61.678  22.494  1.00  0.00    -0.224 NA
HETATM    2  N   UNL     1     -19.170 -64.049  22.830  1.00  0.00    -0.224 NA
HETATM    3  C   UNL     1     -18.097 -61.598  22.298  1.00  0.00     0.133 A 
HETATM    4  C   UNL     1     -17.247 -62.684  22.350  1.00  0.00     0.100 A 
HETATM    5  C   UNL     1     -17.841 -63.903  22.624  1.00  0.00     0.133 A 
HETATM    6  C   UNL     1     -19.892 -62.915  22.753  1.00  0.00     0.237 A 
ENDROOT
BRANCH   3   7
HETATM    7  N   UNL     1     -17.522 -60.333  22.020  1.00  0.00    -0.341 N 
HETATM    8  H   UNL     1     -17.781 -59.961  21.111  1.00  0.00     0.167 HD
BRANCH   7   9
HETATM    9  C   UNL     1     -16.672 -59.495  22.761  1.00  0.00     0.035 A 
HETATM   10  C   UNL     1     -17.204 -58.460  23.536  1.00  0.00     0.059 A 
HETATM   11  C   UNL     1     -16.359 -57.630  24.272  1.00  0.00     0.036 A 
HETATM   12  C   UNL     1     -14.979 -57.831  24.237  1.00  0.00     0.029 A 
HETATM   13  C   UNL     1     -14.444 -58.862  23.465  1.00  0.00     0.004 A 
HETATM   14  C   UNL     1     -15.289 -59.692  22.728  1.00  0.00     0.029 A 
BRANCH  11  15
HETATM   15  N   UNL     1     -16.894 -56.598  25.045  1.00  0.00    -0.327 N 
HETATM   16  C   UNL     1     -17.144 -56.592  26.419  1.00  0.00     0.226 C 
HETATM   17  O   UNL     1     -16.941 -57.493  27.222  1.00  0.00    -0.273 OA
HETATM   18  H   UNL     1     -17.134 -55.752  24.532  1.00  0.00     0.169 HD
BRANCH  16  19
HETATM   19  C   UNL     1     -17.727 -55.309  26.923  1.00  0.00     0.078 A 
HETATM   20  C   UNL     1     -16.877 -54.088  26.891  1.00  0.00     0.015 A 
HETATM   21  C   UNL     1     -17.201 -54.749  28.198  1.00  0.00     0.015 A 
ENDBRANCH  16  19
ENDBRANCH  11  15
ENDBRANCH   7   9
ENDBRANCH   3   7
BRANCH   5  22
HETATM   22  N   UNL     1     -17.009 -65.037  22.687  1.00  0.00    -0.341 N 
HETATM   23  H   UNL     1     -16.199 -64.968  22.074  1.00  0.00     0.167 HD
BRANCH  22  24
HETATM   24  C   UNL     1     -17.218 -66.350  23.157  1.00  0.00     0.034 A 
HETATM   25  C   UNL     1     -17.408 -67.395  22.252  1.00  0.00     0.045 A 
HETATM   26  C   UNL     1     -17.613 -68.693  22.718  1.00  0.00     0.050 A 
HETATM   27  C   UNL     1     -17.628 -68.947  24.090  1.00  0.00     0.016 A 
HETATM   28  C   UNL     1     -17.439 -67.903  24.995  1.00  0.00     0.003 A 
HETATM   29  C   UNL     1     -17.233 -66.605  24.528  1.00  0.00     0.029 A 
BRANCH  26  30
HETATM   30  C   UNL     1     -17.816 -69.810  21.751  1.00  0.00     0.417 C 
HETATM   31  F   UNL     1     -17.242 -70.986  22.143  1.00  0.00    -0.166 F 
HETATM   32  F   UNL     1     -19.130 -70.111  21.532  1.00  0.00    -0.166 F 
HETATM   33  F   UNL     1     -17.292 -69.540  20.519  1.00  0.00    -0.166 F 
ENDBRANCH  26  30
ENDBRANCH  22  24
ENDBRANCH   5  22
TORSDOF 7
ENDMDL
MODEL 5
REMARK VINA RESULT:      -6.1      1.656      2.352
REMARK  7 active torsions:
REMARK  status: ('A' for Active; 'I' for Inactive)
REMARK       I    between atoms: N_5  and  C_13 
REMARK    1  A    between atoms: N_5  and  C_14 
REMARK    2  A    between atoms: N_6  and  C_17 
REMARK    3  A    between atoms: N_6  and  C_20 
REMARK    4  A    between atoms: N_7  and  C_21 
REMARK    5  A    between atoms: N_7  and  C_23 
REMARK    6  A    between atoms: C_10  and  C_13 
REMARK    7  A    between atoms: C_24  and  C_29 
ROOT
HETATM    1  N   UNL     1     -18.082 -62.101  21.368  1.00  0.00    -0.224 NA
HETATM    2  N   UNL     1     -17.594 -59.865  22.121  1.00  0.00    -0.224 NA
HETATM    3  C   UNL     1     -17.126 -62.552  22.206  1.00  0.00     0.133 A 
HETATM    4  C   UNL     1     -16.372 -61.732  23.022  1.00  0.00     0.100 A 
HETATM    5  C   UNL     1     -16.648 -60.379  22.941  1.00  0.00     0.133 A 
HETATM    6  C   UNL     1     -18.260 -60.766  21.376  1.00  0.00     0.237 A 
ENDROOT
BRANCH   3   7
HETATM    7  N   UNL     1     -16.869 -63.944  22.263  1.00  0.00    -0.341 N 
HETATM    8  H   UNL     1     -16.188 -64.258  21.579  1.00  0.00     0.167 HD
BRANCH   7   9
HETATM    9  C   UNL     1     -17.369 -64.967  23.086  1.00  0.00     0.035 A 
HETATM   10  C   UNL     1     -17.311 -66.299  22.667  1.00  0.00     0.059 A 
HETATM   11  C   UNL     1     -17.806 -67.314  23.486  1.00  0.00     0.036 A 
HETATM   12  C   UNL     1     -18.361 -67.001  24.727  1.00  0.00     0.029 A 
HETATM   13  C   UNL     1     -18.422 -65.674  25.149  1.00  0.00     0.004 A 
HETATM   14  C   UNL     1     -17.927 -64.658  24.330  1.00  0.00     0.029 A 
BRANCH  11  15
HETATM   15  N   UNL     1     -17.745 -68.643  23.064  1.00  0.00    -0.327 N 
HETATM   16  C   UNL     1     -18.461 -69.253  22.032  1.00  0.00     0.226 C 
HETATM   17  O   UNL     1     -19.288 -68.741  21.288  1.00  0.00    -0.273 OA
HETATM   18  H   UNL     1     -17.099 -69.233  23.583  1.00  0.00     0.169 HD
BRANCH  16  19
HETATM   19  C   UNL     1     -18.145 -70.705  21.851  1.00  0.00     0.078 A 
HETATM   20  C   UNL     1     -19.274 -71.673  21.811  1.00  0.00     0.015 A 
HETATM   21  C   UNL     1     -18.364 -71.622  23.003  1.00  0.00     0.015 A 
ENDBRANCH  16  19
ENDBRANCH  11  15
ENDBRANCH   7   9
ENDBRANCH   3   7
BRANCH   5  22
HETATM   22  N   UNL     1     -15.901 -59.509  23.758  1.00  0.00    -0.341 N 
HETATM   23  H   UNL     1     -14.935 -59.806  23.872  1.00  0.00     0.167 HD
BRANCH  22  24
HETATM   24  C   UNL     1     -16.275 -58.517  24.688  1.00  0.00     0.034 A 
HETATM   25  C   UNL     1     -16.301 -57.176  24.307  1.00  0.00     0.045 A 
HETATM   26  C   UNL     1     -16.672 -56.196  25.228  1.00  0.00     0.050 A 
HETATM   27  C   UNL     1     -17.017 -56.558  26.530  1.00  0.00     0.016 A 
HETATM   28  C   UNL     1     -16.990 -57.899  26.912  1.00  0.00     0.003 A 
HETATM   29  C   UNL     1     -16.619 -58.879  25.991  1.00  0.00     0.029 A 
BRANCH  26  30
HETATM   30  C   UNL     1     -16.700 -54.761  24.820  1.00  0.00     0.417 C 
HETATM   31  F   UNL     1     -17.713 -54.457  23.957  1.00  0.00    -0.166 F 
HETATM   32  F   UNL     1     -16.854 -53.899  25.868  1.00  0.00    -0.166 F 
HETATM   33  F   UNL     1     -15.552 -54.371  24.191  1.00  0.00    -0.166 F 
ENDBRANCH  26  30
ENDBRANCH  22  24
ENDBRANCH   5  22
TORSDOF 7
ENDMDL
MODEL 6
REMARK VINA RESULT:      -6.1      4.140      9.098
REMARK  7 active torsions:
REMARK  status: ('A' for Active; 'I' for Inactive)
REMARK       I    between atoms: N_5  and  C_13 
REMARK    1  A    between atoms: N_5  and  C_14 
REMARK    2  A    between atoms: N_6  and  C_17 
REMARK    3  A    between atoms: N_6  and  C_20 
REMARK    4  A    between atoms: N_7  and  C_21 
REMARK    5  A    between atoms: N_7  and  C_23 
REMARK    6  A    between atoms: C_10  and  C_13 
REMARK    7  A    between atoms: C_24  and  C_29 
ROOT
HETATM    1  N   UNL     1     -17.801 -67.695  22.132  1.00  0.00    -0.224 NA
HETATM    2  N   UNL     1     -17.764 -69.291  23.937  1.00  0.00    -0.224 NA
HETATM    3  C   UNL     1     -17.402 -66.750  23.009  1.00  0.00     0.133 A 
HETATM    4  C   UNL     1     -17.167 -66.996  24.347  1.00  0.00     0.100 A 
HETATM    5  C   UNL     1     -17.366 -68.299  24.767  1.00  0.00     0.133 A 
HETATM    6  C   UNL     1     -17.961 -68.925  22.656  1.00  0.00     0.237 A 
ENDROOT
BRANCH   3   7
HETATM    7  N   UNL     1     -17.210 -65.426  22.545  1.00  0.00    -0.341 N 
HETATM    8  H   UNL     1     -16.586 -65.364  21.745  1.00  0.00     0.167 HD
BRANCH   7   9
HETATM    9  C   UNL     1     -17.719 -64.188  22.972  1.00  0.00     0.035 A 
HETATM   10  C   UNL     1     -16.859 -63.106  23.178  1.00  0.00     0.059 A 
HETATM   11  C   UNL     1     -17.366 -61.878  23.601  1.00  0.00     0.036 A 
HETATM   12  C   UNL     1     -18.736 -61.726  23.819  1.00  0.00     0.029 A 
HETATM   13  C   UNL     1     -19.598 -62.803  23.615  1.00  0.00     0.004 A 
HETATM   14  C   UNL     1     -19.091 -64.032  23.193  1.00  0.00     0.029 A 
BRANCH  11  15
HETATM   15  N   UNL     1     -16.504 -60.800  23.804  1.00  0.00    -0.327 N 
HETATM   16  C   UNL     1     -16.405 -59.623  23.058  1.00  0.00     0.226 C 
HETATM   17  O   UNL     1     -17.058 -59.302  22.074  1.00  0.00    -0.273 OA
HETATM   18  H   UNL     1     -15.868 -60.895  24.593  1.00  0.00     0.169 HD
BRANCH  16  19
HETATM   19  C   UNL     1     -15.364 -58.672  23.561  1.00  0.00     0.078 A 
HETATM   20  C   UNL     1     -15.055 -58.670  25.016  1.00  0.00     0.015 A 
HETATM   21  C   UNL     1     -15.804 -57.525  24.401  1.00  0.00     0.015 A 
ENDBRANCH  16  19
ENDBRANCH  11  15
ENDBRANCH   7   9
ENDBRANCH   3   7
BRANCH   5  22
HETATM   22  N   UNL     1     -17.136 -68.591  26.125  1.00  0.00    -0.341 N 
HETATM   23  H   UNL     1     -16.798 -69.540  26.273  1.00  0.00     0.167 HD
BRANCH  22  24
HETATM   24  C   UNL     1     -17.570 -67.980  27.320  1.00  0.00     0.034 A 
HETATM   25  C   UNL     1     -16.817 -66.955  27.893  1.00  0.00     0.045 A 
HETATM   26  C   UNL     1     -17.247 -66.350  29.073  1.00  0.00     0.050 A 
HETATM   27  C   UNL     1     -18.430 -66.770  29.681  1.00  0.00     0.016 A 
HETATM   28  C   UNL     1     -19.183 -67.794  29.109  1.00  0.00     0.003 A 
HETATM   29  C   UNL     1     -18.753 -68.399  27.928  1.00  0.00     0.029 A 
BRANCH  26  30
HETATM   30  C   UNL     1     -16.441 -65.254  29.687  1.00  0.00     0.417 C 
HETATM   31  F   UNL     1     -16.701 -64.022  29.158  1.00  0.00    -0.166 F 
HETATM   32  F   UNL     1     -16.643 -65.115  31.030  1.00  0.00    -0.166 F 
HETATM   33  F   UNL     1     -15.097 -65.442  29.535  1.00  0.00    -0.166 F 
ENDBRANCH  26  30
ENDBRANCH  22  24
ENDBRANCH   5  22
TORSDOF 7
ENDMDL
MODEL 7
REMARK VINA RESULT:      -5.9      2.759      4.002
REMARK  7 active torsions:
REMARK  status: ('A' for Active; 'I' for Inactive)
REMARK       I    between atoms: N_5  and  C_13 
REMARK    1  A    between atoms: N_5  and  C_14 
REMARK    2  A    between atoms: N_6  and  C_17 
REMARK    3  A    between atoms: N_6  and  C_20 
REMARK    4  A    between atoms: N_7  and  C_21 
REMARK    5  A    between atoms: N_7  and  C_23 
REMARK    6  A    between atoms: C_10  and  C_13 
REMARK    7  A    between atoms: C_24  and  C_29 
ROOT
HETATM    1  N   UNL     1     -19.092 -66.365  25.154  1.00  0.00    -0.224 NA
HETATM    2  N   UNL     1     -18.509 -64.082  24.652  1.00  0.00    -0.224 NA
HETATM    3  C   UNL     1     -18.021 -66.758  24.434  1.00  0.00     0.133 A 
HETATM    4  C   UNL     1     -17.159 -65.884  23.803  1.00  0.00     0.100 A 
HETATM    5  C   UNL     1     -17.450 -64.540  23.944  1.00  0.00     0.133 A 
HETATM    6  C   UNL     1     -19.275 -65.032  25.220  1.00  0.00     0.237 A 
ENDROOT
BRANCH   3   7
HETATM    7  N   UNL     1     -17.753 -68.143  24.310  1.00  0.00    -0.341 N 
HETATM    8  H   UNL     1     -17.008 -68.468  24.919  1.00  0.00     0.167 HD
BRANCH   7   9
HETATM    9  C   UNL     1     -18.323 -69.151  23.515  1.00  0.00     0.035 A 
HETATM   10  C   UNL     1     -19.289 -68.832  22.557  1.00  0.00     0.059 A 
HETATM   11  C   UNL     1     -19.853 -69.833  21.768  1.00  0.00     0.036 A 
HETATM   12  C   UNL     1     -19.452 -71.159  21.931  1.00  0.00     0.029 A 
HETATM   13  C   UNL     1     -18.488 -71.484  22.884  1.00  0.00     0.004 A 
HETATM   14  C   UNL     1     -17.925 -70.482  23.675  1.00  0.00     0.029 A 
BRANCH  11  15
HETATM   15  N   UNL     1     -20.817 -69.509  20.812  1.00  0.00    -0.327 N 
HETATM   16  C   UNL     1     -22.194 -69.362  20.994  1.00  0.00     0.226 C 
HETATM   17  O   UNL     1     -22.832 -69.487  22.031  1.00  0.00    -0.273 OA
HETATM   18  H   UNL     1     -20.463 -69.370  19.868  1.00  0.00     0.169 HD
BRANCH  16  19
HETATM   19  C   UNL     1     -22.936 -69.006  19.743  1.00  0.00     0.078 A 
HETATM   20  C   UNL     1     -22.745 -69.864  18.542  1.00  0.00     0.015 A 
HETATM   21  C   UNL     1     -22.157 -68.485  18.587  1.00  0.00     0.015 A 
ENDBRANCH  16  19
ENDBRANCH  11  15
ENDBRANCH   7   9
ENDBRANCH   3   7
BRANCH   5  22
HETATM   22  N   UNL     1     -16.594 -63.615  23.315  1.00  0.00    -0.341 N 
HETATM   23  H   UNL     1     -15.616 -63.891  23.356  1.00  0.00     0.167 HD
BRANCH  22  24
HETATM   24  C   UNL     1     -16.759 -62.267  22.936  1.00  0.00     0.034 A 
HETATM   25  C   UNL     1     -15.853 -61.301  23.376  1.00  0.00     0.045 A 
HETATM   26  C   UNL     1     -16.016 -59.969  22.999  1.00  0.00     0.050 A 
HETATM   27  C   UNL     1     -17.084 -59.601  22.182  1.00  0.00     0.016 A 
HETATM   28  C   UNL     1     -17.991 -60.565  21.742  1.00  0.00     0.003 A 
HETATM   29  C   UNL     1     -17.828 -61.898  22.119  1.00  0.00     0.029 A 
BRANCH  26  30
HETATM   30  C   UNL     1     -15.047 -58.936  23.470  1.00  0.00     0.417 C 
HETATM   31  F   UNL     1     -14.567 -59.168  24.727  1.00  0.00    -0.166 F 
HETATM   32  F   UNL     1     -13.939 -58.827  22.679  1.00  0.00    -0.166 F 
HETATM   33  F   UNL     1     -15.592 -57.685  23.511  1.00  0.00    -0.166 F 
ENDBRANCH  26  30
ENDBRANCH  22  24
ENDBRANCH   5  22
TORSDOF 7
ENDMDL
MODEL 8
REMARK VINA RESULT:      -5.8      6.699     10.372
REMARK  7 active torsions:
REMARK  status: ('A' for Active; 'I' for Inactive)
REMARK       I    between atoms: N_5  and  C_13 
REMARK    1  A    between atoms: N_5  and  C_14 
REMARK    2  A    between atoms: N_6  and  C_17 
REMARK    3  A    between atoms: N_6  and  C_20 
REMARK    4  A    between atoms: N_7  and  C_21 
REMARK    5  A    between atoms: N_7  and  C_23 
REMARK    6  A    between atoms: C_10  and  C_13 
REMARK    7  A    between atoms: C_24  and  C_29 
ROOT
HETATM    1  N   UNL     1     -22.644 -60.151  20.055  1.00  0.00    -0.224 NA
HETATM    2  N   UNL     1     -20.749 -60.974  21.294  1.00  0.00    -0.224 NA
HETATM    3  C   UNL     1     -21.793 -59.763  19.082  1.00  0.00     0.133 A 
HETATM    4  C   UNL     1     -20.426 -59.945  19.143  1.00  0.00     0.100 A 
HETATM    5  C   UNL     1     -19.948 -60.563  20.284  1.00  0.00     0.133 A 
HETATM    6  C   UNL     1     -22.063 -60.740  21.117  1.00  0.00     0.237 A 
ENDROOT
BRANCH   3   7
HETATM    7  N   UNL     1     -22.317 -59.133  17.927  1.00  0.00    -0.341 N 
HETATM    8  H   UNL     1     -23.099 -58.514  18.124  1.00  0.00     0.167 HD
BRANCH   7   9
HETATM    9  C   UNL     1     -21.960 -59.193  16.570  1.00  0.00     0.035 A 
HETATM   10  C   UNL     1     -21.182 -58.181  16.001  1.00  0.00     0.059 A 
HETATM   11  C   UNL     1     -20.828 -58.242  14.654  1.00  0.00     0.036 A 
HETATM   12  C   UNL     1     -21.249 -59.316  13.869  1.00  0.00     0.029 A 
HETATM   13  C   UNL     1     -22.025 -60.329  14.433  1.00  0.00     0.004 A 
HETATM   14  C   UNL     1     -22.381 -60.266  15.780  1.00  0.00     0.029 A 
BRANCH  11  15
HETATM   15  N   UNL     1     -20.050 -57.229  14.090  1.00  0.00    -0.327 N 
HETATM   16  C   UNL     1     -18.692 -56.973  14.292  1.00  0.00     0.226 C 
HETATM   17  O   UNL     1     -17.910 -57.588  15.005  1.00  0.00    -0.273 OA
HETATM   18  H   UNL     1     -20.545 -56.602  13.460  1.00  0.00     0.169 HD
BRANCH  16  19
HETATM   19  C   UNL     1     -18.177 -55.797  13.521  1.00  0.00     0.078 A 
HETATM   20  C   UNL     1     -19.047 -54.597  13.401  1.00  0.00     0.015 A 
HETATM   21  C   UNL     1     -18.810 -55.481  12.212  1.00  0.00     0.015 A 
ENDBRANCH  16  19
ENDBRANCH  11  15
ENDBRANCH   7   9
ENDBRANCH   3   7
BRANCH   5  22
HETATM   22  N   UNL     1     -18.558 -60.767  20.385  1.00  0.00    -0.341 N 
HETATM   23  H   UNL     1     -18.138 -61.064  19.507  1.00  0.00     0.167 HD
BRANCH  22  24
HETATM   24  C   UNL     1     -17.699 -60.959  21.486  1.00  0.00     0.034 A 
HETATM   25  C   UNL     1     -16.979 -59.883  22.006  1.00  0.00     0.045 A 
HETATM   26  C   UNL     1     -16.131 -60.073  23.097  1.00  0.00     0.050 A 
HETATM   27  C   UNL     1     -16.001 -61.339  23.667  1.00  0.00     0.016 A 
HETATM   28  C   UNL     1     -16.720 -62.416  23.148  1.00  0.00     0.003 A 
HETATM   29  C   UNL     1     -17.569 -62.225  22.057  1.00  0.00     0.029 A 
BRANCH  26  30
HETATM   30  C   UNL     1     -15.361 -58.923  23.653  1.00  0.00     0.417 C 
HETATM   31  F   UNL     1     -16.084 -57.767  23.734  1.00  0.00    -0.166 F 
HETATM   32  F   UNL     1     -14.893 -59.139  24.918  1.00  0.00    -0.166 F 
HETATM   33  F   UNL     1     -14.262 -58.615  22.904  1.00  0.00    -0.166 F 
ENDBRANCH  26  30
ENDBRANCH  22  24
ENDBRANCH   5  22
TORSDOF 7
ENDMDL
MODEL 9
REMARK VINA RESULT:      -5.7      5.464     10.180
REMARK  7 active torsions:
REMARK  status: ('A' for Active; 'I' for Inactive)
REMARK       I    between atoms: N_5  and  C_13 
REMARK    1  A    between atoms: N_5  and  C_14 
REMARK    2  A    between atoms: N_6  and  C_17 
REMARK    3  A    between atoms: N_6  and  C_20 
REMARK    4  A    between atoms: N_7  and  C_21 
REMARK    5  A    between atoms: N_7  and  C_23 
REMARK    6  A    between atoms: C_10  and  C_13 
REMARK    7  A    between atoms: C_24  and  C_29 
ROOT
HETATM    1  N   UNL     1     -19.385 -61.907  22.388  1.00  0.00    -0.224 NA
HETATM    2  N   UNL     1     -19.177 -64.298  22.608  1.00  0.00    -0.224 NA
HETATM    3  C   UNL     1     -18.038 -61.829  22.367  1.00  0.00     0.133 A 
HETATM    4  C   UNL     1     -17.205 -62.926  22.461  1.00  0.00     0.100 A 
HETATM    5  C   UNL     1     -17.832 -64.153  22.582  1.00  0.00     0.133 A 
HETATM    6  C   UNL     1     -19.880 -63.153  22.509  1.00  0.00     0.237 A 
ENDROOT
BRANCH   3   7
HETATM    7  N   UNL     1     -17.430 -60.556  22.244  1.00  0.00    -0.341 N 
HETATM    8  H   UNL     1     -17.623 -60.100  21.356  1.00  0.00     0.167 HD
BRANCH   7   9
HETATM    9  C   UNL     1     -16.621 -59.803  23.111  1.00  0.00     0.035 A 
HETATM   10  C   UNL     1     -17.120 -59.372  24.343  1.00  0.00     0.059 A 
HETATM   11  C   UNL     1     -16.316 -58.627  25.204  1.00  0.00     0.036 A 
HETATM   12  C   UNL     1     -15.008 -58.309  24.837  1.00  0.00     0.029 A 
HETATM   13  C   UNL     1     -14.505 -58.737  23.609  1.00  0.00     0.004 A 
HETATM   14  C   UNL     1     -15.310 -59.482  22.747  1.00  0.00     0.029 A 
BRANCH  11  15
HETATM   15  N   UNL     1     -16.819 -58.199  26.434  1.00  0.00    -0.327 N 
HETATM   16  C   UNL     1     -16.809 -58.881  27.652  1.00  0.00     0.226 C 
HETATM   17  O   UNL     1     -16.356 -59.994  27.886  1.00  0.00    -0.273 OA
HETATM   18  H   UNL     1     -17.248 -57.276  26.429  1.00  0.00     0.169 HD
BRANCH  16  19
HETATM   19  C   UNL     1     -17.438 -58.119  28.777  1.00  0.00     0.078 A 
HETATM   20  C   UNL     1     -17.032 -58.454  30.169  1.00  0.00     0.015 A 
HETATM   21  C   UNL     1     -18.393 -58.836  29.666  1.00  0.00     0.015 A 
ENDBRANCH  16  19
ENDBRANCH  11  15
ENDBRANCH   7   9
ENDBRANCH   3   7
BRANCH   5  22
HETATM   22  N   UNL     1     -17.017 -65.297  22.679  1.00  0.00    -0.341 N 
HETATM   23  H   UNL     1     -16.187 -65.242  22.093  1.00  0.00     0.167 HD
BRANCH  22  24
HETATM   24  C   UNL     1     -17.259 -66.604  23.152  1.00  0.00     0.034 A 
HETATM   25  C   UNL     1     -17.436 -67.652  22.248  1.00  0.00     0.045 A 
HETATM   26  C   UNL     1     -17.674 -68.944  22.716  1.00  0.00     0.050 A 
HETATM   27  C   UNL     1     -17.734 -69.188  24.088  1.00  0.00     0.016 A 
HETATM   28  C   UNL     1     -17.558 -68.141  24.992  1.00  0.00     0.003 A 
HETATM   29  C   UNL     1     -17.320 -66.848  24.524  1.00  0.00     0.029 A 
BRANCH  26  30
HETATM   30  C   UNL     1     -17.863 -70.065  21.750  1.00  0.00     0.417 C 
HETATM   31  F   UNL     1     -17.360 -69.807  20.507  1.00  0.00    -0.166 F 
HETATM   32  F   UNL     1     -17.267 -71.229  22.142  1.00  0.00    -0.166 F 
HETATM   33  F   UNL     1     -19.179 -70.374  21.556  1.00  0.00    -0.166 F 
ENDBRANCH  26  30
ENDBRANCH  22  24
ENDBRANCH   5  22
TORSDOF 7
ENDMDL
