MODEL 1
REMARK VINA RESULT:      -6.4      0.000      0.000
REMARK  7 active torsions:
REMARK  status: ('A' for Active; 'I' for Inactive)
REMARK       I    between atoms: N_5  and  C_13 
REMARK    1  A    between atoms: N_5  and  C_14 
REMARK    2  A    between atoms: N_6  and  C_17 
REMARK    3  A    between atoms: N_6  and  C_20 
REMARK    4  A    between atoms: N_7  and  C_21 
REMARK    5  A    between atoms: N_7  and  C_23 
REMARK    6  A    between atoms: C_10  and  C_13 
REMARK    7  A    between atoms: C_24  and  C_29 
ROOT
HETATM    1  N   UNL     1     -19.242 -63.930  22.789  1.00  0.00    -0.224 NA
HETATM    2  N   UNL     1     -19.414 -61.547  22.478  1.00  0.00    -0.224 NA
HETATM    3  C   UNL     1     -17.915 -63.826  22.567  1.00  0.00     0.133 A 
HETATM    4  C   UNL     1     -17.274 -62.633  22.298  1.00  0.00     0.100 A 
HETATM    5  C   UNL     1     -18.079 -61.508  22.264  1.00  0.00     0.133 A 
HETATM    6  C   UNL     1     -19.921 -62.769  22.730  1.00  0.00     0.237 A 
ENDROOT
BRANCH   3   7
HETATM    7  N   UNL     1     -17.121 -64.998  22.609  1.00  0.00    -0.341 N 
HETATM    8  H   UNL     1     -16.351 -64.989  21.946  1.00  0.00     0.167 HD
BRANCH   7   9
HETATM    9  C   UNL     1     -17.191 -66.162  23.392  1.00  0.00     0.035 A 
HETATM   10  C   UNL     1     -17.877 -67.286  22.923  1.00  0.00     0.059 A 
HETATM   11  C   UNL     1     -17.944 -68.442  23.700  1.00  0.00     0.036 A 
HETATM   12  C   UNL     1     -17.325 -68.479  24.950  1.00  0.00     0.029 A 
HETATM   13  C   UNL     1     -16.639 -67.360  25.422  1.00  0.00     0.004 A 
HETATM   14  C   UNL     1     -16.573 -66.204  24.645  1.00  0.00     0.029 A 
BRANCH  11  15
HETATM   15  N   UNL     1     -18.629 -69.562  23.228  1.00  0.00    -0.327 N 
HETATM   16  C   UNL     1     -18.279 -70.403  22.169  1.00  0.00     0.226 C 
HETATM   17  O   UNL     1     -17.298 -70.324  21.442  1.00  0.00    -0.273 OA
HETATM   18  H   UNL     1     -19.492 -69.782  23.720  1.00  0.00     0.169 HD
BRANCH  16  19
HETATM   19  C   UNL     1     -19.250 -71.518  21.935  1.00  0.00     0.078 A 
HETATM   20  C   UNL     1     -20.329 -71.735  22.936  1.00  0.00     0.015 A 
HETATM   21  C   UNL     1     -19.189 -72.705  22.831  1.00  0.00     0.015 A 
ENDBRANCH  16  19
ENDBRANCH  11  15
ENDBRANCH   7   9
ENDBRANCH   3   7
BRANCH   5  22
HETATM   22  N   UNL     1     -17.463 -60.271  21.994  1.00  0.00    -0.341 N 
HETATM   23  H   UNL     1     -17.436 -60.052  21.000  1.00  0.00     0.167 HD
BRANCH  22  24
HETATM   24  C   UNL     1     -16.611 -59.443  22.753  1.00  0.00     0.034 A 
HETATM   25  C   UNL     1     -17.142 -58.390  23.498  1.00  0.00     0.045 A 
HETATM   26  C   UNL     1     -16.298 -57.572  24.249  1.00  0.00     0.050 A 
HETATM   27  C   UNL     1     -14.923 -57.807  24.255  1.00  0.00     0.016 A 
HETATM   28  C   UNL     1     -14.392 -58.859  23.510  1.00  0.00     0.003 A 
HETATM   29  C   UNL     1     -15.236 -59.677  22.759  1.00  0.00     0.029 A 
BRANCH  26  30
HETATM   30  C   UNL     1     -16.866 -56.446  25.046  1.00  0.00     0.417 C 
HETATM   31  F   UNL     1     -18.222 -56.329  24.941  1.00  0.00    -0.166 F 
HETATM   32  F   UNL     1     -16.620 -56.547  26.386  1.00  0.00    -0.166 F 
HETATM   33  F   UNL     1     -16.363 -55.232  24.672  1.00  0.00    -0.166 F 
ENDBRANCH  26  30
ENDBRANCH  22  24
ENDBRANCH   5  22
TORSDOF 7
ENDMDL
MODEL 2
REMARK VINA RESULT:      -6.3      5.729     11.087
REMARK  7 active torsions:
REMARK  status: ('A' for Active; 'I' for Inactive)
REMARK       I    between atoms: N_5  and  C_13 
REMARK    1  A    between atoms: N_5  and  C_14 
REMARK    2  A    between atoms: N_6  and  C_17 
REMARK    3  A    between atoms: N_6  and  C_20 
REMARK    4  A    between atoms: N_7  and  C_21 
REMARK    5  A    between atoms: N_7  and  C_23 
REMARK    6  A    between atoms: C_10  and  C_13 
REMARK    7  A    between atoms: C_24  and  C_29 
ROOT
HETATM    1  N   UNL     1     -18.810 -64.738  23.512  1.00  0.00    -0.224 NA
HETATM    2  N   UNL     1     -18.973 -67.113  23.886  1.00  0.00    -0.224 NA
HETATM    3  C   UNL     1     -17.702 -64.968  22.778  1.00  0.00     0.133 A 
HETATM    4  C   UNL     1     -17.176 -66.224  22.554  1.00  0.00     0.100 A 
HETATM    5  C   UNL     1     -17.857 -67.277  23.138  1.00  0.00     0.133 A 
HETATM    6  C   UNL     1     -19.386 -65.840  24.030  1.00  0.00     0.237 A 
ENDROOT
BRANCH   3   7
HETATM    7  N   UNL     1     -17.029 -63.866  22.195  1.00  0.00    -0.341 N 
HETATM    8  H   UNL     1     -16.092 -64.089  21.871  1.00  0.00     0.167 HD
BRANCH   7   9
HETATM    9  C   UNL     1     -17.409 -62.531  21.975  1.00  0.00     0.035 A 
HETATM   10  C   UNL     1     -16.947 -61.519  22.821  1.00  0.00     0.059 A 
HETATM   11  C   UNL     1     -17.324 -60.195  22.600  1.00  0.00     0.036 A 
HETATM   12  C   UNL     1     -18.164 -59.876  21.533  1.00  0.00     0.029 A 
HETATM   13  C   UNL     1     -18.628 -60.883  20.687  1.00  0.00     0.004 A 
HETATM   14  C   UNL     1     -18.252 -62.208  20.908  1.00  0.00     0.029 A 
BRANCH  11  15
HETATM   15  N   UNL     1     -16.859 -59.187  23.447  1.00  0.00    -0.327 N 
HETATM   16  C   UNL     1     -15.553 -58.712  23.585  1.00  0.00     0.226 C 
HETATM   17  O   UNL     1     -14.551 -59.086  22.988  1.00  0.00    -0.273 OA
HETATM   18  H   UNL     1     -17.567 -58.755  24.036  1.00  0.00     0.169 HD
BRANCH  16  19
HETATM   19  C   UNL     1     -15.411 -57.614  24.593  1.00  0.00     0.078 A 
HETATM   20  C   UNL     1     -16.401 -57.542  25.701  1.00  0.00     0.015 A 
HETATM   21  C   UNL     1     -16.426 -56.526  24.597  1.00  0.00     0.015 A 
ENDBRANCH  16  19
ENDBRANCH  11  15
ENDBRANCH   7   9
ENDBRANCH   3   7
BRANCH   5  22
HETATM   22  N   UNL     1     -17.354 -68.576  22.934  1.00  0.00    -0.341 N 
HETATM   23  H   UNL     1     -16.494 -68.585  22.391  1.00  0.00     0.167 HD
BRANCH  22  24
HETATM   24  C   UNL     1     -17.939 -69.855  23.040  1.00  0.00     0.034 A 
HETATM   25  C   UNL     1     -18.103 -70.447  24.292  1.00  0.00     0.045 A 
HETATM   26  C   UNL     1     -18.684 -71.711  24.395  1.00  0.00     0.050 A 
HETATM   27  C   UNL     1     -19.101 -72.383  23.246  1.00  0.00     0.016 A 
HETATM   28  C   UNL     1     -18.938 -71.791  21.994  1.00  0.00     0.003 A 
HETATM   29  C   UNL     1     -18.357 -70.527  21.891  1.00  0.00     0.029 A 
BRANCH  26  30
HETATM   30  C   UNL     1     -18.858 -72.345  25.735  1.00  0.00     0.417 C 
HETATM   31  F   UNL     1     -18.889 -73.709  25.695  1.00  0.00    -0.166 F 
HETATM   32  F   UNL     1     -17.864 -72.036  26.618  1.00  0.00    -0.166 F 
HETATM   33  F   UNL     1     -20.021 -71.970  26.345  1.00  0.00    -0.166 F 
ENDBRANCH  26  30
ENDBRANCH  22  24
ENDBRANCH   5  22
TORSDOF 7
ENDMDL
MODEL 3
REMARK VINA RESULT:      -6.2      2.561      3.541
REMARK  7 active torsions:
REMARK  status: ('A' for Active; 'I' for Inactive)
REMARK       I    between atoms: N_5  and  C_13 
REMARK    1  A    between atoms: N_5  and  C_14 
REMARK    2  A    between atoms: N_6  and  C_17 
REMARK    3  A    between atoms: N_6  and  C_20 
REMARK    4  A    between atoms: N_7  and  C_21 
REMARK    5  A    between atoms: N_7  and  C_23 
REMARK    6  A    between atoms: C_10  and  C_13 
REMARK    7  A    between atoms: C_24  and  C_29 
ROOT
HETATM    1  N   UNL     1     -19.055 -65.788  24.825  1.00  0.00    -0.224 NA
HETATM    2  N   UNL     1     -17.878 -63.688  24.921  1.00  0.00    -0.224 NA
HETATM    3  C   UNL     1     -18.661 -65.908  23.540  1.00  0.00     0.133 A 
HETATM    4  C   UNL     1     -17.885 -64.973  22.886  1.00  0.00     0.100 A 
HETATM    5  C   UNL     1     -17.516 -63.866  23.629  1.00  0.00     0.133 A 
HETATM    6  C   UNL     1     -18.635 -64.670  25.446  1.00  0.00     0.237 A 
ENDROOT
BRANCH   3   7
HETATM    7  N   UNL     1     -19.058 -67.054  22.808  1.00  0.00    -0.341 N 
HETATM    8  H   UNL     1     -19.848 -66.886  22.191  1.00  0.00     0.167 HD
BRANCH   7   9
HETATM    9  C   UNL     1     -18.568 -68.369  22.767  1.00  0.00     0.035 A 
HETATM   10  C   UNL     1     -18.457 -69.117  23.942  1.00  0.00     0.059 A 
HETATM   11  C   UNL     1     -17.971 -70.423  23.900  1.00  0.00     0.036 A 
HETATM   12  C   UNL     1     -17.594 -70.988  22.681  1.00  0.00     0.029 A 
HETATM   13  C   UNL     1     -17.703 -70.246  21.505  1.00  0.00     0.004 A 
HETATM   14  C   UNL     1     -18.188 -68.939  21.548  1.00  0.00     0.029 A 
BRANCH  11  15
HETATM   15  N   UNL     1     -17.863 -71.166  25.076  1.00  0.00    -0.327 N 
HETATM   16  C   UNL     1     -18.849 -71.926  25.708  1.00  0.00     0.226 C 
HETATM   17  O   UNL     1     -20.009 -72.094  25.355  1.00  0.00    -0.273 OA
HETATM   18  H   UNL     1     -16.949 -71.139  25.523  1.00  0.00     0.169 HD
BRANCH  16  19
HETATM   19  C   UNL     1     -18.384 -72.599  26.962  1.00  0.00     0.078 A 
HETATM   20  C   UNL     1     -18.535 -74.075  27.069  1.00  0.00     0.015 A 
HETATM   21  C   UNL     1     -19.410 -73.166  27.879  1.00  0.00     0.015 A 
ENDBRANCH  16  19
ENDBRANCH  11  15
ENDBRANCH   7   9
ENDBRANCH   3   7
BRANCH   5  22
HETATM   22  N   UNL     1     -16.723 -62.888  22.998  1.00  0.00    -0.341 N 
HETATM   23  H   UNL     1     -15.790 -63.224  22.768  1.00  0.00     0.167 HD
BRANCH  22  24
HETATM   24  C   UNL     1     -16.829 -61.485  22.910  1.00  0.00     0.034 A 
HETATM   25  C   UNL     1     -15.823 -60.674  23.437  1.00  0.00     0.045 A 
HETATM   26  C   UNL     1     -15.928 -59.286  23.348  1.00  0.00     0.050 A 
HETATM   27  C   UNL     1     -17.038 -58.709  22.732  1.00  0.00     0.016 A 
HETATM   28  C   UNL     1     -18.044 -59.518  22.206  1.00  0.00     0.003 A 
HETATM   29  C   UNL     1     -17.939 -60.907  22.295  1.00  0.00     0.029 A 
BRANCH  26  30
HETATM   30  C   UNL     1     -14.852 -58.419  23.911  1.00  0.00     0.417 C 
HETATM   31  F   UNL     1     -13.713 -58.401  23.158  1.00  0.00    -0.166 F 
HETATM   32  F   UNL     1     -15.217 -57.109  24.037  1.00  0.00    -0.166 F 
HETATM   33  F   UNL     1     -14.461 -58.812  25.159  1.00  0.00    -0.166 F 
ENDBRANCH  26  30
ENDBRANCH  22  24
ENDBRANCH   5  22
TORSDOF 7
ENDMDL
MODEL 4
REMARK VINA RESULT:      -6.1      2.725      3.913
REMARK  7 active torsions:
REMARK  status: ('A' for Active; 'I' for Inactive)
REMARK       I    between atoms: N_5  and  C_13 
REMARK    1  A    between atoms: N_5  and  C_14 
REMARK    2  A    between atoms: N_6  and  C_17 
REMARK    3  A    between atoms: N_6  and  C_20 
REMARK    4  A    between atoms: N_7  and  C_21 
REMARK    5  A    between atoms: N_7  and  C_23 
REMARK    6  A    between atoms: C_10  and  C_13 
REMARK    7  A    between atoms: C_24  and  C_29 
ROOT
HETATM    1  N   UNL     1     -18.283 -66.263  25.403  1.00  0.00    -0.224 NA
HETATM    2  N   UNL     1     -17.988 -63.963  24.747  1.00  0.00    -0.224 NA
HETATM    3  C   UNL     1     -17.513 -66.622  24.355  1.00  0.00     0.133 A 
HETATM    4  C   UNL     1     -16.952 -65.722  23.472  1.00  0.00     0.100 A 
HETATM    5  C   UNL     1     -17.223 -64.387  23.714  1.00  0.00     0.133 A 
HETATM    6  C   UNL     1     -18.478 -64.937  25.537  1.00  0.00     0.237 A 
ENDROOT
BRANCH   3   7
HETATM    7  N   UNL     1     -17.256 -67.998  24.136  1.00  0.00    -0.341 N 
HETATM    8  H   UNL     1     -16.417 -68.332  24.601  1.00  0.00     0.167 HD
BRANCH   7   9
HETATM    9  C   UNL     1     -17.941 -68.985  23.409  1.00  0.00     0.035 A 
HETATM   10  C   UNL     1     -18.933 -68.625  22.493  1.00  0.00     0.059 A 
HETATM   11  C   UNL     1     -19.611 -69.607  21.771  1.00  0.00     0.036 A 
HETATM   12  C   UNL     1     -19.299 -70.953  21.960  1.00  0.00     0.029 A 
HETATM   13  C   UNL     1     -18.309 -71.318  22.872  1.00  0.00     0.004 A 
HETATM   14  C   UNL     1     -17.632 -70.336  23.596  1.00  0.00     0.029 A 
BRANCH  11  15
HETATM   15  N   UNL     1     -20.601 -69.242  20.857  1.00  0.00    -0.327 N 
HETATM   16  C   UNL     1     -21.986 -69.364  20.994  1.00  0.00     0.226 C 
HETATM   17  O   UNL     1     -22.609 -69.815  21.945  1.00  0.00    -0.273 OA
HETATM   18  H   UNL     1     -20.261 -68.845  19.984  1.00  0.00     0.169 HD
BRANCH  16  19
HETATM   19  C   UNL     1     -22.757 -68.869  19.810  1.00  0.00     0.078 A 
HETATM   20  C   UNL     1     -22.721 -69.673  18.558  1.00  0.00     0.015 A 
HETATM   21  C   UNL     1     -21.995 -68.362  18.635  1.00  0.00     0.015 A 
ENDBRANCH  16  19
ENDBRANCH  11  15
ENDBRANCH   7   9
ENDBRANCH   3   7
BRANCH   5  22
HETATM   22  N   UNL     1     -16.669 -63.436  22.836  1.00  0.00    -0.341 N 
HETATM   23  H   UNL     1     -15.830 -63.772  22.368  1.00  0.00     0.167 HD
BRANCH  22  24
HETATM   24  C   UNL     1     -16.835 -62.042  22.710  1.00  0.00     0.034 A 
HETATM   25  C   UNL     1     -15.865 -61.174  23.211  1.00  0.00     0.045 A 
HETATM   26  C   UNL     1     -16.029 -59.795  23.085  1.00  0.00     0.050 A 
HETATM   27  C   UNL     1     -17.165 -59.283  22.458  1.00  0.00     0.016 A 
HETATM   28  C   UNL     1     -18.136 -60.149  21.957  1.00  0.00     0.003 A 
HETATM   29  C   UNL     1     -17.971 -61.529  22.083  1.00  0.00     0.029 A 
BRANCH  26  30
HETATM   30  C   UNL     1     -14.991 -58.868  23.621  1.00  0.00     0.417 C 
HETATM   31  F   UNL     1     -14.594 -59.167  24.893  1.00  0.00    -0.166 F 
HETATM   32  F   UNL     1     -13.842 -58.849  22.884  1.00  0.00    -0.166 F 
HETATM   33  F   UNL     1     -15.418 -57.571  23.667  1.00  0.00    -0.166 F 
ENDBRANCH  26  30
ENDBRANCH  22  24
ENDBRANCH   5  22
TORSDOF 7
ENDMDL
MODEL 5
REMARK VINA RESULT:      -6.1      5.557     10.910
REMARK  7 active torsions:
REMARK  status: ('A' for Active; 'I' for Inactive)
REMARK       I    between atoms: N_5  and  C_13 
REMARK    1  A    between atoms: N_5  and  C_14 
REMARK    2  A    between atoms: N_6  and  C_17 
REMARK    3  A    between atoms: N_6  and  C_20 
REMARK    4  A    between atoms: N_7  and  C_21 
REMARK    5  A    between atoms: N_7  and  C_23 
REMARK    6  A    between atoms: C_10  and  C_13 
REMARK    7  A    between atoms: C_24  and  C_29 
ROOT
HETATM    1  N   UNL     1     -19.369 -61.600  22.533  1.00  0.00    -0.224 NA
HETATM    2  N   UNL     1     -19.158 -63.981  22.836  1.00  0.00    -0.224 NA
HETATM    3  C   UNL     1     -18.041 -61.549  22.301  1.00  0.00     0.133 A 
HETATM    4  C   UNL     1     -17.217 -62.656  22.319  1.00  0.00     0.100 A 
HETATM    5  C   UNL     1     -17.831 -63.864  22.595  1.00  0.00     0.133 A 
HETATM    6  C   UNL     1     -19.854 -62.830  22.791  1.00  0.00     0.237 A 
ENDROOT
BRANCH   3   7
HETATM    7  N   UNL     1     -17.445 -60.295  22.022  1.00  0.00    -0.341 N 
HETATM    8  H   UNL     1     -17.669 -59.937  21.098  1.00  0.00     0.167 HD
BRANCH   7   9
HETATM    9  C   UNL     1     -16.612 -59.453  22.777  1.00  0.00     0.035 A 
HETATM   10  C   UNL     1     -17.163 -58.434  23.558  1.00  0.00     0.059 A 
HETATM   11  C   UNL     1     -16.335 -57.599  24.308  1.00  0.00     0.036 A 
HETATM   12  C   UNL     1     -14.952 -57.780  24.280  1.00  0.00     0.029 A 
HETATM   13  C   UNL     1     -14.397 -58.795  23.502  1.00  0.00     0.004 A 
HETATM   14  C   UNL     1     -15.225 -59.630  22.751  1.00  0.00     0.029 A 
BRANCH  11  15
HETATM   15  N   UNL     1     -16.890 -56.583  25.088  1.00  0.00    -0.327 N 
HETATM   16  C   UNL     1     -16.790 -55.203  24.902  1.00  0.00     0.226 C 
HETATM   17  O   UNL     1     -16.196 -54.606  24.014  1.00  0.00    -0.273 OA
HETATM   18  H   UNL     1     -17.427 -56.899  25.893  1.00  0.00     0.169 HD
BRANCH  16  19
HETATM   19  C   UNL     1     -17.515 -54.399  25.936  1.00  0.00     0.078 A 
HETATM   20  C   UNL     1     -17.064 -54.496  27.350  1.00  0.00     0.015 A 
HETATM   21  C   UNL     1     -18.360 -55.122  26.926  1.00  0.00     0.015 A 
ENDBRANCH  16  19
ENDBRANCH  11  15
ENDBRANCH   7   9
ENDBRANCH   3   7
BRANCH   5  22
HETATM   22  N   UNL     1     -17.025 -65.018  22.622  1.00  0.00    -0.341 N 
HETATM   23  H   UNL     1     -16.290 -65.003  21.918  1.00  0.00     0.167 HD
BRANCH  22  24
HETATM   24  C   UNL     1     -17.210 -66.299  23.182  1.00  0.00     0.034 A 
HETATM   25  C   UNL     1     -17.589 -67.368  22.371  1.00  0.00     0.045 A 
HETATM   26  C   UNL     1     -17.769 -68.635  22.925  1.00  0.00     0.050 A 
HETATM   27  C   UNL     1     -17.572 -68.833  24.292  1.00  0.00     0.016 A 
HETATM   28  C   UNL     1     -17.193 -67.764  25.104  1.00  0.00     0.003 A 
HETATM   29  C   UNL     1     -17.012 -66.497  24.549  1.00  0.00     0.029 A 
BRANCH  26  30
HETATM   30  C   UNL     1     -18.175 -69.779  22.058  1.00  0.00     0.417 C 
HETATM   31  F   UNL     1     -18.217 -70.976  22.714  1.00  0.00    -0.166 F 
HETATM   32  F   UNL     1     -19.415 -69.632  21.505  1.00  0.00    -0.166 F 
HETATM   33  F   UNL     1     -17.325 -69.967  21.006  1.00  0.00    -0.166 F 
ENDBRANCH  26  30
ENDBRANCH  22  24
ENDBRANCH   5  22
TORSDOF 7
ENDMDL
MODEL 6
REMARK VINA RESULT:      -6.0      2.433      3.522
REMARK  7 active torsions:
REMARK  status: ('A' for Active; 'I' for Inactive)
REMARK       I    between atoms: N_5  and  C_13 
REMARK    1  A    between atoms: N_5  and  C_14 
REMARK    2  A    between atoms: N_6  and  C_17 
REMARK    3  A    between atoms: N_6  and  C_20 
REMARK    4  A    between atoms: N_7  and  C_21 
REMARK    5  A    between atoms: N_7  and  C_23 
REMARK    6  A    between atoms: C_10  and  C_13 
REMARK    7  A    between atoms: C_24  and  C_29 
ROOT
HETATM    1  N   UNL     1     -19.249 -66.503  22.730  1.00  0.00    -0.224 NA
HETATM    2  N   UNL     1     -18.836 -64.140  22.962  1.00  0.00    -0.224 NA
HETATM    3  C   UNL     1     -17.924 -66.679  22.545  1.00  0.00     0.133 A 
HETATM    4  C   UNL     1     -17.005 -65.649  22.556  1.00  0.00     0.100 A 
HETATM    5  C   UNL     1     -17.518 -64.382  22.771  1.00  0.00     0.133 A 
HETATM    6  C   UNL     1     -19.630 -65.227  22.929  1.00  0.00     0.237 A 
ENDROOT
BRANCH   3   7
HETATM    7  N   UNL     1     -17.433 -67.989  22.327  1.00  0.00    -0.341 N 
HETATM    8  H   UNL     1     -16.527 -68.011  21.868  1.00  0.00     0.167 HD
BRANCH   7   9
HETATM    9  C   UNL     1     -17.953 -69.258  22.629  1.00  0.00     0.035 A 
HETATM   10  C   UNL     1     -18.718 -69.949  21.686  1.00  0.00     0.059 A 
HETATM   11  C   UNL     1     -19.233 -71.209  21.986  1.00  0.00     0.036 A 
HETATM   12  C   UNL     1     -18.984 -71.786  23.232  1.00  0.00     0.029 A 
HETATM   13  C   UNL     1     -18.220 -71.102  24.177  1.00  0.00     0.004 A 
HETATM   14  C   UNL     1     -17.706 -69.840  23.876  1.00  0.00     0.029 A 
BRANCH  11  15
HETATM   15  N   UNL     1     -19.996 -71.895  21.040  1.00  0.00    -0.327 N 
HETATM   16  C   UNL     1     -21.387 -72.002  20.969  1.00  0.00     0.226 C 
HETATM   17  O   UNL     1     -22.217 -71.512  21.725  1.00  0.00    -0.273 OA
HETATM   18  H   UNL     1     -19.463 -72.379  20.321  1.00  0.00     0.169 HD
BRANCH  16  19
HETATM   19  C   UNL     1     -21.874 -72.820  19.814  1.00  0.00     0.078 A 
HETATM   20  C   UNL     1     -22.905 -72.233  18.918  1.00  0.00     0.015 A 
HETATM   21  C   UNL     1     -23.266 -73.344  19.859  1.00  0.00     0.015 A 
ENDBRANCH  16  19
ENDBRANCH  11  15
ENDBRANCH   7   9
ENDBRANCH   3   7
BRANCH   5  22
HETATM   22  N   UNL     1     -16.614 -63.303  22.789  1.00  0.00    -0.341 N 
HETATM   23  H   UNL     1     -15.706 -63.555  23.175  1.00  0.00     0.167 HD
BRANCH  22  24
HETATM   24  C   UNL     1     -16.790 -61.907  22.692  1.00  0.00     0.034 A 
HETATM   25  C   UNL     1     -15.863 -61.044  23.275  1.00  0.00     0.045 A 
HETATM   26  C   UNL     1     -16.037 -59.664  23.177  1.00  0.00     0.050 A 
HETATM   27  C   UNL     1     -17.140 -59.147  22.497  1.00  0.00     0.016 A 
HETATM   28  C   UNL     1     -18.067 -60.009  21.914  1.00  0.00     0.003 A 
HETATM   29  C   UNL     1     -17.892 -61.390  22.011  1.00  0.00     0.029 A 
BRANCH  26  30
HETATM   30  C   UNL     1     -15.046 -58.740  23.801  1.00  0.00     0.417 C 
HETATM   31  F   UNL     1     -15.476 -57.446  23.879  1.00  0.00    -0.166 F 
HETATM   32  F   UNL     1     -14.711 -59.081  25.080  1.00  0.00    -0.166 F 
HETATM   33  F   UNL     1     -13.867 -58.693  23.114  1.00  0.00    -0.166 F 
ENDBRANCH  26  30
ENDBRANCH  22  24
ENDBRANCH   5  22
TORSDOF 7
ENDMDL
MODEL 7
REMARK VINA RESULT:      -6.0      4.357      7.110
REMARK  7 active torsions:
REMARK  status: ('A' for Active; 'I' for Inactive)
REMARK       I    between atoms: N_5  and  C_13 
REMARK    1  A    between atoms: N_5  and  C_14 
REMARK    2  A    between atoms: N_6  and  C_17 
REMARK    3  A    between atoms: N_6  and  C_20 
REMARK    4  A    between atoms: N_7  and  C_21 
REMARK    5  A    between atoms: N_7  and  C_23 
REMARK    6  A    between atoms: C_10  and  C_13 
REMARK    7  A    between atoms: C_24  and  C_29 
ROOT
HETATM    1  N   UNL     1     -18.743 -66.313  24.453  1.00  0.00    -0.224 NA
HETATM    2  N   UNL     1     -17.679 -65.263  22.563  1.00  0.00    -0.224 NA
HETATM    3  C   UNL     1     -18.310 -65.289  25.218  1.00  0.00     0.133 A 
HETATM    4  C   UNL     1     -17.567 -64.231  24.735  1.00  0.00     0.100 A 
HETATM    5  C   UNL     1     -17.274 -64.266  23.383  1.00  0.00     0.133 A 
HETATM    6  C   UNL     1     -18.396 -66.237  23.154  1.00  0.00     0.237 A 
ENDROOT
BRANCH   3   7
HETATM    7  N   UNL     1     -18.628 -65.287  26.599  1.00  0.00    -0.341 N 
HETATM    8  H   UNL     1     -19.595 -65.531  26.792  1.00  0.00     0.167 HD
BRANCH   7   9
HETATM    9  C   UNL     1     -17.864 -65.019  27.747  1.00  0.00     0.035 A 
HETATM   10  C   UNL     1     -17.966 -63.782  28.388  1.00  0.00     0.059 A 
HETATM   11  C   UNL     1     -17.209 -63.518  29.528  1.00  0.00     0.036 A 
HETATM   12  C   UNL     1     -16.345 -64.491  30.034  1.00  0.00     0.029 A 
HETATM   13  C   UNL     1     -16.240 -65.727  29.397  1.00  0.00     0.004 A 
HETATM   14  C   UNL     1     -16.997 -65.991  28.256  1.00  0.00     0.029 A 
BRANCH  11  15
HETATM   15  N   UNL     1     -17.315 -62.281  30.166  1.00  0.00    -0.327 N 
HETATM   16  C   UNL     1     -16.933 -61.027  29.683  1.00  0.00     0.226 C 
HETATM   17  O   UNL     1     -16.430 -60.763  28.599  1.00  0.00    -0.273 OA
HETATM   18  H   UNL     1     -17.715 -62.308  31.101  1.00  0.00     0.169 HD
BRANCH  16  19
HETATM   19  C   UNL     1     -17.193 -59.905  30.639  1.00  0.00     0.078 A 
HETATM   20  C   UNL     1     -17.265 -58.521  30.099  1.00  0.00     0.015 A 
HETATM   21  C   UNL     1     -16.087 -58.950  30.922  1.00  0.00     0.015 A 
ENDBRANCH  16  19
ENDBRANCH  11  15
ENDBRANCH   7   9
ENDBRANCH   3   7
BRANCH   5  22
HETATM   22  N   UNL     1     -16.518 -63.204  22.850  1.00  0.00    -0.341 N 
HETATM   23  H   UNL     1     -15.540 -63.448  22.708  1.00  0.00     0.167 HD
BRANCH  22  24
HETATM   24  C   UNL     1     -16.744 -61.814  22.775  1.00  0.00     0.034 A 
HETATM   25  C   UNL     1     -15.804 -60.924  23.295  1.00  0.00     0.045 A 
HETATM   26  C   UNL     1     -16.027 -59.550  23.219  1.00  0.00     0.050 A 
HETATM   27  C   UNL     1     -17.192 -59.065  22.624  1.00  0.00     0.016 A 
HETATM   28  C   UNL     1     -18.132 -59.954  22.104  1.00  0.00     0.003 A 
HETATM   29  C   UNL     1     -17.908 -61.329  22.180  1.00  0.00     0.029 A 
BRANCH  26  30
HETATM   30  C   UNL     1     -15.022 -58.598  23.775  1.00  0.00     0.417 C 
HETATM   31  F   UNL     1     -13.925 -58.434  22.980  1.00  0.00    -0.166 F 
HETATM   32  F   UNL     1     -15.512 -57.339  23.970  1.00  0.00    -0.166 F 
HETATM   33  F   UNL     1     -14.538 -58.995  24.989  1.00  0.00    -0.166 F 
ENDBRANCH  26  30
ENDBRANCH  22  24
ENDBRANCH   5  22
TORSDOF 7
ENDMDL
MODEL 8
REMARK VINA RESULT:      -5.9      5.771     11.220
REMARK  7 active torsions:
REMARK  status: ('A' for Active; 'I' for Inactive)
REMARK       I    between atoms: N_5  and  C_13 
REMARK    1  A    between atoms: N_5  and  C_14 
REMARK    2  A    between atoms: N_6  and  C_17 
REMARK    3  A    between atoms: N_6  and  C_20 
REMARK    4  A    between atoms: N_7  and  C_21 
REMARK    5  A    between atoms: N_7  and  C_23 
REMARK    6  A    between atoms: C_10  and  C_13 
REMARK    7  A    between atoms: C_24  and  C_29 
ROOT
HETATM    1  N   UNL     1     -18.650 -60.982  22.820  1.00  0.00    -0.224 NA
HETATM    2  N   UNL     1     -18.915 -63.318  22.290  1.00  0.00    -0.224 NA
HETATM    3  C   UNL     1     -17.337 -61.216  23.025  1.00  0.00     0.133 A 
HETATM    4  C   UNL     1     -16.748 -62.456  22.883  1.00  0.00     0.100 A 
HETATM    5  C   UNL     1     -17.591 -63.487  22.510  1.00  0.00     0.133 A 
HETATM    6  C   UNL     1     -19.370 -62.062  22.461  1.00  0.00     0.237 A 
ENDROOT
BRANCH   3   7
HETATM    7  N   UNL     1     -16.503 -60.137  23.407  1.00  0.00    -0.341 N 
HETATM    8  H   UNL     1     -15.566 -60.191  23.018  1.00  0.00     0.167 HD
BRANCH   7   9
HETATM    9  C   UNL     1     -16.724 -59.007  24.212  1.00  0.00     0.035 A 
HETATM   10  C   UNL     1     -17.059 -57.781  23.629  1.00  0.00     0.059 A 
HETATM   11  C   UNL     1     -17.279 -56.661  24.429  1.00  0.00     0.036 A 
HETATM   12  C   UNL     1     -17.167 -56.761  25.816  1.00  0.00     0.029 A 
HETATM   13  C   UNL     1     -16.834 -57.981  26.403  1.00  0.00     0.004 A 
HETATM   14  C   UNL     1     -16.612 -59.102  25.602  1.00  0.00     0.029 A 
BRANCH  11  15
HETATM   15  N   UNL     1     -17.614 -55.439  23.843  1.00  0.00    -0.327 N 
HETATM   16  C   UNL     1     -16.881 -54.250  23.852  1.00  0.00     0.226 C 
HETATM   17  O   UNL     1     -15.796 -54.042  24.378  1.00  0.00    -0.273 OA
HETATM   18  H   UNL     1     -18.507 -55.423  23.355  1.00  0.00     0.169 HD
BRANCH  16  19
HETATM   19  C   UNL     1     -17.543 -53.126  23.118  1.00  0.00     0.078 A 
HETATM   20  C   UNL     1     -19.030 -53.072  23.102  1.00  0.00     0.015 A 
HETATM   21  C   UNL     1     -18.273 -53.439  21.860  1.00  0.00     0.015 A 
ENDBRANCH  16  19
ENDBRANCH  11  15
ENDBRANCH   7   9
ENDBRANCH   3   7
BRANCH   5  22
HETATM   22  N   UNL     1     -17.028 -64.769  22.354  1.00  0.00    -0.341 N 
HETATM   23  H   UNL     1     -16.449 -64.847  21.521  1.00  0.00     0.167 HD
BRANCH  22  24
HETATM   24  C   UNL     1     -17.346 -66.025  22.911  1.00  0.00     0.034 A 
HETATM   25  C   UNL     1     -17.319 -67.169  22.114  1.00  0.00     0.045 A 
HETATM   26  C   UNL     1     -17.631 -68.411  22.666  1.00  0.00     0.050 A 
HETATM   27  C   UNL     1     -17.970 -68.509  24.015  1.00  0.00     0.016 A 
HETATM   28  C   UNL     1     -17.998 -67.365  24.813  1.00  0.00     0.003 A 
HETATM   29  C   UNL     1     -17.685 -66.123  24.260  1.00  0.00     0.029 A 
BRANCH  26  30
HETATM   30  C   UNL     1     -17.603 -69.635  21.814  1.00  0.00     0.417 C 
HETATM   31  F   UNL     1     -17.075 -69.426  20.572  1.00  0.00    -0.166 F 
HETATM   32  F   UNL     1     -16.867 -70.655  22.347  1.00  0.00    -0.166 F 
HETATM   33  F   UNL     1     -18.848 -70.155  21.599  1.00  0.00    -0.166 F 
ENDBRANCH  26  30
ENDBRANCH  22  24
ENDBRANCH   5  22
TORSDOF 7
ENDMDL
MODEL 9
REMARK VINA RESULT:      -5.9      2.407      4.102
REMARK  7 active torsions:
REMARK  status: ('A' for Active; 'I' for Inactive)
REMARK       I    between atoms: N_5  and  C_13 
REMARK    1  A    between atoms: N_5  and  C_14 
REMARK    2  A    between atoms: N_6  and  C_17 
REMARK    3  A    between atoms: N_6  and  C_20 
REMARK    4  A    between atoms: N_7  and  C_21 
REMARK    5  A    between atoms: N_7  and  C_23 
REMARK    6  A    between atoms: C_10  and  C_13 
REMARK    7  A    between atoms: C_24  and  C_29 
ROOT
HETATM    1  N   UNL     1     -19.604 -63.801  22.893  1.00  0.00    -0.224 NA
HETATM    2  N   UNL     1     -19.582 -61.418  22.536  1.00  0.00    -0.224 NA
HETATM    3  C   UNL     1     -18.278 -63.813  22.641  1.00  0.00     0.133 A 
HETATM    4  C   UNL     1     -17.545 -62.685  22.335  1.00  0.00     0.100 A 
HETATM    5  C   UNL     1     -18.252 -61.497  22.293  1.00  0.00     0.133 A 
HETATM    6  C   UNL     1     -20.184 -62.587  22.823  1.00  0.00     0.237 A 
ENDROOT
BRANCH   3   7
HETATM    7  N   UNL     1     -17.586 -65.048  22.691  1.00  0.00    -0.341 N 
HETATM    8  H   UNL     1     -17.029 -65.234  21.862  1.00  0.00     0.167 HD
BRANCH   7   9
HETATM    9  C   UNL     1     -17.516 -66.057  23.666  1.00  0.00     0.035 A 
HETATM   10  C   UNL     1     -17.260 -65.730  25.001  1.00  0.00     0.059 A 
HETATM   11  C   UNL     1     -17.193 -66.732  25.968  1.00  0.00     0.036 A 
HETATM   12  C   UNL     1     -17.382 -68.066  25.605  1.00  0.00     0.029 A 
HETATM   13  C   UNL     1     -17.638 -68.397  24.275  1.00  0.00     0.004 A 
HETATM   14  C   UNL     1     -17.704 -67.395  23.307  1.00  0.00     0.029 A 
BRANCH  11  15
HETATM   15  N   UNL     1     -16.938 -66.401  27.300  1.00  0.00    -0.327 N 
HETATM   16  C   UNL     1     -17.847 -66.324  28.357  1.00  0.00     0.226 C 
HETATM   17  O   UNL     1     -19.053 -66.534  28.327  1.00  0.00    -0.273 OA
HETATM   18  H   UNL     1     -15.967 -66.186  27.514  1.00  0.00     0.169 HD
BRANCH  16  19
HETATM   19  C   UNL     1     -17.225 -65.938  29.663  1.00  0.00     0.078 A 
HETATM   20  C   UNL     1     -16.745 -64.540  29.830  1.00  0.00     0.015 A 
HETATM   21  C   UNL     1     -15.762 -65.666  29.693  1.00  0.00     0.015 A 
ENDBRANCH  16  19
ENDBRANCH  11  15
ENDBRANCH   7   9
ENDBRANCH   3   7
BRANCH   5  22
HETATM   22  N   UNL     1     -17.541 -60.322  21.984  1.00  0.00    -0.341 N 
HETATM   23  H   UNL     1     -17.454 -60.165  20.982  1.00  0.00     0.167 HD
BRANCH  22  24
HETATM   24  C   UNL     1     -16.668 -59.508  22.736  1.00  0.00     0.034 A 
HETATM   25  C   UNL     1     -17.173 -58.437  23.474  1.00  0.00     0.045 A 
HETATM   26  C   UNL     1     -16.310 -57.635  24.218  1.00  0.00     0.050 A 
HETATM   27  C   UNL     1     -14.941 -57.902  24.225  1.00  0.00     0.016 A 
HETATM   28  C   UNL     1     -14.435 -58.973  23.488  1.00  0.00     0.003 A 
HETATM   29  C   UNL     1     -15.299 -59.776  22.743  1.00  0.00     0.029 A 
BRANCH  26  30
HETATM   30  C   UNL     1     -16.849 -56.489  25.007  1.00  0.00     0.417 C 
HETATM   31  F   UNL     1     -16.289 -55.287  24.681  1.00  0.00    -0.166 F 
HETATM   32  F   UNL     1     -18.194 -56.308  24.857  1.00  0.00    -0.166 F 
HETATM   33  F   UNL     1     -16.647 -56.635  26.350  1.00  0.00    -0.166 F 
ENDBRANCH  26  30
ENDBRANCH  22  24
ENDBRANCH   5  22
TORSDOF 7
ENDMDL
