MODEL 1
REMARK VINA RESULT:      -6.8      0.000      0.000
REMARK  7 active torsions:
REMARK  status: ('A' for Active; 'I' for Inactive)
REMARK       I    between atoms: N_5  and  C_13 
REMARK    1  A    between atoms: N_5  and  C_14 
REMARK    2  A    between atoms: N_6  and  C_17 
REMARK    3  A    between atoms: N_6  and  C_20 
REMARK    4  A    between atoms: N_7  and  C_21 
REMARK    5  A    between atoms: N_7  and  C_23 
REMARK    6  A    between atoms: C_10  and  C_13 
REMARK    7  A    between atoms: C_24  and  C_29 
ROOT
HETATM    1  N   UNL     1      -7.422 -70.144   8.269  1.00  0.00    -0.224 NA
HETATM    2  N   UNL     1      -6.142 -69.698  10.261  1.00  0.00    -0.224 NA
HETATM    3  C   UNL     1      -8.521 -69.717   8.924  1.00  0.00     0.133 A 
HETATM    4  C   UNL     1      -8.510 -69.271  10.230  1.00  0.00     0.100 A 
HETATM    5  C   UNL     1      -7.280 -69.282  10.863  1.00  0.00     0.133 A 
HETATM    6  C   UNL     1      -6.283 -70.110   8.987  1.00  0.00     0.237 A 
ENDROOT
BRANCH   3   7
HETATM    7  N   UNL     1      -9.764 -69.721   8.246  1.00  0.00    -0.341 N 
HETATM    8  H   UNL     1      -9.980 -68.838   7.791  1.00  0.00     0.167 HD
BRANCH   7   9
HETATM    9  C   UNL     1     -10.749 -70.708   8.076  1.00  0.00     0.035 A 
HETATM   10  C   UNL     1     -10.482 -72.036   8.422  1.00  0.00     0.059 A 
HETATM   11  C   UNL     1     -11.460 -73.015   8.254  1.00  0.00     0.036 A 
HETATM   12  C   UNL     1     -12.711 -72.671   7.741  1.00  0.00     0.029 A 
HETATM   13  C   UNL     1     -12.983 -71.347   7.395  1.00  0.00     0.004 A 
HETATM   14  C   UNL     1     -12.003 -70.368   7.561  1.00  0.00     0.029 A 
BRANCH  11  15
HETATM   15  N   UNL     1     -11.190 -74.339   8.601  1.00  0.00    -0.327 N 
HETATM   16  C   UNL     1     -11.863 -75.143   9.524  1.00  0.00     0.226 C 
HETATM   17  O   UNL     1     -12.830 -74.845  10.213  1.00  0.00    -0.273 OA
HETATM   18  H   UNL     1     -10.397 -74.760   8.121  1.00  0.00     0.169 HD
BRANCH  16  19
HETATM   19  C   UNL     1     -11.301 -76.525   9.648  1.00  0.00     0.078 A 
HETATM   20  C   UNL     1      -9.824 -76.692   9.593  1.00  0.00     0.015 A 
HETATM   21  C   UNL     1     -10.678 -77.142   8.445  1.00  0.00     0.015 A 
ENDBRANCH  16  19
ENDBRANCH  11  15
ENDBRANCH   7   9
ENDBRANCH   3   7
BRANCH   5  22
HETATM   22  N   UNL     1      -7.226 -68.834  12.197  1.00  0.00    -0.341 N 
HETATM   23  H   UNL     1      -6.912 -67.870  12.278  1.00  0.00     0.167 HD
BRANCH  22  24
HETATM   24  C   UNL     1      -7.203 -69.515  13.432  1.00  0.00     0.034 A 
HETATM   25  C   UNL     1      -8.356 -69.581  14.215  1.00  0.00     0.045 A 
HETATM   26  C   UNL     1      -8.333 -70.256  15.435  1.00  0.00     0.050 A 
HETATM   27  C   UNL     1      -7.157 -70.863  15.874  1.00  0.00     0.016 A 
HETATM   28  C   UNL     1      -6.003 -70.796  15.093  1.00  0.00     0.003 A 
HETATM   29  C   UNL     1      -6.027 -70.122  13.871  1.00  0.00     0.029 A 
BRANCH  26  30
HETATM   30  C   UNL     1      -9.566 -70.327  16.272  1.00  0.00     0.417 C 
HETATM   31  F   UNL     1      -9.537 -71.323  17.206  1.00  0.00    -0.166 F 
HETATM   32  F   UNL     1      -9.815 -69.184  16.977  1.00  0.00    -0.166 F 
HETATM   33  F   UNL     1     -10.691 -70.553  15.531  1.00  0.00    -0.166 F 
ENDBRANCH  26  30
ENDBRANCH  22  24
ENDBRANCH   5  22
TORSDOF 7
ENDMDL
MODEL 2
REMARK VINA RESULT:      -6.3     15.852     17.509
REMARK  7 active torsions:
REMARK  status: ('A' for Active; 'I' for Inactive)
REMARK       I    between atoms: N_5  and  C_13 
REMARK    1  A    between atoms: N_5  and  C_14 
REMARK    2  A    between atoms: N_6  and  C_17 
REMARK    3  A    between atoms: N_6  and  C_20 
REMARK    4  A    between atoms: N_7  and  C_21 
REMARK    5  A    between atoms: N_7  and  C_23 
REMARK    6  A    between atoms: C_10  and  C_13 
REMARK    7  A    between atoms: C_24  and  C_29 
ROOT
HETATM    1  N   UNL     1     -19.222 -63.900  22.919  1.00  0.00    -0.224 NA
HETATM    2  N   UNL     1     -19.307 -61.511  22.612  1.00  0.00    -0.224 NA
HETATM    3  C   UNL     1     -17.908 -63.855  22.616  1.00  0.00     0.133 A 
HETATM    4  C   UNL     1     -17.232 -62.692  22.306  1.00  0.00     0.100 A 
HETATM    5  C   UNL     1     -17.986 -61.532  22.317  1.00  0.00     0.133 A 
HETATM    6  C   UNL     1     -19.851 -62.709  22.897  1.00  0.00     0.237 A 
ENDROOT
BRANCH   3   7
HETATM    7  N   UNL     1     -17.166 -65.061  22.613  1.00  0.00    -0.341 N 
HETATM    8  H   UNL     1     -16.464 -65.103  21.880  1.00  0.00     0.167 HD
BRANCH   7   9
HETATM    9  C   UNL     1     -17.211 -66.203  23.430  1.00  0.00     0.035 A 
HETATM   10  C   UNL     1     -17.913 -67.338  23.016  1.00  0.00     0.059 A 
HETATM   11  C   UNL     1     -17.956 -68.471  23.827  1.00  0.00     0.036 A 
HETATM   12  C   UNL     1     -17.295 -68.476  25.056  1.00  0.00     0.029 A 
HETATM   13  C   UNL     1     -16.592 -67.346  25.474  1.00  0.00     0.004 A 
HETATM   14  C   UNL     1     -16.551 -66.211  24.662  1.00  0.00     0.029 A 
BRANCH  11  15
HETATM   15  N   UNL     1     -18.658 -69.603  23.409  1.00  0.00    -0.327 N 
HETATM   16  C   UNL     1     -18.239 -70.599  22.525  1.00  0.00     0.226 C 
HETATM   17  O   UNL     1     -17.168 -70.679  21.938  1.00  0.00    -0.273 OA
HETATM   18  H   UNL     1     -19.593 -69.702  23.800  1.00  0.00     0.169 HD
BRANCH  16  19
HETATM   19  C   UNL     1     -19.254 -71.676  22.300  1.00  0.00     0.078 A 
HETATM   20  C   UNL     1     -20.137 -72.060  23.434  1.00  0.00     0.015 A 
HETATM   21  C   UNL     1     -19.051 -72.987  22.975  1.00  0.00     0.015 A 
ENDBRANCH  16  19
ENDBRANCH  11  15
ENDBRANCH   7   9
ENDBRANCH   3   7
BRANCH   5  22
HETATM   22  N   UNL     1     -17.334 -60.324  22.005  1.00  0.00    -0.341 N 
HETATM   23  H   UNL     1     -17.234 -60.176  21.004  1.00  0.00     0.167 HD
BRANCH  22  24
HETATM   24  C   UNL     1     -16.524 -59.453  22.764  1.00  0.00     0.034 A 
HETATM   25  C   UNL     1     -17.105 -58.412  23.488  1.00  0.00     0.045 A 
HETATM   26  C   UNL     1     -16.303 -57.553  24.238  1.00  0.00     0.050 A 
HETATM   27  C   UNL     1     -14.921 -57.734  24.265  1.00  0.00     0.016 A 
HETATM   28  C   UNL     1     -14.339 -58.775  23.541  1.00  0.00     0.003 A 
HETATM   29  C   UNL     1     -15.141 -59.635  22.790  1.00  0.00     0.029 A 
BRANCH  26  30
HETATM   30  C   UNL     1     -16.924 -56.439  25.013  1.00  0.00     0.417 C 
HETATM   31  F   UNL     1     -16.400 -55.212  24.723  1.00  0.00    -0.166 F 
HETATM   32  F   UNL     1     -18.267 -56.311  24.804  1.00  0.00    -0.166 F 
HETATM   33  F   UNL     1     -16.776 -56.591  26.362  1.00  0.00    -0.166 F 
ENDBRANCH  26  30
ENDBRANCH  22  24
ENDBRANCH   5  22
TORSDOF 7
ENDMDL
MODEL 3
REMARK VINA RESULT:      -6.2     15.214     17.308
REMARK  7 active torsions:
REMARK  status: ('A' for Active; 'I' for Inactive)
REMARK       I    between atoms: N_5  and  C_13 
REMARK    1  A    between atoms: N_5  and  C_14 
REMARK    2  A    between atoms: N_6  and  C_17 
REMARK    3  A    between atoms: N_6  and  C_20 
REMARK    4  A    between atoms: N_7  and  C_21 
REMARK    5  A    between atoms: N_7  and  C_23 
REMARK    6  A    between atoms: C_10  and  C_13 
REMARK    7  A    between atoms: C_24  and  C_29 
ROOT
HETATM    1  N   UNL     1     -19.308 -66.810  23.043  1.00  0.00    -0.224 NA
HETATM    2  N   UNL     1     -18.858 -64.463  23.354  1.00  0.00    -0.224 NA
HETATM    3  C   UNL     1     -18.013 -66.975  22.703  1.00  0.00     0.133 A 
HETATM    4  C   UNL     1     -17.092 -65.947  22.666  1.00  0.00     0.100 A 
HETATM    5  C   UNL     1     -17.571 -64.694  23.004  1.00  0.00     0.133 A 
HETATM    6  C   UNL     1     -19.658 -65.546  23.351  1.00  0.00     0.237 A 
ENDROOT
BRANCH   3   7
HETATM    7  N   UNL     1     -17.557 -68.272  22.362  1.00  0.00    -0.341 N 
HETATM    8  H   UNL     1     -16.776 -68.268  21.712  1.00  0.00     0.167 HD
BRANCH   7   9
HETATM    9  C   UNL     1     -17.971 -69.556  22.754  1.00  0.00     0.035 A 
HETATM   10  C   UNL     1     -17.881 -69.947  24.093  1.00  0.00     0.059 A 
HETATM   11  C   UNL     1     -18.293 -71.221  24.481  1.00  0.00     0.036 A 
HETATM   12  C   UNL     1     -18.798 -72.110  23.532  1.00  0.00     0.029 A 
HETATM   13  C   UNL     1     -18.890 -71.725  22.195  1.00  0.00     0.004 A 
HETATM   14  C   UNL     1     -18.477 -70.450  21.806  1.00  0.00     0.029 A 
BRANCH  11  15
HETATM   15  N   UNL     1     -18.202 -71.607  25.819  1.00  0.00    -0.327 N 
HETATM   16  C   UNL     1     -19.010 -71.209  26.887  1.00  0.00     0.226 C 
HETATM   17  O   UNL     1     -19.963 -70.442  26.861  1.00  0.00    -0.273 OA
HETATM   18  H   UNL     1     -17.446 -72.254  26.033  1.00  0.00     0.169 HD
BRANCH  16  19
HETATM   19  C   UNL     1     -18.627 -71.824  28.197  1.00  0.00     0.078 A 
HETATM   20  C   UNL     1     -19.684 -72.500  28.995  1.00  0.00     0.015 A 
HETATM   21  C   UNL     1     -19.123 -71.184  29.446  1.00  0.00     0.015 A 
ENDBRANCH  16  19
ENDBRANCH  11  15
ENDBRANCH   7   9
ENDBRANCH   3   7
BRANCH   5  22
HETATM   22  N   UNL     1     -16.664 -63.617  22.979  1.00  0.00    -0.341 N 
HETATM   23  H   UNL     1     -15.798 -63.819  23.475  1.00  0.00     0.167 HD
BRANCH  22  24
HETATM   24  C   UNL     1     -16.820 -62.243  22.702  1.00  0.00     0.034 A 
HETATM   25  C   UNL     1     -15.934 -61.315  23.250  1.00  0.00     0.045 A 
HETATM   26  C   UNL     1     -16.088 -59.957  22.974  1.00  0.00     0.050 A 
HETATM   27  C   UNL     1     -17.128 -59.526  22.150  1.00  0.00     0.016 A 
HETATM   28  C   UNL     1     -18.013 -60.454  21.601  1.00  0.00     0.003 A 
HETATM   29  C   UNL     1     -17.859 -61.813  21.878  1.00  0.00     0.029 A 
BRANCH  26  30
HETATM   30  C   UNL     1     -15.141 -58.964  23.560  1.00  0.00     0.417 C 
HETATM   31  F   UNL     1     -14.731 -59.279  24.824  1.00  0.00    -0.166 F 
HETATM   32  F   UNL     1     -13.991 -58.814  22.839  1.00  0.00    -0.166 F 
HETATM   33  F   UNL     1     -15.682 -57.714  23.651  1.00  0.00    -0.166 F 
ENDBRANCH  26  30
ENDBRANCH  22  24
ENDBRANCH   5  22
TORSDOF 7
ENDMDL
MODEL 4
REMARK VINA RESULT:      -6.2      2.634      3.299
REMARK  7 active torsions:
REMARK  status: ('A' for Active; 'I' for Inactive)
REMARK       I    between atoms: N_5  and  C_13 
REMARK    1  A    between atoms: N_5  and  C_14 
REMARK    2  A    between atoms: N_6  and  C_17 
REMARK    3  A    between atoms: N_6  and  C_20 
REMARK    4  A    between atoms: N_7  and  C_21 
REMARK    5  A    between atoms: N_7  and  C_23 
REMARK    6  A    between atoms: C_10  and  C_13 
REMARK    7  A    between atoms: C_24  and  C_29 
ROOT
HETATM    1  N   UNL     1      -6.852 -70.523   7.387  1.00  0.00    -0.224 NA
HETATM    2  N   UNL     1      -5.810 -69.117   9.042  1.00  0.00    -0.224 NA
HETATM    3  C   UNL     1      -7.822 -70.797   8.284  1.00  0.00     0.133 A 
HETATM    4  C   UNL     1      -7.854 -70.275   9.561  1.00  0.00     0.100 A 
HETATM    5  C   UNL     1      -6.812 -69.430   9.896  1.00  0.00     0.133 A 
HETATM    6  C   UNL     1      -5.891 -69.689   7.826  1.00  0.00     0.237 A 
ENDROOT
BRANCH   3   7
HETATM    7  N   UNL     1      -8.874 -71.667   7.907  1.00  0.00    -0.341 N 
HETATM    8  H   UNL     1      -8.562 -72.610   7.691  1.00  0.00     0.167 HD
BRANCH   7   9
HETATM    9  C   UNL     1     -10.261 -71.480   7.783  1.00  0.00     0.035 A 
HETATM   10  C   UNL     1     -11.148 -72.448   8.260  1.00  0.00     0.059 A 
HETATM   11  C   UNL     1     -12.524 -72.260   8.137  1.00  0.00     0.036 A 
HETATM   12  C   UNL     1     -13.020 -71.102   7.536  1.00  0.00     0.029 A 
HETATM   13  C   UNL     1     -12.138 -70.133   7.058  1.00  0.00     0.004 A 
HETATM   14  C   UNL     1     -10.761 -70.322   7.181  1.00  0.00     0.029 A 
BRANCH  11  15
HETATM   15  N   UNL     1     -13.407 -73.230   8.615  1.00  0.00    -0.327 N 
HETATM   16  C   UNL     1     -14.257 -74.059   7.880  1.00  0.00     0.226 C 
HETATM   17  O   UNL     1     -14.397 -74.102   6.665  1.00  0.00    -0.273 OA
HETATM   18  H   UNL     1     -13.430 -73.333   9.628  1.00  0.00     0.169 HD
BRANCH  16  19
HETATM   19  C   UNL     1     -15.072 -74.990   8.722  1.00  0.00     0.078 A 
HETATM   20  C   UNL     1     -15.157 -74.727  10.184  1.00  0.00     0.015 A 
HETATM   21  C   UNL     1     -14.359 -75.890   9.670  1.00  0.00     0.015 A 
ENDBRANCH  16  19
ENDBRANCH  11  15
ENDBRANCH   7   9
ENDBRANCH   3   7
BRANCH   5  22
HETATM   22  N   UNL     1      -6.808 -68.877  11.191  1.00  0.00    -0.341 N 
HETATM   23  H   UNL     1      -5.873 -68.801  11.585  1.00  0.00     0.167 HD
BRANCH  22  24
HETATM   24  C   UNL     1      -7.818 -68.709  12.161  1.00  0.00     0.034 A 
HETATM   25  C   UNL     1      -8.929 -67.914  11.882  1.00  0.00     0.045 A 
HETATM   26  C   UNL     1      -9.928 -67.750  12.840  1.00  0.00     0.050 A 
HETATM   27  C   UNL     1      -9.816 -68.381  14.080  1.00  0.00     0.016 A 
HETATM   28  C   UNL     1      -8.705 -69.176  14.360  1.00  0.00     0.003 A 
HETATM   29  C   UNL     1      -7.705 -69.340  13.400  1.00  0.00     0.029 A 
BRANCH  26  30
HETATM   30  C   UNL     1     -11.117 -66.900  12.542  1.00  0.00     0.417 C 
HETATM   31  F   UNL     1     -10.849 -65.858  11.701  1.00  0.00    -0.166 F 
HETATM   32  F   UNL     1     -12.141 -67.582  11.949  1.00  0.00    -0.166 F 
HETATM   33  F   UNL     1     -11.654 -66.335  13.664  1.00  0.00    -0.166 F 
ENDBRANCH  26  30
ENDBRANCH  22  24
ENDBRANCH   5  22
TORSDOF 7
ENDMDL
MODEL 5
REMARK VINA RESULT:      -6.0      2.263      3.858
REMARK  7 active torsions:
REMARK  status: ('A' for Active; 'I' for Inactive)
REMARK       I    between atoms: N_5  and  C_13 
REMARK    1  A    between atoms: N_5  and  C_14 
REMARK    2  A    between atoms: N_6  and  C_17 
REMARK    3  A    between atoms: N_6  and  C_20 
REMARK    4  A    between atoms: N_7  and  C_21 
REMARK    5  A    between atoms: N_7  and  C_23 
REMARK    6  A    between atoms: C_10  and  C_13 
REMARK    7  A    between atoms: C_24  and  C_29 
ROOT
HETATM    1  N   UNL     1      -6.220 -71.174   8.738  1.00  0.00    -0.224 NA
HETATM    2  N   UNL     1      -6.373 -69.433  10.397  1.00  0.00    -0.224 NA
HETATM    3  C   UNL     1      -5.685 -71.976   9.682  1.00  0.00     0.133 A 
HETATM    4  C   UNL     1      -5.467 -71.583  10.987  1.00  0.00     0.100 A 
HETATM    5  C   UNL     1      -5.832 -70.286  11.298  1.00  0.00     0.133 A 
HETATM    6  C   UNL     1      -6.536 -69.934   9.157  1.00  0.00     0.237 A 
ENDROOT
BRANCH   3   7
HETATM    7  N   UNL     1      -5.322 -73.298   9.328  1.00  0.00    -0.341 N 
HETATM    8  H   UNL     1      -4.430 -73.357   8.845  1.00  0.00     0.167 HD
BRANCH   7   9
HETATM    9  C   UNL     1      -5.952 -74.538   9.523  1.00  0.00     0.035 A 
HETATM   10  C   UNL     1      -7.330 -74.601   9.746  1.00  0.00     0.059 A 
HETATM   11  C   UNL     1      -7.954 -75.833   9.938  1.00  0.00     0.036 A 
HETATM   12  C   UNL     1      -7.203 -77.008   9.908  1.00  0.00     0.029 A 
HETATM   13  C   UNL     1      -5.828 -76.951   9.686  1.00  0.00     0.004 A 
HETATM   14  C   UNL     1      -5.203 -75.718   9.495  1.00  0.00     0.029 A 
BRANCH  11  15
HETATM   15  N   UNL     1      -9.331 -75.891  10.159  1.00  0.00    -0.327 N 
HETATM   16  C   UNL     1     -10.360 -75.756   9.224  1.00  0.00     0.226 C 
HETATM   17  O   UNL     1     -10.259 -75.561   8.020  1.00  0.00    -0.273 OA
HETATM   18  H   UNL     1      -9.609 -76.044  11.126  1.00  0.00     0.169 HD
BRANCH  16  19
HETATM   19  C   UNL     1     -11.732 -75.874   9.812  1.00  0.00     0.078 A 
HETATM   20  C   UNL     1     -12.891 -75.967   8.885  1.00  0.00     0.015 A 
HETATM   21  C   UNL     1     -12.657 -74.716   9.679  1.00  0.00     0.015 A 
ENDBRANCH  16  19
ENDBRANCH  11  15
ENDBRANCH   7   9
ENDBRANCH   3   7
BRANCH   5  22
HETATM   22  N   UNL     1      -5.626 -69.846  12.620  1.00  0.00    -0.341 N 
HETATM   23  H   UNL     1      -4.732 -69.377  12.745  1.00  0.00     0.167 HD
BRANCH  22  24
HETATM   24  C   UNL     1      -6.232 -70.191  13.846  1.00  0.00     0.034 A 
HETATM   25  C   UNL     1      -7.550 -69.816  14.104  1.00  0.00     0.045 A 
HETATM   26  C   UNL     1      -8.148 -70.159  15.316  1.00  0.00     0.050 A 
HETATM   27  C   UNL     1      -7.428 -70.878  16.270  1.00  0.00     0.016 A 
HETATM   28  C   UNL     1      -6.110 -71.254  16.013  1.00  0.00     0.003 A 
HETATM   29  C   UNL     1      -5.512 -70.910  14.800  1.00  0.00     0.029 A 
BRANCH  26  30
HETATM   30  C   UNL     1      -9.558 -69.757  15.593  1.00  0.00     0.417 C 
HETATM   31  F   UNL     1     -10.204 -69.242  14.506  1.00  0.00    -0.166 F 
HETATM   32  F   UNL     1     -10.345 -70.788  16.021  1.00  0.00    -0.166 F 
HETATM   33  F   UNL     1      -9.650 -68.799  16.562  1.00  0.00    -0.166 F 
ENDBRANCH  26  30
ENDBRANCH  22  24
ENDBRANCH   5  22
TORSDOF 7
ENDMDL
MODEL 6
REMARK VINA RESULT:      -6.0     15.196     19.342
REMARK  7 active torsions:
REMARK  status: ('A' for Active; 'I' for Inactive)
REMARK       I    between atoms: N_5  and  C_13 
REMARK    1  A    between atoms: N_5  and  C_14 
REMARK    2  A    between atoms: N_6  and  C_17 
REMARK    3  A    between atoms: N_6  and  C_20 
REMARK    4  A    between atoms: N_7  and  C_21 
REMARK    5  A    between atoms: N_7  and  C_23 
REMARK    6  A    between atoms: C_10  and  C_13 
REMARK    7  A    between atoms: C_24  and  C_29 
ROOT
HETATM    1  N   UNL     1     -19.387 -61.625  22.461  1.00  0.00    -0.224 NA
HETATM    2  N   UNL     1     -19.171 -64.001  22.797  1.00  0.00    -0.224 NA
HETATM    3  C   UNL     1     -18.056 -61.571  22.251  1.00  0.00     0.133 A 
HETATM    4  C   UNL     1     -17.227 -62.673  22.296  1.00  0.00     0.100 A 
HETATM    5  C   UNL     1     -17.841 -63.881  22.577  1.00  0.00     0.133 A 
HETATM    6  C   UNL     1     -19.871 -62.853  22.726  1.00  0.00     0.237 A 
ENDROOT
BRANCH   3   7
HETATM    7  N   UNL     1     -17.460 -60.318  21.967  1.00  0.00    -0.341 N 
HETATM    8  H   UNL     1     -17.638 -59.990  21.021  1.00  0.00     0.167 HD
BRANCH   7   9
HETATM    9  C   UNL     1     -16.679 -59.442  22.739  1.00  0.00     0.035 A 
HETATM   10  C   UNL     1     -17.279 -58.381  23.423  1.00  0.00     0.059 A 
HETATM   11  C   UNL     1     -16.503 -57.513  24.191  1.00  0.00     0.036 A 
HETATM   12  C   UNL     1     -15.124 -57.703  24.279  1.00  0.00     0.029 A 
HETATM   13  C   UNL     1     -14.521 -58.760  23.599  1.00  0.00     0.004 A 
HETATM   14  C   UNL     1     -15.297 -59.628  22.830  1.00  0.00     0.029 A 
BRANCH  11  15
HETATM   15  N   UNL     1     -17.107 -56.455  24.873  1.00  0.00    -0.327 N 
HETATM   16  C   UNL     1     -16.809 -55.093  24.786  1.00  0.00     0.226 C 
HETATM   17  O   UNL     1     -15.958 -54.554  24.091  1.00  0.00    -0.273 OA
HETATM   18  H   UNL     1     -17.851 -56.721  25.514  1.00  0.00     0.169 HD
BRANCH  16  19
HETATM   19  C   UNL     1     -17.661 -54.230  25.664  1.00  0.00     0.078 A 
HETATM   20  C   UNL     1     -18.704 -54.885  26.498  1.00  0.00     0.015 A 
HETATM   21  C   UNL     1     -19.096 -54.062  25.307  1.00  0.00     0.015 A 
ENDBRANCH  16  19
ENDBRANCH  11  15
ENDBRANCH   7   9
ENDBRANCH   3   7
BRANCH   5  22
HETATM   22  N   UNL     1     -17.030 -65.031  22.632  1.00  0.00    -0.341 N 
HETATM   23  H   UNL     1     -16.229 -64.979  22.006  1.00  0.00     0.167 HD
BRANCH  22  24
HETATM   24  C   UNL     1     -17.258 -66.337  23.111  1.00  0.00     0.034 A 
HETATM   25  C   UNL     1     -17.389 -67.398  22.215  1.00  0.00     0.045 A 
HETATM   26  C   UNL     1     -17.612 -68.689  22.690  1.00  0.00     0.050 A 
HETATM   27  C   UNL     1     -17.704 -68.921  24.063  1.00  0.00     0.016 A 
HETATM   28  C   UNL     1     -17.574 -67.861  24.960  1.00  0.00     0.003 A 
HETATM   29  C   UNL     1     -17.350 -66.569  24.484  1.00  0.00     0.029 A 
BRANCH  26  30
HETATM   30  C   UNL     1     -17.753 -69.824  21.732  1.00  0.00     0.417 C 
HETATM   31  F   UNL     1     -17.283 -69.545  20.481  1.00  0.00    -0.166 F 
HETATM   32  F   UNL     1     -17.087 -70.952  22.119  1.00  0.00    -0.166 F 
HETATM   33  F   UNL     1     -19.052 -70.207  21.558  1.00  0.00    -0.166 F 
ENDBRANCH  26  30
ENDBRANCH  22  24
ENDBRANCH   5  22
TORSDOF 7
ENDMDL
MODEL 7
REMARK VINA RESULT:      -6.0     15.077     18.323
REMARK  7 active torsions:
REMARK  status: ('A' for Active; 'I' for Inactive)
REMARK       I    between atoms: N_5  and  C_13 
REMARK    1  A    between atoms: N_5  and  C_14 
REMARK    2  A    between atoms: N_6  and  C_17 
REMARK    3  A    between atoms: N_6  and  C_20 
REMARK    4  A    between atoms: N_7  and  C_21 
REMARK    5  A    between atoms: N_7  and  C_23 
REMARK    6  A    between atoms: C_10  and  C_13 
REMARK    7  A    between atoms: C_24  and  C_29 
ROOT
HETATM    1  N   UNL     1     -18.479 -64.719  24.901  1.00  0.00    -0.224 NA
HETATM    2  N   UNL     1     -18.722 -67.044  25.486  1.00  0.00    -0.224 NA
HETATM    3  C   UNL     1     -17.446 -65.066  24.105  1.00  0.00     0.133 A 
HETATM    4  C   UNL     1     -17.000 -66.363  23.948  1.00  0.00     0.100 A 
HETATM    5  C   UNL     1     -17.679 -67.328  24.670  1.00  0.00     0.133 A 
HETATM    6  C   UNL     1     -19.062 -65.743  25.554  1.00  0.00     0.237 A 
ENDROOT
BRANCH   3   7
HETATM    7  N   UNL     1     -16.772 -64.052  23.381  1.00  0.00    -0.341 N 
HETATM    8  H   UNL     1     -15.798 -64.269  23.193  1.00  0.00     0.167 HD
BRANCH   7   9
HETATM    9  C   UNL     1     -17.193 -62.814  22.869  1.00  0.00     0.035 A 
HETATM   10  C   UNL     1     -16.836 -61.627  23.515  1.00  0.00     0.059 A 
HETATM   11  C   UNL     1     -17.253 -60.398  23.005  1.00  0.00     0.036 A 
HETATM   12  C   UNL     1     -18.030 -60.350  21.847  1.00  0.00     0.029 A 
HETATM   13  C   UNL     1     -18.389 -61.531  21.199  1.00  0.00     0.004 A 
HETATM   14  C   UNL     1     -17.972 -62.761  21.709  1.00  0.00     0.029 A 
BRANCH  11  15
HETATM   15  N   UNL     1     -16.893 -59.215  23.652  1.00  0.00    -0.327 N 
HETATM   16  C   UNL     1     -15.635 -58.611  23.707  1.00  0.00     0.226 C 
HETATM   17  O   UNL     1     -14.594 -59.001  23.195  1.00  0.00    -0.273 OA
HETATM   18  H   UNL     1     -17.648 -58.745  24.148  1.00  0.00     0.169 HD
BRANCH  16  19
HETATM   19  C   UNL     1     -15.607 -57.339  24.495  1.00  0.00     0.078 A 
HETATM   20  C   UNL     1     -16.456 -57.246  25.714  1.00  0.00     0.015 A 
HETATM   21  C   UNL     1     -16.819 -56.474  24.479  1.00  0.00     0.015 A 
ENDBRANCH  16  19
ENDBRANCH  11  15
ENDBRANCH   7   9
ENDBRANCH   3   7
BRANCH   5  22
HETATM   22  N   UNL     1     -17.255 -68.664  24.539  1.00  0.00    -0.341 N 
HETATM   23  H   UNL     1     -16.319 -68.819  24.906  1.00  0.00     0.167 HD
BRANCH  22  24
HETATM   24  C   UNL     1     -17.705 -69.734  23.737  1.00  0.00     0.034 A 
HETATM   25  C   UNL     1     -18.263 -70.865  24.332  1.00  0.00     0.045 A 
HETATM   26  C   UNL     1     -18.709 -71.922  23.539  1.00  0.00     0.050 A 
HETATM   27  C   UNL     1     -18.598 -71.848  22.151  1.00  0.00     0.016 A 
HETATM   28  C   UNL     1     -18.040 -70.717  21.555  1.00  0.00     0.003 A 
HETATM   29  C   UNL     1     -17.594 -69.659  22.349  1.00  0.00     0.029 A 
BRANCH  26  30
HETATM   30  C   UNL     1     -19.306 -73.133  24.175  1.00  0.00     0.417 C 
HETATM   31  F   UNL     1     -18.818 -74.308  23.681  1.00  0.00    -0.166 F 
HETATM   32  F   UNL     1     -19.098 -73.200  25.523  1.00  0.00    -0.166 F 
HETATM   33  F   UNL     1     -20.660 -73.200  24.010  1.00  0.00    -0.166 F 
ENDBRANCH  26  30
ENDBRANCH  22  24
ENDBRANCH   5  22
TORSDOF 7
ENDMDL
MODEL 8
REMARK VINA RESULT:      -6.0     15.345     18.412
REMARK  7 active torsions:
REMARK  status: ('A' for Active; 'I' for Inactive)
REMARK       I    between atoms: N_5  and  C_13 
REMARK    1  A    between atoms: N_5  and  C_14 
REMARK    2  A    between atoms: N_6  and  C_17 
REMARK    3  A    between atoms: N_6  and  C_20 
REMARK    4  A    between atoms: N_7  and  C_21 
REMARK    5  A    between atoms: N_7  and  C_23 
REMARK    6  A    between atoms: C_10  and  C_13 
REMARK    7  A    between atoms: C_24  and  C_29 
ROOT
HETATM    1  N   UNL     1     -19.904 -63.464  24.522  1.00  0.00    -0.224 NA
HETATM    2  N   UNL     1     -18.774 -61.958  23.019  1.00  0.00    -0.224 NA
HETATM    3  C   UNL     1     -18.742 -63.608  25.192  1.00  0.00     0.133 A 
HETATM    4  C   UNL     1     -17.570 -62.968  24.841  1.00  0.00     0.100 A 
HETATM    5  C   UNL     1     -17.640 -62.144  23.732  1.00  0.00     0.133 A 
HETATM    6  C   UNL     1     -19.849 -62.637  23.461  1.00  0.00     0.237 A 
ENDROOT
BRANCH   3   7
HETATM    7  N   UNL     1     -18.706 -64.461  26.322  1.00  0.00    -0.341 N 
HETATM    8  H   UNL     1     -19.161 -64.066  27.141  1.00  0.00     0.167 HD
BRANCH   7   9
HETATM    9  C   UNL     1     -18.172 -65.744  26.525  1.00  0.00     0.035 A 
HETATM   10  C   UNL     1     -17.900 -66.574  25.434  1.00  0.00     0.059 A 
HETATM   11  C   UNL     1     -17.368 -67.847  25.637  1.00  0.00     0.036 A 
HETATM   12  C   UNL     1     -17.105 -68.296  26.932  1.00  0.00     0.029 A 
HETATM   13  C   UNL     1     -17.375 -67.471  28.023  1.00  0.00     0.004 A 
HETATM   14  C   UNL     1     -17.908 -66.198  27.821  1.00  0.00     0.029 A 
BRANCH  11  15
HETATM   15  N   UNL     1     -17.097 -68.672  24.545  1.00  0.00    -0.327 N 
HETATM   16  C   UNL     1     -17.870 -69.724  24.048  1.00  0.00     0.226 C 
HETATM   17  O   UNL     1     -18.943 -70.133  24.472  1.00  0.00    -0.273 OA
HETATM   18  H   UNL     1     -16.223 -68.479  24.061  1.00  0.00     0.169 HD
BRANCH  16  19
HETATM   19  C   UNL     1     -17.274 -70.401  22.852  1.00  0.00     0.078 A 
HETATM   20  C   UNL     1     -17.488 -69.786  21.514  1.00  0.00     0.015 A 
HETATM   21  C   UNL     1     -18.194 -71.058  21.884  1.00  0.00     0.015 A 
ENDBRANCH  16  19
ENDBRANCH  11  15
ENDBRANCH   7   9
ENDBRANCH   3   7
BRANCH   5  22
HETATM   22  N   UNL     1     -16.466 -61.472  23.341  1.00  0.00    -0.341 N 
HETATM   23  H   UNL     1     -15.752 -62.101  22.982  1.00  0.00     0.167 HD
BRANCH  22  24
HETATM   24  C   UNL     1     -15.957 -60.189  23.633  1.00  0.00     0.034 A 
HETATM   25  C   UNL     1     -16.660 -59.336  24.484  1.00  0.00     0.045 A 
HETATM   26  C   UNL     1     -16.156 -58.069  24.774  1.00  0.00     0.050 A 
HETATM   27  C   UNL     1     -14.948 -57.654  24.211  1.00  0.00     0.016 A 
HETATM   28  C   UNL     1     -14.246 -58.506  23.360  1.00  0.00     0.003 A 
HETATM   29  C   UNL     1     -14.750 -59.774  23.071  1.00  0.00     0.029 A 
BRANCH  26  30
HETATM   30  C   UNL     1     -16.907 -57.156  25.684  1.00  0.00     0.417 C 
HETATM   31  F   UNL     1     -16.707 -57.419  27.009  1.00  0.00    -0.166 F 
HETATM   32  F   UNL     1     -16.581 -55.840  25.528  1.00  0.00    -0.166 F 
HETATM   33  F   UNL     1     -18.258 -57.224  25.497  1.00  0.00    -0.166 F 
ENDBRANCH  26  30
ENDBRANCH  22  24
ENDBRANCH   5  22
TORSDOF 7
ENDMDL
MODEL 9
REMARK VINA RESULT:      -6.0      2.683      3.786
REMARK  7 active torsions:
REMARK  status: ('A' for Active; 'I' for Inactive)
REMARK       I    between atoms: N_5  and  C_13 
REMARK    1  A    between atoms: N_5  and  C_14 
REMARK    2  A    between atoms: N_6  and  C_17 
REMARK    3  A    between atoms: N_6  and  C_20 
REMARK    4  A    between atoms: N_7  and  C_21 
REMARK    5  A    between atoms: N_7  and  C_23 
REMARK    6  A    between atoms: C_10  and  C_13 
REMARK    7  A    between atoms: C_24  and  C_29 
ROOT
HETATM    1  N   UNL     1      -9.966 -70.741   7.156  1.00  0.00    -0.224 NA
HETATM    2  N   UNL     1      -8.249 -69.420   8.212  1.00  0.00    -0.224 NA
HETATM    3  C   UNL     1     -10.553 -70.875   8.364  1.00  0.00     0.133 A 
HETATM    4  C   UNL     1     -10.056 -70.319   9.525  1.00  0.00     0.100 A 
HETATM    5  C   UNL     1      -8.886 -69.592   9.394  1.00  0.00     0.133 A 
HETATM    6  C   UNL     1      -8.834 -70.012   7.153  1.00  0.00     0.237 A 
ENDROOT
BRANCH   3   7
HETATM    7  N   UNL     1     -11.750 -71.627   8.461  1.00  0.00    -0.341 N 
HETATM    8  H   UNL     1     -12.583 -71.095   8.226  1.00  0.00     0.167 HD
BRANCH   7   9
HETATM    9  C   UNL     1     -12.004 -72.963   8.813  1.00  0.00     0.035 A 
HETATM   10  C   UNL     1     -13.241 -73.327   9.351  1.00  0.00     0.059 A 
HETATM   11  C   UNL     1     -13.492 -74.654   9.698  1.00  0.00     0.036 A 
HETATM   12  C   UNL     1     -12.507 -75.624   9.508  1.00  0.00     0.029 A 
HETATM   13  C   UNL     1     -11.271 -75.266   8.971  1.00  0.00     0.004 A 
HETATM   14  C   UNL     1     -11.019 -73.938   8.625  1.00  0.00     0.029 A 
BRANCH  11  15
HETATM   15  N   UNL     1     -14.730 -75.013  10.234  1.00  0.00    -0.327 N 
HETATM   16  C   UNL     1     -15.722 -75.807   9.654  1.00  0.00     0.226 C 
HETATM   17  O   UNL     1     -15.703 -76.350   8.557  1.00  0.00    -0.273 OA
HETATM   18  H   UNL     1     -14.926 -74.639  11.160  1.00  0.00     0.169 HD
BRANCH  16  19
HETATM   19  C   UNL     1     -16.932 -75.990  10.517  1.00  0.00     0.078 A 
HETATM   20  C   UNL     1     -16.812 -76.843  11.729  1.00  0.00     0.015 A 
HETATM   21  C   UNL     1     -17.586 -77.326  10.539  1.00  0.00     0.015 A 
ENDBRANCH  16  19
ENDBRANCH  11  15
ENDBRANCH   7   9
ENDBRANCH   3   7
BRANCH   5  22
HETATM   22  N   UNL     1      -8.345 -69.008  10.555  1.00  0.00    -0.341 N 
HETATM   23  H   UNL     1      -7.350 -69.191  10.663  1.00  0.00     0.167 HD
BRANCH  22  24
HETATM   24  C   UNL     1      -8.933 -68.510  11.737  1.00  0.00     0.034 A 
HETATM   25  C   UNL     1      -8.851 -69.244  12.920  1.00  0.00     0.045 A 
HETATM   26  C   UNL     1      -9.431 -68.750  14.088  1.00  0.00     0.050 A 
HETATM   27  C   UNL     1     -10.094 -67.523  14.073  1.00  0.00     0.016 A 
HETATM   28  C   UNL     1     -10.177 -66.789  12.890  1.00  0.00     0.003 A 
HETATM   29  C   UNL     1      -9.596 -67.283  11.722  1.00  0.00     0.029 A 
BRANCH  26  30
HETATM   30  C   UNL     1      -9.344 -69.535  15.354  1.00  0.00     0.417 C 
HETATM   31  F   UNL     1      -9.560 -68.788  16.477  1.00  0.00    -0.166 F 
HETATM   32  F   UNL     1     -10.247 -70.557  15.427  1.00  0.00    -0.166 F 
HETATM   33  F   UNL     1      -8.120 -70.114  15.530  1.00  0.00    -0.166 F 
ENDBRANCH  26  30
ENDBRANCH  22  24
ENDBRANCH   5  22
TORSDOF 7
ENDMDL
