MODEL 1
REMARK VINA RESULT:      -6.9      0.000      0.000
REMARK  7 active torsions:
REMARK  status: ('A' for Active; 'I' for Inactive)
REMARK       I    between atoms: N_5  and  C_13 
REMARK    1  A    between atoms: N_5  and  C_14 
REMARK    2  A    between atoms: N_6  and  C_17 
REMARK    3  A    between atoms: N_6  and  C_20 
REMARK    4  A    between atoms: N_7  and  C_21 
REMARK    5  A    between atoms: N_7  and  C_23 
REMARK    6  A    between atoms: C_10  and  C_13 
REMARK    7  A    between atoms: C_24  and  C_29 
ROOT
HETATM    1  N   UNL     1      -7.429 -70.054   8.843  1.00  0.00    -0.224 NA
HETATM    2  N   UNL     1      -6.682 -69.545  11.076  1.00  0.00    -0.224 NA
HETATM    3  C   UNL     1      -8.670 -69.675   9.211  1.00  0.00     0.133 A 
HETATM    4  C   UNL     1      -8.990 -69.226  10.476  1.00  0.00     0.100 A 
HETATM    5  C   UNL     1      -7.948 -69.179  11.384  1.00  0.00     0.133 A 
HETATM    6  C   UNL     1      -6.497 -69.966   9.810  1.00  0.00     0.237 A 
ENDROOT
BRANCH   3   7
HETATM    7  N   UNL     1      -9.714 -69.737   8.257  1.00  0.00    -0.341 N 
HETATM    8  H   UNL     1      -9.714 -68.957   7.605  1.00  0.00     0.167 HD
BRANCH   7   9
HETATM    9  C   UNL     1     -10.742 -70.669   8.034  1.00  0.00     0.035 A 
HETATM   10  C   UNL     1     -10.529 -72.026   8.289  1.00  0.00     0.059 A 
HETATM   11  C   UNL     1     -11.550 -72.950   8.069  1.00  0.00     0.036 A 
HETATM   12  C   UNL     1     -12.790 -72.520   7.594  1.00  0.00     0.029 A 
HETATM   13  C   UNL     1     -13.007 -71.167   7.339  1.00  0.00     0.004 A 
HETATM   14  C   UNL     1     -11.985 -70.243   7.558  1.00  0.00     0.029 A 
BRANCH  11  15
HETATM   15  N   UNL     1     -11.333 -74.305   8.326  1.00  0.00    -0.327 N 
HETATM   16  C   UNL     1     -11.877 -75.085   9.348  1.00  0.00     0.226 C 
HETATM   17  O   UNL     1     -12.656 -74.736  10.226  1.00  0.00    -0.273 OA
HETATM   18  H   UNL     1     -10.693 -74.770   7.686  1.00  0.00     0.169 HD
BRANCH  16  19
HETATM   19  C   UNL     1     -11.425 -76.512   9.326  1.00  0.00     0.078 A 
HETATM   20  C   UNL     1     -10.043 -76.822   9.782  1.00  0.00     0.015 A 
HETATM   21  C   UNL     1     -10.396 -76.910   8.326  1.00  0.00     0.015 A 
ENDBRANCH  16  19
ENDBRANCH  11  15
ENDBRANCH   7   9
ENDBRANCH   3   7
BRANCH   5  22
HETATM   22  N   UNL     1      -8.232 -68.725  12.686  1.00  0.00    -0.341 N 
HETATM   23  H   UNL     1      -8.096 -67.722  12.794  1.00  0.00     0.167 HD
BRANCH  22  24
HETATM   24  C   UNL     1      -8.350 -69.390  13.924  1.00  0.00     0.034 A 
HETATM   25  C   UNL     1      -7.259 -70.077  14.455  1.00  0.00     0.045 A 
HETATM   26  C   UNL     1      -7.376 -70.732  15.681  1.00  0.00     0.050 A 
HETATM   27  C   UNL     1      -8.585 -70.701  16.375  1.00  0.00     0.016 A 
HETATM   28  C   UNL     1      -9.677 -70.015  15.845  1.00  0.00     0.003 A 
HETATM   29  C   UNL     1      -9.560 -69.359  14.619  1.00  0.00     0.029 A 
BRANCH  26  30
HETATM   30  C   UNL     1      -6.208 -71.467  16.249  1.00  0.00     0.417 C 
HETATM   31  F   UNL     1      -6.552 -72.604  16.921  1.00  0.00    -0.166 F 
HETATM   32  F   UNL     1      -5.305 -71.869  15.307  1.00  0.00    -0.166 F 
HETATM   33  F   UNL     1      -5.498 -70.715  17.140  1.00  0.00    -0.166 F 
ENDBRANCH  26  30
ENDBRANCH  22  24
ENDBRANCH   5  22
TORSDOF 7
ENDMDL
MODEL 2
REMARK VINA RESULT:      -6.8      1.920      2.560
REMARK  7 active torsions:
REMARK  status: ('A' for Active; 'I' for Inactive)
REMARK       I    between atoms: N_5  and  C_13 
REMARK    1  A    between atoms: N_5  and  C_14 
REMARK    2  A    between atoms: N_6  and  C_17 
REMARK    3  A    between atoms: N_6  and  C_20 
REMARK    4  A    between atoms: N_7  and  C_21 
REMARK    5  A    between atoms: N_7  and  C_23 
REMARK    6  A    between atoms: C_10  and  C_13 
REMARK    7  A    between atoms: C_24  and  C_29 
ROOT
HETATM    1  N   UNL     1      -7.533 -70.860   8.219  1.00  0.00    -0.224 NA
HETATM    2  N   UNL     1      -6.428 -70.537  10.335  1.00  0.00    -0.224 NA
HETATM    3  C   UNL     1      -8.455 -69.954   8.603  1.00  0.00     0.133 A 
HETATM    4  C   UNL     1      -8.431 -69.305   9.821  1.00  0.00     0.100 A 
HETATM    5  C   UNL     1      -7.384 -69.636  10.662  1.00  0.00     0.133 A 
HETATM    6  C   UNL     1      -6.563 -71.101   9.120  1.00  0.00     0.237 A 
ENDROOT
BRANCH   3   7
HETATM    7  N   UNL     1      -9.514 -69.639   7.717  1.00  0.00    -0.341 N 
HETATM    8  H   UNL     1      -9.337 -68.814   7.151  1.00  0.00     0.167 HD
BRANCH   7   9
HETATM    9  C   UNL     1     -10.754 -70.250   7.467  1.00  0.00     0.035 A 
HETATM   10  C   UNL     1     -11.250 -71.221   8.341  1.00  0.00     0.059 A 
HETATM   11  C   UNL     1     -12.481 -71.826   8.093  1.00  0.00     0.036 A 
HETATM   12  C   UNL     1     -13.223 -71.463   6.968  1.00  0.00     0.029 A 
HETATM   13  C   UNL     1     -12.732 -70.495   6.092  1.00  0.00     0.004 A 
HETATM   14  C   UNL     1     -11.500 -69.890   6.340  1.00  0.00     0.029 A 
BRANCH  11  15
HETATM   15  N   UNL     1     -12.973 -72.794   8.969  1.00  0.00    -0.327 N 
HETATM   16  C   UNL     1     -12.535 -74.109   9.134  1.00  0.00     0.226 C 
HETATM   17  O   UNL     1     -11.627 -74.677   8.541  1.00  0.00    -0.273 OA
HETATM   18  H   UNL     1     -13.752 -72.495   9.552  1.00  0.00     0.169 HD
BRANCH  16  19
HETATM   19  C   UNL     1     -13.294 -74.876  10.172  1.00  0.00     0.078 A 
HETATM   20  C   UNL     1     -14.180 -75.984   9.723  1.00  0.00     0.015 A 
HETATM   21  C   UNL     1     -14.771 -74.703  10.234  1.00  0.00     0.015 A 
ENDBRANCH  16  19
ENDBRANCH  11  15
ENDBRANCH   7   9
ENDBRANCH   3   7
BRANCH   5  22
HETATM   22  N   UNL     1      -7.322 -68.995  11.915  1.00  0.00    -0.341 N 
HETATM   23  H   UNL     1      -7.087 -68.008  11.842  1.00  0.00     0.167 HD
BRANCH  22  24
HETATM   24  C   UNL     1      -7.201 -69.484  13.232  1.00  0.00     0.034 A 
HETATM   25  C   UNL     1      -8.339 -69.662  14.019  1.00  0.00     0.045 A 
HETATM   26  C   UNL     1      -8.218 -70.147  15.321  1.00  0.00     0.050 A 
HETATM   27  C   UNL     1      -6.959 -70.454  15.836  1.00  0.00     0.016 A 
HETATM   28  C   UNL     1      -5.821 -70.276  15.051  1.00  0.00     0.003 A 
HETATM   29  C   UNL     1      -5.942 -69.791  13.748  1.00  0.00     0.029 A 
BRANCH  26  30
HETATM   30  C   UNL     1      -9.435 -70.338  16.162  1.00  0.00     0.417 C 
HETATM   31  F   UNL     1      -9.384 -71.448  16.955  1.00  0.00    -0.166 F 
HETATM   32  F   UNL     1      -9.675 -69.300  17.018  1.00  0.00    -0.166 F 
HETATM   33  F   UNL     1     -10.573 -70.470  15.419  1.00  0.00    -0.166 F 
ENDBRANCH  26  30
ENDBRANCH  22  24
ENDBRANCH   5  22
TORSDOF 7
ENDMDL
MODEL 3
REMARK VINA RESULT:      -6.4      1.765      2.290
REMARK  7 active torsions:
REMARK  status: ('A' for Active; 'I' for Inactive)
REMARK       I    between atoms: N_5  and  C_13 
REMARK    1  A    between atoms: N_5  and  C_14 
REMARK    2  A    between atoms: N_6  and  C_17 
REMARK    3  A    between atoms: N_6  and  C_20 
REMARK    4  A    between atoms: N_7  and  C_21 
REMARK    5  A    between atoms: N_7  and  C_23 
REMARK    6  A    between atoms: C_10  and  C_13 
REMARK    7  A    between atoms: C_24  and  C_29 
ROOT
HETATM    1  N   UNL     1      -7.355 -70.841   7.821  1.00  0.00    -0.224 NA
HETATM    2  N   UNL     1      -6.035 -70.378   9.783  1.00  0.00    -0.224 NA
HETATM    3  C   UNL     1      -8.372 -70.162   8.391  1.00  0.00     0.133 A 
HETATM    4  C   UNL     1      -8.297 -69.572   9.636  1.00  0.00     0.100 A 
HETATM    5  C   UNL     1      -7.092 -69.710  10.300  1.00  0.00     0.133 A 
HETATM    6  C   UNL     1      -6.232 -70.910   8.562  1.00  0.00     0.237 A 
ENDROOT
BRANCH   3   7
HETATM    7  N   UNL     1      -9.593 -70.041   7.683  1.00  0.00    -0.341 N 
HETATM    8  H   UNL     1      -9.599 -69.276   7.014  1.00  0.00     0.167 HD
BRANCH   7   9
HETATM    9  C   UNL     1     -10.789 -70.776   7.723  1.00  0.00     0.035 A 
HETATM   10  C   UNL     1     -10.817 -72.044   8.309  1.00  0.00     0.059 A 
HETATM   11  C   UNL     1     -12.006 -72.772   8.350  1.00  0.00     0.036 A 
HETATM   12  C   UNL     1     -13.172 -72.235   7.805  1.00  0.00     0.029 A 
HETATM   13  C   UNL     1     -13.150 -70.970   7.219  1.00  0.00     0.004 A 
HETATM   14  C   UNL     1     -11.960 -70.242   7.177  1.00  0.00     0.029 A 
BRANCH  11  15
HETATM   15  N   UNL     1     -12.029 -74.038   8.937  1.00  0.00    -0.327 N 
HETATM   16  C   UNL     1     -12.058 -75.282   8.302  1.00  0.00     0.226 C 
HETATM   17  O   UNL     1     -12.067 -75.510   7.099  1.00  0.00    -0.273 OA
HETATM   18  H   UNL     1     -12.031 -74.044   9.955  1.00  0.00     0.169 HD
BRANCH  16  19
HETATM   19  C   UNL     1     -12.077 -76.444   9.246  1.00  0.00     0.078 A 
HETATM   20  C   UNL     1     -10.788 -76.895   9.835  1.00  0.00     0.015 A 
HETATM   21  C   UNL     1     -11.476 -77.728   8.794  1.00  0.00     0.015 A 
ENDBRANCH  16  19
ENDBRANCH  11  15
ENDBRANCH   7   9
ENDBRANCH   3   7
BRANCH   5  22
HETATM   22  N   UNL     1      -6.974 -69.122  11.574  1.00  0.00    -0.341 N 
HETATM   23  H   UNL     1      -6.060 -69.270  11.995  1.00  0.00     0.167 HD
BRANCH  22  24
HETATM   24  C   UNL     1      -7.928 -68.661  12.505  1.00  0.00     0.034 A 
HETATM   25  C   UNL     1      -8.186 -69.395  13.662  1.00  0.00     0.045 A 
HETATM   26  C   UNL     1      -9.128 -68.939  14.583  1.00  0.00     0.050 A 
HETATM   27  C   UNL     1      -9.814 -67.747  14.346  1.00  0.00     0.016 A 
HETATM   28  C   UNL     1      -9.557 -67.013  13.189  1.00  0.00     0.003 A 
HETATM   29  C   UNL     1      -8.614 -67.470  12.268  1.00  0.00     0.029 A 
BRANCH  26  30
HETATM   30  C   UNL     1      -9.404 -69.724  15.821  1.00  0.00     0.417 C 
HETATM   31  F   UNL     1      -9.899 -68.972  16.848  1.00  0.00    -0.166 F 
HETATM   32  F   UNL     1     -10.315 -70.725  15.642  1.00  0.00    -0.166 F 
HETATM   33  F   UNL     1      -8.286 -70.330  16.318  1.00  0.00    -0.166 F 
ENDBRANCH  26  30
ENDBRANCH  22  24
ENDBRANCH   5  22
TORSDOF 7
ENDMDL
MODEL 4
REMARK VINA RESULT:      -6.3     15.798     17.589
REMARK  7 active torsions:
REMARK  status: ('A' for Active; 'I' for Inactive)
REMARK       I    between atoms: N_5  and  C_13 
REMARK    1  A    between atoms: N_5  and  C_14 
REMARK    2  A    between atoms: N_6  and  C_17 
REMARK    3  A    between atoms: N_6  and  C_20 
REMARK    4  A    between atoms: N_7  and  C_21 
REMARK    5  A    between atoms: N_7  and  C_23 
REMARK    6  A    between atoms: C_10  and  C_13 
REMARK    7  A    between atoms: C_24  and  C_29 
ROOT
HETATM    1  N   UNL     1     -19.268 -63.924  22.756  1.00  0.00    -0.224 NA
HETATM    2  N   UNL     1     -19.426 -61.539  22.451  1.00  0.00    -0.224 NA
HETATM    3  C   UNL     1     -17.941 -63.828  22.532  1.00  0.00     0.133 A 
HETATM    4  C   UNL     1     -17.293 -62.638  22.265  1.00  0.00     0.100 A 
HETATM    5  C   UNL     1     -18.090 -61.509  22.234  1.00  0.00     0.133 A 
HETATM    6  C   UNL     1     -19.940 -62.759  22.700  1.00  0.00     0.237 A 
ENDROOT
BRANCH   3   7
HETATM    7  N   UNL     1     -17.155 -65.005  22.570  1.00  0.00    -0.341 N 
HETATM    8  H   UNL     1     -16.389 -65.002  21.902  1.00  0.00     0.167 HD
BRANCH   7   9
HETATM    9  C   UNL     1     -17.226 -66.167  23.356  1.00  0.00     0.035 A 
HETATM   10  C   UNL     1     -17.921 -67.288  22.894  1.00  0.00     0.059 A 
HETATM   11  C   UNL     1     -17.989 -68.442  23.674  1.00  0.00     0.036 A 
HETATM   12  C   UNL     1     -17.363 -68.480  24.920  1.00  0.00     0.029 A 
HETATM   13  C   UNL     1     -16.668 -67.364  25.385  1.00  0.00     0.004 A 
HETATM   14  C   UNL     1     -16.600 -66.210  24.605  1.00  0.00     0.029 A 
BRANCH  11  15
HETATM   15  N   UNL     1     -18.684 -69.559  23.208  1.00  0.00    -0.327 N 
HETATM   16  C   UNL     1     -18.285 -70.477  22.233  1.00  0.00     0.226 C 
HETATM   17  O   UNL     1     -17.242 -70.485  21.593  1.00  0.00    -0.273 OA
HETATM   18  H   UNL     1     -19.596 -69.712  23.633  1.00  0.00     0.169 HD
BRANCH  16  19
HETATM   19  C   UNL     1     -19.283 -71.563  21.979  1.00  0.00     0.078 A 
HETATM   20  C   UNL     1     -20.457 -71.668  22.886  1.00  0.00     0.015 A 
HETATM   21  C   UNL     1     -19.361 -72.690  22.948  1.00  0.00     0.015 A 
ENDBRANCH  16  19
ENDBRANCH  11  15
ENDBRANCH   7   9
ENDBRANCH   3   7
BRANCH   5  22
HETATM   22  N   UNL     1     -17.467 -60.275  21.965  1.00  0.00    -0.341 N 
HETATM   23  H   UNL     1     -17.434 -60.057  20.972  1.00  0.00     0.167 HD
BRANCH  22  24
HETATM   24  C   UNL     1     -16.615 -59.449  22.728  1.00  0.00     0.034 A 
HETATM   25  C   UNL     1     -17.145 -58.393  23.469  1.00  0.00     0.045 A 
HETATM   26  C   UNL     1     -16.301 -57.579  24.224  1.00  0.00     0.050 A 
HETATM   27  C   UNL     1     -14.927 -57.820  24.237  1.00  0.00     0.016 A 
HETATM   28  C   UNL     1     -14.397 -58.875  23.495  1.00  0.00     0.003 A 
HETATM   29  C   UNL     1     -15.241 -59.690  22.741  1.00  0.00     0.029 A 
BRANCH  26  30
HETATM   30  C   UNL     1     -16.867 -56.449  25.017  1.00  0.00     0.417 C 
HETATM   31  F   UNL     1     -18.225 -56.340  24.923  1.00  0.00    -0.166 F 
HETATM   32  F   UNL     1     -16.609 -56.539  26.355  1.00  0.00    -0.166 F 
HETATM   33  F   UNL     1     -16.375 -55.236  24.629  1.00  0.00    -0.166 F 
ENDBRANCH  26  30
ENDBRANCH  22  24
ENDBRANCH   5  22
TORSDOF 7
ENDMDL
MODEL 5
REMARK VINA RESULT:      -6.1     15.658     18.088
REMARK  7 active torsions:
REMARK  status: ('A' for Active; 'I' for Inactive)
REMARK       I    between atoms: N_5  and  C_13 
REMARK    1  A    between atoms: N_5  and  C_14 
REMARK    2  A    between atoms: N_6  and  C_17 
REMARK    3  A    between atoms: N_6  and  C_20 
REMARK    4  A    between atoms: N_7  and  C_21 
REMARK    5  A    between atoms: N_7  and  C_23 
REMARK    6  A    between atoms: C_10  and  C_13 
REMARK    7  A    between atoms: C_24  and  C_29 
ROOT
HETATM    1  N   UNL     1     -18.036 -62.148  21.313  1.00  0.00    -0.224 NA
HETATM    2  N   UNL     1     -17.508 -59.967  22.192  1.00  0.00    -0.224 NA
HETATM    3  C   UNL     1     -17.145 -62.672  22.180  1.00  0.00     0.133 A 
HETATM    4  C   UNL     1     -16.408 -61.919  23.071  1.00  0.00     0.100 A 
HETATM    5  C   UNL     1     -16.628 -60.554  23.037  1.00  0.00     0.133 A 
HETATM    6  C   UNL     1     -18.165 -60.808  21.371  1.00  0.00     0.237 A 
ENDROOT
BRANCH   3   7
HETATM    7  N   UNL     1     -16.944 -64.074  22.187  1.00  0.00    -0.341 N 
HETATM    8  H   UNL     1     -16.365 -64.404  21.420  1.00  0.00     0.167 HD
BRANCH   7   9
HETATM    9  C   UNL     1     -17.382 -65.090  23.052  1.00  0.00     0.035 A 
HETATM   10  C   UNL     1     -17.349 -66.426  22.643  1.00  0.00     0.059 A 
HETATM   11  C   UNL     1     -17.784 -67.434  23.503  1.00  0.00     0.036 A 
HETATM   12  C   UNL     1     -18.254 -67.111  24.777  1.00  0.00     0.029 A 
HETATM   13  C   UNL     1     -18.288 -65.779  25.190  1.00  0.00     0.004 A 
HETATM   14  C   UNL     1     -17.854 -64.771  24.329  1.00  0.00     0.029 A 
BRANCH  11  15
HETATM   15  N   UNL     1     -17.748 -68.767  23.091  1.00  0.00    -0.327 N 
HETATM   16  C   UNL     1     -18.575 -69.404  22.163  1.00  0.00     0.226 C 
HETATM   17  O   UNL     1     -19.498 -68.917  21.523  1.00  0.00    -0.273 OA
HETATM   18  H   UNL     1     -17.031 -69.338  23.532  1.00  0.00     0.169 HD
BRANCH  16  19
HETATM   19  C   UNL     1     -18.254 -70.851  21.959  1.00  0.00     0.078 A 
HETATM   20  C   UNL     1     -19.382 -71.816  21.852  1.00  0.00     0.015 A 
HETATM   21  C   UNL     1     -18.518 -71.796  23.079  1.00  0.00     0.015 A 
ENDBRANCH  16  19
ENDBRANCH  11  15
ENDBRANCH   7   9
ENDBRANCH   3   7
BRANCH   5  22
HETATM   22  N   UNL     1     -15.896 -59.749  23.931  1.00  0.00    -0.341 N 
HETATM   23  H   UNL     1     -15.014 -60.173  24.212  1.00  0.00     0.167 HD
BRANCH  22  24
HETATM   24  C   UNL     1     -16.257 -58.660  24.751  1.00  0.00     0.034 A 
HETATM   25  C   UNL     1     -16.256 -57.365  24.234  1.00  0.00     0.045 A 
HETATM   26  C   UNL     1     -16.615 -56.290  25.045  1.00  0.00     0.050 A 
HETATM   27  C   UNL     1     -16.976 -56.509  26.374  1.00  0.00     0.016 A 
HETATM   28  C   UNL     1     -16.977 -57.803  26.893  1.00  0.00     0.003 A 
HETATM   29  C   UNL     1     -16.618 -58.880  26.081  1.00  0.00     0.029 A 
BRANCH  26  30
HETATM   30  C   UNL     1     -16.613 -54.904  24.492  1.00  0.00     0.417 C 
HETATM   31  F   UNL     1     -17.501 -54.721  23.470  1.00  0.00    -0.166 F 
HETATM   32  F   UNL     1     -16.929 -53.948  25.414  1.00  0.00    -0.166 F 
HETATM   33  F   UNL     1     -15.397 -54.541  23.989  1.00  0.00    -0.166 F 
ENDBRANCH  26  30
ENDBRANCH  22  24
ENDBRANCH   5  22
TORSDOF 7
ENDMDL
MODEL 6
REMARK VINA RESULT:      -6.1      3.202      3.732
REMARK  7 active torsions:
REMARK  status: ('A' for Active; 'I' for Inactive)
REMARK       I    between atoms: N_5  and  C_13 
REMARK    1  A    between atoms: N_5  and  C_14 
REMARK    2  A    between atoms: N_6  and  C_17 
REMARK    3  A    between atoms: N_6  and  C_20 
REMARK    4  A    between atoms: N_7  and  C_21 
REMARK    5  A    between atoms: N_7  and  C_23 
REMARK    6  A    between atoms: C_10  and  C_13 
REMARK    7  A    between atoms: C_24  and  C_29 
ROOT
HETATM    1  N   UNL     1      -6.661 -70.181   7.936  1.00  0.00    -0.224 NA
HETATM    2  N   UNL     1      -5.625 -70.394  10.102  1.00  0.00    -0.224 NA
HETATM    3  C   UNL     1      -7.766 -69.713   8.552  1.00  0.00     0.133 A 
HETATM    4  C   UNL     1      -7.875 -69.558   9.919  1.00  0.00     0.100 A 
HETATM    5  C   UNL     1      -6.763 -69.918  10.659  1.00  0.00     0.133 A 
HETATM    6  C   UNL     1      -5.643 -70.499   8.759  1.00  0.00     0.237 A 
ENDROOT
BRANCH   3   7
HETATM    7  N   UNL     1      -8.887 -69.355   7.763  1.00  0.00    -0.341 N 
HETATM    8  H   UNL     1      -8.780 -68.462   7.290  1.00  0.00     0.167 HD
BRANCH   7   9
HETATM    9  C   UNL     1     -10.108 -69.998   7.504  1.00  0.00     0.035 A 
HETATM   10  C   UNL     1     -10.601 -70.958   8.394  1.00  0.00     0.059 A 
HETATM   11  C   UNL     1     -11.814 -71.594   8.137  1.00  0.00     0.036 A 
HETATM   12  C   UNL     1     -12.542 -71.275   6.990  1.00  0.00     0.029 A 
HETATM   13  C   UNL     1     -12.054 -70.318   6.100  1.00  0.00     0.004 A 
HETATM   14  C   UNL     1     -10.840 -69.682   6.356  1.00  0.00     0.029 A 
BRANCH  11  15
HETATM   15  N   UNL     1     -12.303 -72.551   9.028  1.00  0.00    -0.327 N 
HETATM   16  C   UNL     1     -12.714 -73.857   8.750  1.00  0.00     0.226 C 
HETATM   17  O   UNL     1     -12.727 -74.424   7.665  1.00  0.00    -0.273 OA
HETATM   18  H   UNL     1     -12.369 -72.247   9.997  1.00  0.00     0.169 HD
BRANCH  16  19
HETATM   19  C   UNL     1     -13.185 -74.613   9.953  1.00  0.00     0.078 A 
HETATM   20  C   UNL     1     -13.899 -75.901   9.742  1.00  0.00     0.015 A 
HETATM   21  C   UNL     1     -14.649 -74.688  10.209  1.00  0.00     0.015 A 
ENDBRANCH  16  19
ENDBRANCH  11  15
ENDBRANCH   7   9
ENDBRANCH   3   7
BRANCH   5  22
HETATM   22  N   UNL     1      -6.833 -69.775  12.058  1.00  0.00    -0.341 N 
HETATM   23  H   UNL     1      -6.200 -70.400  12.551  1.00  0.00     0.167 HD
BRANCH  22  24
HETATM   24  C   UNL     1      -7.797 -69.199  12.912  1.00  0.00     0.034 A 
HETATM   25  C   UNL     1      -8.853 -68.461  12.376  1.00  0.00     0.045 A 
HETATM   26  C   UNL     1      -9.807 -67.894  13.221  1.00  0.00     0.050 A 
HETATM   27  C   UNL     1      -9.705 -68.064  14.602  1.00  0.00     0.016 A 
HETATM   28  C   UNL     1      -8.649 -68.802  15.138  1.00  0.00     0.003 A 
HETATM   29  C   UNL     1      -7.695 -69.369  14.292  1.00  0.00     0.029 A 
BRANCH  26  30
HETATM   30  C   UNL     1     -10.936 -67.104  12.649  1.00  0.00     0.417 C 
HETATM   31  F   UNL     1     -10.538 -65.973  11.996  1.00  0.00    -0.166 F 
HETATM   32  F   UNL     1     -11.680 -67.798  11.738  1.00  0.00    -0.166 F 
HETATM   33  F   UNL     1     -11.820 -66.686  13.602  1.00  0.00    -0.166 F 
ENDBRANCH  26  30
ENDBRANCH  22  24
ENDBRANCH   5  22
TORSDOF 7
ENDMDL
MODEL 7
REMARK VINA RESULT:      -6.1     15.209     18.309
REMARK  7 active torsions:
REMARK  status: ('A' for Active; 'I' for Inactive)
REMARK       I    between atoms: N_5  and  C_13 
REMARK    1  A    between atoms: N_5  and  C_14 
REMARK    2  A    between atoms: N_6  and  C_17 
REMARK    3  A    between atoms: N_6  and  C_20 
REMARK    4  A    between atoms: N_7  and  C_21 
REMARK    5  A    between atoms: N_7  and  C_23 
REMARK    6  A    between atoms: C_10  and  C_13 
REMARK    7  A    between atoms: C_24  and  C_29 
ROOT
HETATM    1  N   UNL     1     -18.314 -64.924  24.889  1.00  0.00    -0.224 NA
HETATM    2  N   UNL     1     -18.496 -67.232  25.556  1.00  0.00    -0.224 NA
HETATM    3  C   UNL     1     -17.363 -65.293  24.006  1.00  0.00     0.133 A 
HETATM    4  C   UNL     1     -16.932 -66.594  23.842  1.00  0.00     0.100 A 
HETATM    5  C   UNL     1     -17.537 -67.538  24.652  1.00  0.00     0.133 A 
HETATM    6  C   UNL     1     -18.830 -65.929  25.622  1.00  0.00     0.237 A 
ENDROOT
BRANCH   3   7
HETATM    7  N   UNL     1     -16.763 -64.300  23.193  1.00  0.00    -0.341 N 
HETATM    8  H   UNL     1     -15.853 -64.570  22.829  1.00  0.00     0.167 HD
BRANCH   7   9
HETATM    9  C   UNL     1     -17.186 -63.023  22.789  1.00  0.00     0.035 A 
HETATM   10  C   UNL     1     -16.762 -61.888  23.486  1.00  0.00     0.059 A 
HETATM   11  C   UNL     1     -17.182 -60.621  23.084  1.00  0.00     0.036 A 
HETATM   12  C   UNL     1     -18.027 -60.482  21.983  1.00  0.00     0.029 A 
HETATM   13  C   UNL     1     -18.453 -61.611  21.284  1.00  0.00     0.004 A 
HETATM   14  C   UNL     1     -18.034 -62.880  21.687  1.00  0.00     0.029 A 
BRANCH  11  15
HETATM   15  N   UNL     1     -16.755 -59.490  23.782  1.00  0.00    -0.327 N 
HETATM   16  C   UNL     1     -15.531 -58.825  23.679  1.00  0.00     0.226 C 
HETATM   17  O   UNL     1     -14.585 -59.103  22.953  1.00  0.00    -0.273 OA
HETATM   18  H   UNL     1     -17.425 -59.114  24.450  1.00  0.00     0.169 HD
BRANCH  16  19
HETATM   19  C   UNL     1     -15.409 -57.638  24.583  1.00  0.00     0.078 A 
HETATM   20  C   UNL     1     -16.408 -57.476  25.673  1.00  0.00     0.015 A 
HETATM   21  C   UNL     1     -16.437 -56.566  24.481  1.00  0.00     0.015 A 
ENDBRANCH  16  19
ENDBRANCH  11  15
ENDBRANCH   7   9
ENDBRANCH   3   7
BRANCH   5  22
HETATM   22  N   UNL     1     -17.126 -68.878  24.516  1.00  0.00    -0.341 N 
HETATM   23  H   UNL     1     -16.144 -69.015  24.743  1.00  0.00     0.167 HD
BRANCH  22  24
HETATM   24  C   UNL     1     -17.683 -69.984  23.840  1.00  0.00     0.034 A 
HETATM   25  C   UNL     1     -18.375 -70.963  24.554  1.00  0.00     0.045 A 
HETATM   26  C   UNL     1     -18.926 -72.055  23.884  1.00  0.00     0.050 A 
HETATM   27  C   UNL     1     -18.786 -72.168  22.501  1.00  0.00     0.016 A 
HETATM   28  C   UNL     1     -18.095 -71.190  21.787  1.00  0.00     0.003 A 
HETATM   29  C   UNL     1     -17.543 -70.097  22.457  1.00  0.00     0.029 A 
BRANCH  26  30
HETATM   30  C   UNL     1     -19.666 -73.102  24.647  1.00  0.00     0.417 C 
HETATM   31  F   UNL     1     -20.559 -72.596  25.548  1.00  0.00    -0.166 F 
HETATM   32  F   UNL     1     -20.395 -73.942  23.855  1.00  0.00    -0.166 F 
HETATM   33  F   UNL     1     -18.835 -73.910  25.370  1.00  0.00    -0.166 F 
ENDBRANCH  26  30
ENDBRANCH  22  24
ENDBRANCH   5  22
TORSDOF 7
ENDMDL
MODEL 8
REMARK VINA RESULT:      -6.0     15.366     16.762
REMARK  7 active torsions:
REMARK  status: ('A' for Active; 'I' for Inactive)
REMARK       I    between atoms: N_5  and  C_13 
REMARK    1  A    between atoms: N_5  and  C_14 
REMARK    2  A    between atoms: N_6  and  C_17 
REMARK    3  A    between atoms: N_6  and  C_20 
REMARK    4  A    between atoms: N_7  and  C_21 
REMARK    5  A    between atoms: N_7  and  C_23 
REMARK    6  A    between atoms: C_10  and  C_13 
REMARK    7  A    between atoms: C_24  and  C_29 
ROOT
HETATM    1  N   UNL     1     -18.388 -66.263  25.427  1.00  0.00    -0.224 NA
HETATM    2  N   UNL     1     -18.046 -63.968  24.779  1.00  0.00    -0.224 NA
HETATM    3  C   UNL     1     -17.588 -66.632  24.406  1.00  0.00     0.133 A 
HETATM    4  C   UNL     1     -16.988 -65.740  23.541  1.00  0.00     0.100 A 
HETATM    5  C   UNL     1     -17.252 -64.402  23.772  1.00  0.00     0.133 A 
HETATM    6  C   UNL     1     -18.573 -64.935  25.553  1.00  0.00     0.237 A 
ENDROOT
BRANCH   3   7
HETATM    7  N   UNL     1     -17.339 -68.011  24.197  1.00  0.00    -0.341 N 
HETATM    8  H   UNL     1     -16.520 -68.354  24.692  1.00  0.00     0.167 HD
BRANCH   7   9
HETATM    9  C   UNL     1     -18.008 -68.992  23.447  1.00  0.00     0.035 A 
HETATM   10  C   UNL     1     -18.980 -68.623  22.513  1.00  0.00     0.059 A 
HETATM   11  C   UNL     1     -19.643 -69.598  21.768  1.00  0.00     0.036 A 
HETATM   12  C   UNL     1     -19.337 -70.946  21.954  1.00  0.00     0.029 A 
HETATM   13  C   UNL     1     -18.368 -71.320  22.885  1.00  0.00     0.004 A 
HETATM   14  C   UNL     1     -17.706 -70.344  23.631  1.00  0.00     0.029 A 
BRANCH  11  15
HETATM   15  N   UNL     1     -20.612 -69.225  20.835  1.00  0.00    -0.327 N 
HETATM   16  C   UNL     1     -22.000 -69.222  20.990  1.00  0.00     0.226 C 
HETATM   17  O   UNL     1     -22.646 -69.547  21.978  1.00  0.00    -0.273 OA
HETATM   18  H   UNL     1     -20.251 -68.925  19.932  1.00  0.00     0.169 HD
BRANCH  16  19
HETATM   19  C   UNL     1     -22.743 -68.758  19.776  1.00  0.00     0.078 A 
HETATM   20  C   UNL     1     -22.695 -69.604  18.553  1.00  0.00     0.015 A 
HETATM   21  C   UNL     1     -21.955 -68.300  18.600  1.00  0.00     0.015 A 
ENDBRANCH  16  19
ENDBRANCH  11  15
ENDBRANCH   7   9
ENDBRANCH   3   7
BRANCH   5  22
HETATM   22  N   UNL     1     -16.659 -63.459  22.912  1.00  0.00    -0.341 N 
HETATM   23  H   UNL     1     -15.792 -63.793  22.497  1.00  0.00     0.167 HD
BRANCH  22  24
HETATM   24  C   UNL     1     -16.831 -62.067  22.756  1.00  0.00     0.034 A 
HETATM   25  C   UNL     1     -15.879 -61.185  23.266  1.00  0.00     0.045 A 
HETATM   26  C   UNL     1     -16.048 -59.809  23.110  1.00  0.00     0.050 A 
HETATM   27  C   UNL     1     -17.170 -59.316  22.444  1.00  0.00     0.016 A 
HETATM   28  C   UNL     1     -18.123 -60.198  21.934  1.00  0.00     0.003 A 
HETATM   29  C   UNL     1     -17.953 -61.574  22.090  1.00  0.00     0.029 A 
BRANCH  26  30
HETATM   30  C   UNL     1     -15.030 -58.865  23.655  1.00  0.00     0.417 C 
HETATM   31  F   UNL     1     -13.870 -58.836  22.936  1.00  0.00    -0.166 F 
HETATM   32  F   UNL     1     -15.456 -57.568  23.697  1.00  0.00    -0.166 F 
HETATM   33  F   UNL     1     -14.661 -59.171  24.933  1.00  0.00    -0.166 F 
ENDBRANCH  26  30
ENDBRANCH  22  24
ENDBRANCH   5  22
TORSDOF 7
ENDMDL
MODEL 9
REMARK VINA RESULT:      -6.0     14.965     17.355
REMARK  7 active torsions:
REMARK  status: ('A' for Active; 'I' for Inactive)
REMARK       I    between atoms: N_5  and  C_13 
REMARK    1  A    between atoms: N_5  and  C_14 
REMARK    2  A    between atoms: N_6  and  C_17 
REMARK    3  A    between atoms: N_6  and  C_20 
REMARK    4  A    between atoms: N_7  and  C_21 
REMARK    5  A    between atoms: N_7  and  C_23 
REMARK    6  A    between atoms: C_10  and  C_13 
REMARK    7  A    between atoms: C_24  and  C_29 
ROOT
HETATM    1  N   UNL     1     -19.051 -65.879  24.631  1.00  0.00    -0.224 NA
HETATM    2  N   UNL     1     -17.932 -63.756  24.852  1.00  0.00    -0.224 NA
HETATM    3  C   UNL     1     -18.530 -65.982  23.391  1.00  0.00     0.133 A 
HETATM    4  C   UNL     1     -17.712 -65.028  22.821  1.00  0.00     0.100 A 
HETATM    5  C   UNL     1     -17.440 -63.919  23.602  1.00  0.00     0.133 A 
HETATM    6  C   UNL     1     -18.717 -64.756  25.296  1.00  0.00     0.237 A 
ENDROOT
BRANCH   3   7
HETATM    7  N   UNL     1     -18.830 -67.131  22.618  1.00  0.00    -0.341 N 
HETATM    8  H   UNL     1     -19.450 -66.942  21.835  1.00  0.00     0.167 HD
BRANCH   7   9
HETATM    9  C   UNL     1     -18.431 -68.474  22.722  1.00  0.00     0.035 A 
HETATM   10  C   UNL     1     -18.605 -69.169  23.922  1.00  0.00     0.059 A 
HETATM   11  C   UNL     1     -18.210 -70.503  24.023  1.00  0.00     0.036 A 
HETATM   12  C   UNL     1     -17.641 -71.148  22.925  1.00  0.00     0.029 A 
HETATM   13  C   UNL     1     -17.466 -70.458  21.725  1.00  0.00     0.004 A 
HETATM   14  C   UNL     1     -17.860 -69.124  21.624  1.00  0.00     0.029 A 
BRANCH  11  15
HETATM   15  N   UNL     1     -18.386 -71.193  25.223  1.00  0.00    -0.327 N 
HETATM   16  C   UNL     1     -19.551 -71.789  25.712  1.00  0.00     0.226 C 
HETATM   17  O   UNL     1     -20.654 -71.825  25.182  1.00  0.00    -0.273 OA
HETATM   18  H   UNL     1     -17.557 -71.260  25.810  1.00  0.00     0.169 HD
BRANCH  16  19
HETATM   19  C   UNL     1     -19.380 -72.451  27.043  1.00  0.00     0.078 A 
HETATM   20  C   UNL     1     -18.755 -71.670  28.144  1.00  0.00     0.015 A 
HETATM   21  C   UNL     1     -18.001 -72.790  27.490  1.00  0.00     0.015 A 
ENDBRANCH  16  19
ENDBRANCH  11  15
ENDBRANCH   7   9
ENDBRANCH   3   7
BRANCH   5  22
HETATM   22  N   UNL     1     -16.609 -62.922  23.057  1.00  0.00    -0.341 N 
HETATM   23  H   UNL     1     -15.647 -63.233  22.934  1.00  0.00     0.167 HD
BRANCH  22  24
HETATM   24  C   UNL     1     -16.741 -61.522  22.950  1.00  0.00     0.034 A 
HETATM   25  C   UNL     1     -15.740 -60.686  23.444  1.00  0.00     0.045 A 
HETATM   26  C   UNL     1     -15.871 -59.302  23.336  1.00  0.00     0.050 A 
HETATM   27  C   UNL     1     -17.004 -58.753  22.734  1.00  0.00     0.016 A 
HETATM   28  C   UNL     1     -18.005 -59.589  22.240  1.00  0.00     0.003 A 
HETATM   29  C   UNL     1     -17.874 -60.974  22.348  1.00  0.00     0.029 A 
BRANCH  26  30
HETATM   30  C   UNL     1     -14.800 -58.407  23.864  1.00  0.00     0.417 C 
HETATM   31  F   UNL     1     -13.684 -58.366  23.079  1.00  0.00    -0.166 F 
HETATM   32  F   UNL     1     -15.192 -57.106  23.995  1.00  0.00    -0.166 F 
HETATM   33  F   UNL     1     -14.364 -58.785  25.102  1.00  0.00    -0.166 F 
ENDBRANCH  26  30
ENDBRANCH  22  24
ENDBRANCH   5  22
TORSDOF 7
ENDMDL
