MODEL 1
REMARK VINA RESULT:      -8.4      0.000      0.000
REMARK  7 active torsions:
REMARK  status: ('A' for Active; 'I' for Inactive)
REMARK       I    between atoms: N_5  and  C_13 
REMARK    1  A    between atoms: N_5  and  C_14 
REMARK    2  A    between atoms: N_6  and  C_17 
REMARK    3  A    between atoms: N_6  and  C_20 
REMARK    4  A    between atoms: N_7  and  C_21 
REMARK    5  A    between atoms: N_7  and  C_23 
REMARK    6  A    between atoms: C_10  and  C_13 
REMARK    7  A    between atoms: C_24  and  C_29 
ROOT
HETATM    1  N   UNL     1      -4.968  38.397  24.784  1.00  0.00    -0.224 NA
HETATM    2  N   UNL     1      -6.142  37.502  26.688  1.00  0.00    -0.224 NA
HETATM    3  C   UNL     1      -3.811  38.184  25.444  1.00  0.00     0.133 A 
HETATM    4  C   UNL     1      -3.740  37.641  26.711  1.00  0.00     0.100 A 
HETATM    5  C   UNL     1      -4.949  37.313  27.298  1.00  0.00     0.133 A 
HETATM    6  C   UNL     1      -6.079  38.040  25.455  1.00  0.00     0.237 A 
ENDROOT
BRANCH   3   7
HETATM    7  N   UNL     1      -2.591  38.532  24.814  1.00  0.00    -0.341 N 
HETATM    8  H   UNL     1      -1.876  38.849  25.463  1.00  0.00     0.167 HD
BRANCH   7   9
HETATM    9  C   UNL     1      -2.180  38.517  23.471  1.00  0.00     0.035 A 
HETATM   10  C   UNL     1      -1.455  39.589  22.944  1.00  0.00     0.059 A 
HETATM   11  C   UNL     1      -1.046  39.572  21.611  1.00  0.00     0.036 A 
HETATM   12  C   UNL     1      -1.360  38.482  20.799  1.00  0.00     0.029 A 
HETATM   13  C   UNL     1      -2.082  37.409  21.320  1.00  0.00     0.004 A 
HETATM   14  C   UNL     1      -2.492  37.427  22.654  1.00  0.00     0.029 A 
BRANCH  11  15
HETATM   15  N   UNL     1      -0.322  40.645  21.090  1.00  0.00    -0.327 N 
HETATM   16  C   UNL     1      -0.799  41.723  20.340  1.00  0.00     0.226 C 
HETATM   17  O   UNL     1      -1.951  41.943  19.992  1.00  0.00    -0.273 OA
HETATM   18  H   UNL     1       0.678  40.627  21.280  1.00  0.00     0.169 HD
BRANCH  16  19
HETATM   19  C   UNL     1       0.263  42.700  19.941  1.00  0.00     0.078 A 
HETATM   20  C   UNL     1       0.377  43.970  20.707  1.00  0.00     0.015 A 
HETATM   21  C   UNL     1      -0.159  43.978  19.306  1.00  0.00     0.015 A 
ENDBRANCH  16  19
ENDBRANCH  11  15
ENDBRANCH   7   9
ENDBRANCH   3   7
BRANCH   5  22
HETATM   22  N   UNL     1      -4.920  36.756  28.591  1.00  0.00    -0.341 N 
HETATM   23  H   UNL     1      -4.029  36.896  29.061  1.00  0.00     0.167 HD
BRANCH  22  24
HETATM   24  C   UNL     1      -5.725  35.792  29.233  1.00  0.00     0.034 A 
HETATM   25  C   UNL     1      -5.974  35.890  30.602  1.00  0.00     0.045 A 
HETATM   26  C   UNL     1      -6.770  34.937  31.235  1.00  0.00     0.050 A 
HETATM   27  C   UNL     1      -7.318  33.885  30.500  1.00  0.00     0.016 A 
HETATM   28  C   UNL     1      -7.069  33.787  29.132  1.00  0.00     0.003 A 
HETATM   29  C   UNL     1      -6.272  34.740  28.498  1.00  0.00     0.029 A 
BRANCH  26  30
HETATM   30  C   UNL     1      -7.037  35.041  32.700  1.00  0.00     0.417 C 
HETATM   31  F   UNL     1      -8.341  35.310  33.001  1.00  0.00    -0.166 F 
HETATM   32  F   UNL     1      -6.740  33.901  33.391  1.00  0.00    -0.166 F 
HETATM   33  F   UNL     1      -6.311  36.031  33.296  1.00  0.00    -0.166 F 
ENDBRANCH  26  30
ENDBRANCH  22  24
ENDBRANCH   5  22
TORSDOF 7
ENDMDL
MODEL 2
REMARK VINA RESULT:      -8.3      2.317      3.338
REMARK  7 active torsions:
REMARK  status: ('A' for Active; 'I' for Inactive)
REMARK       I    between atoms: N_5  and  C_13 
REMARK    1  A    between atoms: N_5  and  C_14 
REMARK    2  A    between atoms: N_6  and  C_17 
REMARK    3  A    between atoms: N_6  and  C_20 
REMARK    4  A    between atoms: N_7  and  C_21 
REMARK    5  A    between atoms: N_7  and  C_23 
REMARK    6  A    between atoms: C_10  and  C_13 
REMARK    7  A    between atoms: C_24  and  C_29 
ROOT
HETATM    1  N   UNL     1      -5.253  38.391  25.019  1.00  0.00    -0.224 NA
HETATM    2  N   UNL     1      -6.238  37.193  26.863  1.00  0.00    -0.224 NA
HETATM    3  C   UNL     1      -4.066  38.323  25.658  1.00  0.00     0.133 A 
HETATM    4  C   UNL     1      -3.889  37.715  26.884  1.00  0.00     0.100 A 
HETATM    5  C   UNL     1      -5.021  37.159  27.453  1.00  0.00     0.133 A 
HETATM    6  C   UNL     1      -6.282  37.814  25.670  1.00  0.00     0.237 A 
ENDROOT
BRANCH   3   7
HETATM    7  N   UNL     1      -2.929  38.905  25.047  1.00  0.00    -0.341 N 
HETATM    8  H   UNL     1      -2.592  39.736  25.526  1.00  0.00     0.167 HD
BRANCH   7   9
HETATM    9  C   UNL     1      -2.175  38.551  23.915  1.00  0.00     0.035 A 
HETATM   10  C   UNL     1      -2.794  37.943  22.820  1.00  0.00     0.059 A 
HETATM   11  C   UNL     1      -2.046  37.594  21.696  1.00  0.00     0.036 A 
HETATM   12  C   UNL     1      -0.675  37.852  21.663  1.00  0.00     0.029 A 
HETATM   13  C   UNL     1      -0.053  38.459  22.753  1.00  0.00     0.004 A 
HETATM   14  C   UNL     1      -0.802  38.808  23.878  1.00  0.00     0.029 A 
BRANCH  11  15
HETATM   15  N   UNL     1      -2.668  36.987  20.604  1.00  0.00    -0.327 N 
HETATM   16  C   UNL     1      -3.132  37.589  19.433  1.00  0.00     0.226 C 
HETATM   17  O   UNL     1      -3.085  38.774  19.130  1.00  0.00    -0.273 OA
HETATM   18  H   UNL     1      -2.799  35.980  20.684  1.00  0.00     0.169 HD
BRANCH  16  19
HETATM   19  C   UNL     1      -3.751  36.631  18.464  1.00  0.00     0.078 A 
HETATM   20  C   UNL     1      -4.748  35.653  18.977  1.00  0.00     0.015 A 
HETATM   21  C   UNL     1      -3.382  35.193  18.561  1.00  0.00     0.015 A 
ENDBRANCH  16  19
ENDBRANCH  11  15
ENDBRANCH   7   9
ENDBRANCH   3   7
BRANCH   5  22
HETATM   22  N   UNL     1      -4.882  36.528  28.704  1.00  0.00    -0.341 N 
HETATM   23  H   UNL     1      -3.919  36.508  29.032  1.00  0.00     0.167 HD
BRANCH  22  24
HETATM   24  C   UNL     1      -5.718  35.656  29.432  1.00  0.00     0.034 A 
HETATM   25  C   UNL     1      -5.943  35.876  30.791  1.00  0.00     0.045 A 
HETATM   26  C   UNL     1      -6.772  35.014  31.509  1.00  0.00     0.050 A 
HETATM   27  C   UNL     1      -7.375  33.932  30.868  1.00  0.00     0.016 A 
HETATM   28  C   UNL     1      -7.151  33.711  29.509  1.00  0.00     0.003 A 
HETATM   29  C   UNL     1      -6.322  34.574  28.791  1.00  0.00     0.029 A 
BRANCH  26  30
HETATM   30  C   UNL     1      -7.012  35.248  32.962  1.00  0.00     0.417 C 
HETATM   31  F   UNL     1      -7.147  34.099  33.687  1.00  0.00    -0.166 F 
HETATM   32  F   UNL     1      -6.009  35.942  33.577  1.00  0.00    -0.166 F 
HETATM   33  F   UNL     1      -8.151  35.965  33.197  1.00  0.00    -0.166 F 
ENDBRANCH  26  30
ENDBRANCH  22  24
ENDBRANCH   5  22
TORSDOF 7
ENDMDL
MODEL 3
REMARK VINA RESULT:      -8.0      5.529     11.245
REMARK  7 active torsions:
REMARK  status: ('A' for Active; 'I' for Inactive)
REMARK       I    between atoms: N_5  and  C_13 
REMARK    1  A    between atoms: N_5  and  C_14 
REMARK    2  A    between atoms: N_6  and  C_17 
REMARK    3  A    between atoms: N_6  and  C_20 
REMARK    4  A    between atoms: N_7  and  C_21 
REMARK    5  A    between atoms: N_7  and  C_23 
REMARK    6  A    between atoms: C_10  and  C_13 
REMARK    7  A    between atoms: C_24  and  C_29 
ROOT
HETATM    1  N   UNL     1      -6.246  37.184  26.946  1.00  0.00    -0.224 NA
HETATM    2  N   UNL     1      -5.227  38.382  25.120  1.00  0.00    -0.224 NA
HETATM    3  C   UNL     1      -5.034  37.126  27.535  1.00  0.00     0.133 A 
HETATM    4  C   UNL     1      -3.888  37.665  26.987  1.00  0.00     0.100 A 
HETATM    5  C   UNL     1      -4.040  38.290  25.762  1.00  0.00     0.133 A 
HETATM    6  C   UNL     1      -6.270  37.816  25.757  1.00  0.00     0.237 A 
ENDROOT
BRANCH   3   7
HETATM    7  N   UNL     1      -4.915  36.477  28.789  1.00  0.00    -0.341 N 
HETATM    8  H   UNL     1      -4.020  36.635  29.243  1.00  0.00     0.167 HD
BRANCH   7   9
HETATM    9  C   UNL     1      -5.796  35.667  29.524  1.00  0.00     0.035 A 
HETATM   10  C   UNL     1      -6.290  36.103  30.757  1.00  0.00     0.059 A 
HETATM   11  C   UNL     1      -7.166  35.299  31.485  1.00  0.00     0.036 A 
HETATM   12  C   UNL     1      -7.551  34.055  30.985  1.00  0.00     0.029 A 
HETATM   13  C   UNL     1      -7.061  33.616  29.756  1.00  0.00     0.004 A 
HETATM   14  C   UNL     1      -6.184  34.420  29.027  1.00  0.00     0.029 A 
BRANCH  11  15
HETATM   15  N   UNL     1      -7.658  35.739  32.715  1.00  0.00    -0.327 N 
HETATM   16  C   UNL     1      -7.034  35.678  33.964  1.00  0.00     0.226 C 
HETATM   17  O   UNL     1      -5.928  35.227  34.229  1.00  0.00    -0.273 OA
HETATM   18  H   UNL     1      -8.590  36.147  32.689  1.00  0.00     0.169 HD
BRANCH  16  19
HETATM   19  C   UNL     1      -7.856  36.246  35.079  1.00  0.00     0.078 A 
HETATM   20  C   UNL     1      -9.231  36.722  34.770  1.00  0.00     0.015 A 
HETATM   21  C   UNL     1      -8.140  37.707  35.070  1.00  0.00     0.015 A 
ENDBRANCH  16  19
ENDBRANCH  11  15
ENDBRANCH   7   9
ENDBRANCH   3   7
BRANCH   5  22
HETATM   22  N   UNL     1      -2.894  38.854  25.168  1.00  0.00    -0.341 N 
HETATM   23  H   UNL     1      -2.670  39.775  25.539  1.00  0.00     0.167 HD
BRANCH  22  24
HETATM   24  C   UNL     1      -2.197  38.568  23.976  1.00  0.00     0.034 A 
HETATM   25  C   UNL     1      -2.876  38.033  22.881  1.00  0.00     0.045 A 
HETATM   26  C   UNL     1      -2.187  37.752  21.702  1.00  0.00     0.050 A 
HETATM   27  C   UNL     1      -0.817  38.005  21.618  1.00  0.00     0.016 A 
HETATM   28  C   UNL     1      -0.138  38.539  22.712  1.00  0.00     0.003 A 
HETATM   29  C   UNL     1      -0.828  38.820  23.892  1.00  0.00     0.029 A 
BRANCH  26  30
HETATM   30  C   UNL     1      -2.913  37.180  20.531  1.00  0.00     0.417 C 
HETATM   31  F   UNL     1      -4.155  36.703  20.836  1.00  0.00    -0.166 F 
HETATM   32  F   UNL     1      -3.114  38.078  19.522  1.00  0.00    -0.166 F 
HETATM   33  F   UNL     1      -2.247  36.133  19.961  1.00  0.00    -0.166 F 
ENDBRANCH  26  30
ENDBRANCH  22  24
ENDBRANCH   5  22
TORSDOF 7
ENDMDL
MODEL 4
REMARK VINA RESULT:      -7.8      5.659     10.773
REMARK  7 active torsions:
REMARK  status: ('A' for Active; 'I' for Inactive)
REMARK       I    between atoms: N_5  and  C_13 
REMARK    1  A    between atoms: N_5  and  C_14 
REMARK    2  A    between atoms: N_6  and  C_17 
REMARK    3  A    between atoms: N_6  and  C_20 
REMARK    4  A    between atoms: N_7  and  C_21 
REMARK    5  A    between atoms: N_7  and  C_23 
REMARK    6  A    between atoms: C_10  and  C_13 
REMARK    7  A    between atoms: C_24  and  C_29 
ROOT
HETATM    1  N   UNL     1      -7.481  38.333  25.098  1.00  0.00    -0.224 NA
HETATM    2  N   UNL     1      -5.387  38.567  23.930  1.00  0.00    -0.224 NA
HETATM    3  C   UNL     1      -6.818  37.695  26.085  1.00  0.00     0.133 A 
HETATM    4  C   UNL     1      -5.458  37.460  26.066  1.00  0.00     0.100 A 
HETATM    5  C   UNL     1      -4.779  37.921  24.952  1.00  0.00     0.133 A 
HETATM    6  C   UNL     1      -6.716  38.735  24.065  1.00  0.00     0.237 A 
ENDROOT
BRANCH   3   7
HETATM    7  N   UNL     1      -7.544  37.236  27.210  1.00  0.00    -0.341 N 
HETATM    8  H   UNL     1      -8.449  37.685  27.318  1.00  0.00     0.167 HD
BRANCH   7   9
HETATM    9  C   UNL     1      -7.258  36.279  28.197  1.00  0.00     0.035 A 
HETATM   10  C   UNL     1      -6.852  36.681  29.472  1.00  0.00     0.059 A 
HETATM   11  C   UNL     1      -6.569  35.730  30.451  1.00  0.00     0.036 A 
HETATM   12  C   UNL     1      -6.691  34.371  30.160  1.00  0.00     0.029 A 
HETATM   13  C   UNL     1      -7.097  33.964  28.890  1.00  0.00     0.004 A 
HETATM   14  C   UNL     1      -7.378  34.916  27.910  1.00  0.00     0.029 A 
BRANCH  11  15
HETATM   15  N   UNL     1      -6.165  36.137  31.724  1.00  0.00    -0.327 N 
HETATM   16  C   UNL     1      -6.873  36.909  32.647  1.00  0.00     0.226 C 
HETATM   17  O   UNL     1      -7.994  37.384  32.524  1.00  0.00    -0.273 OA
HETATM   18  H   UNL     1      -5.234  35.832  32.001  1.00  0.00     0.169 HD
BRANCH  16  19
HETATM   19  C   UNL     1      -6.132  37.157  33.924  1.00  0.00     0.078 A 
HETATM   20  C   UNL     1      -4.750  36.622  34.053  1.00  0.00     0.015 A 
HETATM   21  C   UNL     1      -5.876  36.001  34.826  1.00  0.00     0.015 A 
ENDBRANCH  16  19
ENDBRANCH  11  15
ENDBRANCH   7   9
ENDBRANCH   3   7
BRANCH   5  22
HETATM   22  N   UNL     1      -3.390  37.701  24.895  1.00  0.00    -0.341 N 
HETATM   23  H   UNL     1      -2.994  37.435  25.794  1.00  0.00     0.167 HD
BRANCH  22  24
HETATM   24  C   UNL     1      -2.402  38.074  23.960  1.00  0.00     0.034 A 
HETATM   25  C   UNL     1      -2.389  37.498  22.689  1.00  0.00     0.045 A 
HETATM   26  C   UNL     1      -1.413  37.869  21.765  1.00  0.00     0.050 A 
HETATM   27  C   UNL     1      -0.449  38.815  22.111  1.00  0.00     0.016 A 
HETATM   28  C   UNL     1      -0.460  39.391  23.381  1.00  0.00     0.003 A 
HETATM   29  C   UNL     1      -1.437  39.020  24.306  1.00  0.00     0.029 A 
BRANCH  26  30
HETATM   30  C   UNL     1      -1.400  37.254  20.406  1.00  0.00     0.417 C 
HETATM   31  F   UNL     1      -1.592  38.152  19.396  1.00  0.00    -0.166 F 
HETATM   32  F   UNL     1      -0.227  36.623  20.104  1.00  0.00    -0.166 F 
HETATM   33  F   UNL     1      -2.374  36.310  20.247  1.00  0.00    -0.166 F 
ENDBRANCH  26  30
ENDBRANCH  22  24
ENDBRANCH   5  22
TORSDOF 7
ENDMDL
MODEL 5
REMARK VINA RESULT:      -7.8      5.180     10.556
REMARK  7 active torsions:
REMARK  status: ('A' for Active; 'I' for Inactive)
REMARK       I    between atoms: N_5  and  C_13 
REMARK    1  A    between atoms: N_5  and  C_14 
REMARK    2  A    between atoms: N_6  and  C_17 
REMARK    3  A    between atoms: N_6  and  C_20 
REMARK    4  A    between atoms: N_7  and  C_21 
REMARK    5  A    between atoms: N_7  and  C_23 
REMARK    6  A    between atoms: C_10  and  C_13 
REMARK    7  A    between atoms: C_24  and  C_29 
ROOT
HETATM    1  N   UNL     1      -7.689  37.798  26.748  1.00  0.00    -0.224 NA
HETATM    2  N   UNL     1      -7.682  38.875  24.593  1.00  0.00    -0.224 NA
HETATM    3  C   UNL     1      -6.386  37.501  26.562  1.00  0.00     0.133 A 
HETATM    4  C   UNL     1      -5.672  37.852  25.434  1.00  0.00     0.100 A 
HETATM    5  C   UNL     1      -6.375  38.547  24.466  1.00  0.00     0.133 A 
HETATM    6  C   UNL     1      -8.266  38.476  25.738  1.00  0.00     0.237 A 
ENDROOT
BRANCH   3   7
HETATM    7  N   UNL     1      -5.697  36.787  27.574  1.00  0.00    -0.341 N 
HETATM    8  H   UNL     1      -4.690  36.913  27.544  1.00  0.00     0.167 HD
BRANCH   7   9
HETATM    9  C   UNL     1      -6.140  35.948  28.610  1.00  0.00     0.035 A 
HETATM   10  C   UNL     1      -5.948  36.317  29.945  1.00  0.00     0.059 A 
HETATM   11  C   UNL     1      -6.388  35.484  30.973  1.00  0.00     0.036 A 
HETATM   12  C   UNL     1      -7.023  34.279  30.671  1.00  0.00     0.029 A 
HETATM   13  C   UNL     1      -7.217  33.907  29.341  1.00  0.00     0.004 A 
HETATM   14  C   UNL     1      -6.776  34.740  28.313  1.00  0.00     0.029 A 
BRANCH  11  15
HETATM   15  N   UNL     1      -6.195  35.856  32.304  1.00  0.00    -0.327 N 
HETATM   16  C   UNL     1      -6.831  36.877  33.014  1.00  0.00     0.226 C 
HETATM   17  O   UNL     1      -7.689  37.651  32.609  1.00  0.00    -0.273 OA
HETATM   18  H   UNL     1      -5.498  35.313  32.809  1.00  0.00     0.169 HD
BRANCH  16  19
HETATM   19  C   UNL     1      -6.378  36.999  34.435  1.00  0.00     0.078 A 
HETATM   20  C   UNL     1      -4.961  37.369  34.695  1.00  0.00     0.015 A 
HETATM   21  C   UNL     1      -5.440  35.973  34.966  1.00  0.00     0.015 A 
ENDBRANCH  16  19
ENDBRANCH  11  15
ENDBRANCH   7   9
ENDBRANCH   3   7
BRANCH   5  22
HETATM   22  N   UNL     1      -5.683  38.925  23.300  1.00  0.00    -0.341 N 
HETATM   23  H   UNL     1      -6.283  39.377  22.613  1.00  0.00     0.167 HD
BRANCH  22  24
HETATM   24  C   UNL     1      -4.441  38.534  22.757  1.00  0.00     0.034 A 
HETATM   25  C   UNL     1      -3.265  39.145  23.191  1.00  0.00     0.045 A 
HETATM   26  C   UNL     1      -2.038  38.756  22.655  1.00  0.00     0.050 A 
HETATM   27  C   UNL     1      -1.986  37.756  21.684  1.00  0.00     0.016 A 
HETATM   28  C   UNL     1      -3.162  37.144  21.250  1.00  0.00     0.003 A 
HETATM   29  C   UNL     1      -4.390  37.533  21.786  1.00  0.00     0.029 A 
BRANCH  26  30
HETATM   30  C   UNL     1      -0.780  39.410  23.119  1.00  0.00     0.417 C 
HETATM   31  F   UNL     1       0.348  38.895  22.548  1.00  0.00    -0.166 F 
HETATM   32  F   UNL     1      -0.732  40.750  22.856  1.00  0.00    -0.166 F 
HETATM   33  F   UNL     1      -0.594  39.295  24.467  1.00  0.00    -0.166 F 
ENDBRANCH  26  30
ENDBRANCH  22  24
ENDBRANCH   5  22
TORSDOF 7
ENDMDL
MODEL 6
REMARK VINA RESULT:      -7.5      6.181     11.685
REMARK  7 active torsions:
REMARK  status: ('A' for Active; 'I' for Inactive)
REMARK       I    between atoms: N_5  and  C_13 
REMARK    1  A    between atoms: N_5  and  C_14 
REMARK    2  A    between atoms: N_6  and  C_17 
REMARK    3  A    between atoms: N_6  and  C_20 
REMARK    4  A    between atoms: N_7  and  C_21 
REMARK    5  A    between atoms: N_7  and  C_23 
REMARK    6  A    between atoms: C_10  and  C_13 
REMARK    7  A    between atoms: C_24  and  C_29 
ROOT
HETATM    1  N   UNL     1      -2.518  37.144  22.843  1.00  0.00    -0.224 NA
HETATM    2  N   UNL     1      -1.311  38.077  20.978  1.00  0.00    -0.224 NA
HETATM    3  C   UNL     1      -2.285  38.288  23.519  1.00  0.00     0.133 A 
HETATM    4  C   UNL     1      -1.582  39.356  22.999  1.00  0.00     0.100 A 
HETATM    5  C   UNL     1      -1.110  39.199  21.708  1.00  0.00     0.133 A 
HETATM    6  C   UNL     1      -2.010  37.106  21.597  1.00  0.00     0.237 A 
ENDROOT
BRANCH   3   7
HETATM    7  N   UNL     1      -2.782  38.415  24.839  1.00  0.00    -0.341 N 
HETATM    8  H   UNL     1      -2.097  38.776  25.497  1.00  0.00     0.167 HD
BRANCH   7   9
HETATM    9  C   UNL     1      -4.037  38.145  25.409  1.00  0.00     0.035 A 
HETATM   10  C   UNL     1      -4.126  37.633  26.707  1.00  0.00     0.059 A 
HETATM   11  C   UNL     1      -5.373  37.367  27.272  1.00  0.00     0.036 A 
HETATM   12  C   UNL     1      -6.537  37.611  26.542  1.00  0.00     0.029 A 
HETATM   13  C   UNL     1      -6.453  38.122  25.247  1.00  0.00     0.004 A 
HETATM   14  C   UNL     1      -5.206  38.388  24.682  1.00  0.00     0.029 A 
BRANCH  11  15
HETATM   15  N   UNL     1      -5.457  36.857  28.568  1.00  0.00    -0.327 N 
HETATM   16  C   UNL     1      -5.936  35.609  28.973  1.00  0.00     0.226 C 
HETATM   17  O   UNL     1      -6.378  34.710  28.269  1.00  0.00    -0.273 OA
HETATM   18  H   UNL     1      -5.131  37.482  29.302  1.00  0.00     0.169 HD
BRANCH  16  19
HETATM   19  C   UNL     1      -5.880  35.390  30.453  1.00  0.00     0.078 A 
HETATM   20  C   UNL     1      -7.059  34.776  31.120  1.00  0.00     0.015 A 
HETATM   21  C   UNL     1      -6.749  36.229  31.322  1.00  0.00     0.015 A 
ENDBRANCH  16  19
ENDBRANCH  11  15
ENDBRANCH   7   9
ENDBRANCH   3   7
BRANCH   5  22
HETATM   22  N   UNL     1      -0.389  40.266  21.140  1.00  0.00    -0.341 N 
HETATM   23  H   UNL     1       0.548  40.360  21.527  1.00  0.00     0.167 HD
BRANCH  22  24
HETATM   24  C   UNL     1      -0.785  41.402  20.404  1.00  0.00     0.034 A 
HETATM   25  C   UNL     1       0.018  42.542  20.391  1.00  0.00     0.045 A 
HETATM   26  C   UNL     1      -0.374  43.664  19.661  1.00  0.00     0.050 A 
HETATM   27  C   UNL     1      -1.570  43.646  18.944  1.00  0.00     0.016 A 
HETATM   28  C   UNL     1      -2.374  42.507  18.957  1.00  0.00     0.003 A 
HETATM   29  C   UNL     1      -1.982  41.384  19.687  1.00  0.00     0.029 A 
BRANCH  26  30
HETATM   30  C   UNL     1       0.486  44.883  19.648  1.00  0.00     0.417 C 
HETATM   31  F   UNL     1       0.284  45.683  18.560  1.00  0.00    -0.166 F 
HETATM   32  F   UNL     1       0.296  45.697  20.728  1.00  0.00    -0.166 F 
HETATM   33  F   UNL     1       1.819  44.586  19.642  1.00  0.00    -0.166 F 
ENDBRANCH  26  30
ENDBRANCH  22  24
ENDBRANCH   5  22
TORSDOF 7
ENDMDL
MODEL 7
REMARK VINA RESULT:      -7.4      2.698      4.114
REMARK  7 active torsions:
REMARK  status: ('A' for Active; 'I' for Inactive)
REMARK       I    between atoms: N_5  and  C_13 
REMARK    1  A    between atoms: N_5  and  C_14 
REMARK    2  A    between atoms: N_6  and  C_17 
REMARK    3  A    between atoms: N_6  and  C_20 
REMARK    4  A    between atoms: N_7  and  C_21 
REMARK    5  A    between atoms: N_7  and  C_23 
REMARK    6  A    between atoms: C_10  and  C_13 
REMARK    7  A    between atoms: C_24  and  C_29 
ROOT
HETATM    1  N   UNL     1      -7.921  35.401  26.120  1.00  0.00    -0.224 NA
HETATM    2  N   UNL     1      -7.333  34.075  28.043  1.00  0.00    -0.224 NA
HETATM    3  C   UNL     1      -7.277  36.442  26.687  1.00  0.00     0.133 A 
HETATM    4  C   UNL     1      -6.645  36.377  27.913  1.00  0.00     0.100 A 
HETATM    5  C   UNL     1      -6.703  35.156  28.559  1.00  0.00     0.133 A 
HETATM    6  C   UNL     1      -7.911  34.265  26.842  1.00  0.00     0.237 A 
ENDROOT
BRANCH   3   7
HETATM    7  N   UNL     1      -7.239  37.679  25.998  1.00  0.00    -0.341 N 
HETATM    8  H   UNL     1      -7.669  38.443  26.512  1.00  0.00     0.167 HD
BRANCH   7   9
HETATM    9  C   UNL     1      -6.716  38.052  24.748  1.00  0.00     0.035 A 
HETATM   10  C   UNL     1      -5.379  38.443  24.632  1.00  0.00     0.059 A 
HETATM   11  C   UNL     1      -4.861  38.811  23.392  1.00  0.00     0.036 A 
HETATM   12  C   UNL     1      -5.677  38.790  22.260  1.00  0.00     0.029 A 
HETATM   13  C   UNL     1      -7.012  38.400  22.370  1.00  0.00     0.004 A 
HETATM   14  C   UNL     1      -7.530  38.032  23.612  1.00  0.00     0.029 A 
BRANCH  11  15
HETATM   15  N   UNL     1      -3.526  39.201  23.280  1.00  0.00    -0.327 N 
HETATM   16  C   UNL     1      -2.521  38.619  22.504  1.00  0.00     0.226 C 
HETATM   17  O   UNL     1      -2.611  37.649  21.764  1.00  0.00    -0.273 OA
HETATM   18  H   UNL     1      -3.261  40.007  23.843  1.00  0.00     0.169 HD
BRANCH  16  19
HETATM   19  C   UNL     1      -1.192  39.299  22.625  1.00  0.00     0.078 A 
HETATM   20  C   UNL     1       0.024  38.453  22.759  1.00  0.00     0.015 A 
HETATM   21  C   UNL     1      -0.485  39.237  23.933  1.00  0.00     0.015 A 
ENDBRANCH  16  19
ENDBRANCH  11  15
ENDBRANCH   7   9
ENDBRANCH   3   7
BRANCH   5  22
HETATM   22  N   UNL     1      -6.070  35.048  29.812  1.00  0.00    -0.341 N 
HETATM   23  H   UNL     1      -5.161  34.595  29.758  1.00  0.00     0.167 HD
BRANCH  22  24
HETATM   24  C   UNL     1      -6.551  35.136  31.135  1.00  0.00     0.034 A 
HETATM   25  C   UNL     1      -6.129  36.176  31.964  1.00  0.00     0.045 A 
HETATM   26  C   UNL     1      -6.606  36.263  33.271  1.00  0.00     0.050 A 
HETATM   27  C   UNL     1      -7.505  35.310  33.751  1.00  0.00     0.016 A 
HETATM   28  C   UNL     1      -7.927  34.270  32.923  1.00  0.00     0.003 A 
HETATM   29  C   UNL     1      -7.450  34.183  31.615  1.00  0.00     0.029 A 
BRANCH  26  30
HETATM   30  C   UNL     1      -6.155  37.375  34.158  1.00  0.00     0.417 C 
HETATM   31  F   UNL     1      -6.404  38.617  33.649  1.00  0.00    -0.166 F 
HETATM   32  F   UNL     1      -6.749  37.368  35.388  1.00  0.00    -0.166 F 
HETATM   33  F   UNL     1      -4.811  37.341  34.400  1.00  0.00    -0.166 F 
ENDBRANCH  26  30
ENDBRANCH  22  24
ENDBRANCH   5  22
TORSDOF 7
ENDMDL
MODEL 8
REMARK VINA RESULT:      -7.3      5.937     10.995
REMARK  7 active torsions:
REMARK  status: ('A' for Active; 'I' for Inactive)
REMARK       I    between atoms: N_5  and  C_13 
REMARK    1  A    between atoms: N_5  and  C_14 
REMARK    2  A    between atoms: N_6  and  C_17 
REMARK    3  A    between atoms: N_6  and  C_20 
REMARK    4  A    between atoms: N_7  and  C_21 
REMARK    5  A    between atoms: N_7  and  C_23 
REMARK    6  A    between atoms: C_10  and  C_13 
REMARK    7  A    between atoms: C_24  and  C_29 
ROOT
HETATM    1  N   UNL     1      -4.247  37.655  26.824  1.00  0.00    -0.224 NA
HETATM    2  N   UNL     1      -3.453  38.189  24.613  1.00  0.00    -0.224 NA
HETATM    3  C   UNL     1      -5.485  37.518  26.306  1.00  0.00     0.133 A 
HETATM    4  C   UNL     1      -5.782  37.698  24.971  1.00  0.00     0.100 A 
HETATM    5  C   UNL     1      -4.718  38.038  24.155  1.00  0.00     0.133 A 
HETATM    6  C   UNL     1      -3.292  37.987  25.934  1.00  0.00     0.237 A 
ENDROOT
BRANCH   3   7
HETATM    7  N   UNL     1      -6.552  37.171  27.171  1.00  0.00    -0.341 N 
HETATM    8  H   UNL     1      -7.380  37.746  27.043  1.00  0.00     0.167 HD
BRANCH   7   9
HETATM    9  C   UNL     1      -6.686  36.185  28.162  1.00  0.00     0.035 A 
HETATM   10  C   UNL     1      -6.428  36.492  29.501  1.00  0.00     0.059 A 
HETATM   11  C   UNL     1      -6.563  35.512  30.484  1.00  0.00     0.036 A 
HETATM   12  C   UNL     1      -6.957  34.220  30.133  1.00  0.00     0.029 A 
HETATM   13  C   UNL     1      -7.216  33.909  28.798  1.00  0.00     0.004 A 
HETATM   14  C   UNL     1      -7.080  34.889  27.815  1.00  0.00     0.029 A 
BRANCH  11  15
HETATM   15  N   UNL     1      -6.305  35.823  31.820  1.00  0.00    -0.327 N 
HETATM   16  C   UNL     1      -7.158  36.434  32.742  1.00  0.00     0.226 C 
HETATM   17  O   UNL     1      -8.306  36.818  32.562  1.00  0.00    -0.273 OA
HETATM   18  H   UNL     1      -5.375  35.575  32.151  1.00  0.00     0.169 HD
BRANCH  16  19
HETATM   19  C   UNL     1      -6.551  36.617  34.098  1.00  0.00     0.078 A 
HETATM   20  C   UNL     1      -5.900  37.918  34.410  1.00  0.00     0.015 A 
HETATM   21  C   UNL     1      -5.068  36.687  34.203  1.00  0.00     0.015 A 
ENDBRANCH  16  19
ENDBRANCH  11  15
ENDBRANCH   7   9
ENDBRANCH   3   7
BRANCH   5  22
HETATM   22  N   UNL     1      -4.978  38.230  22.784  1.00  0.00    -0.341 N 
HETATM   23  H   UNL     1      -5.854  38.718  22.614  1.00  0.00     0.167 HD
BRANCH  22  24
HETATM   24  C   UNL     1      -4.462  37.623  21.620  1.00  0.00     0.034 A 
HETATM   25  C   UNL     1      -3.101  37.717  21.328  1.00  0.00     0.045 A 
HETATM   26  C   UNL     1      -2.592  37.116  20.178  1.00  0.00     0.050 A 
HETATM   27  C   UNL     1      -3.443  36.421  19.319  1.00  0.00     0.016 A 
HETATM   28  C   UNL     1      -4.804  36.327  19.610  1.00  0.00     0.003 A 
HETATM   29  C   UNL     1      -5.314  36.929  20.761  1.00  0.00     0.029 A 
BRANCH  26  30
HETATM   30  C   UNL     1      -1.137  37.215  19.865  1.00  0.00     0.417 C 
HETATM   31  F   UNL     1      -0.353  37.421  20.965  1.00  0.00    -0.166 F 
HETATM   32  F   UNL     1      -0.628  36.097  19.269  1.00  0.00    -0.166 F 
HETATM   33  F   UNL     1      -0.852  38.245  19.015  1.00  0.00    -0.166 F 
ENDBRANCH  26  30
ENDBRANCH  22  24
ENDBRANCH   5  22
TORSDOF 7
ENDMDL
MODEL 9
REMARK VINA RESULT:      -7.3      3.002      4.108
REMARK  7 active torsions:
REMARK  status: ('A' for Active; 'I' for Inactive)
REMARK       I    between atoms: N_5  and  C_13 
REMARK    1  A    between atoms: N_5  and  C_14 
REMARK    2  A    between atoms: N_6  and  C_17 
REMARK    3  A    between atoms: N_6  and  C_20 
REMARK    4  A    between atoms: N_7  and  C_21 
REMARK    5  A    between atoms: N_7  and  C_23 
REMARK    6  A    between atoms: C_10  and  C_13 
REMARK    7  A    between atoms: C_24  and  C_29 
ROOT
HETATM    1  N   UNL     1      -8.105  35.867  25.726  1.00  0.00    -0.224 NA
HETATM    2  N   UNL     1      -8.876  35.261  27.927  1.00  0.00    -0.224 NA
HETATM    3  C   UNL     1      -7.511  36.948  26.272  1.00  0.00     0.133 A 
HETATM    4  C   UNL     1      -7.553  37.248  27.618  1.00  0.00     0.100 A 
HETATM    5  C   UNL     1      -8.258  36.362  28.414  1.00  0.00     0.133 A 
HETATM    6  C   UNL     1      -8.762  35.078  26.598  1.00  0.00     0.237 A 
ENDROOT
BRANCH   3   7
HETATM    7  N   UNL     1      -6.798  37.834  25.428  1.00  0.00    -0.341 N 
HETATM    8  H   UNL     1      -7.369  38.592  25.062  1.00  0.00     0.167 HD
BRANCH   7   9
HETATM    9  C   UNL     1      -5.459  37.871  25.006  1.00  0.00     0.035 A 
HETATM   10  C   UNL     1      -5.139  37.681  23.659  1.00  0.00     0.059 A 
HETATM   11  C   UNL     1      -3.809  37.719  23.242  1.00  0.00     0.036 A 
HETATM   12  C   UNL     1      -2.792  37.947  24.170  1.00  0.00     0.029 A 
HETATM   13  C   UNL     1      -3.107  38.138  25.515  1.00  0.00     0.004 A 
HETATM   14  C   UNL     1      -4.437  38.099  25.933  1.00  0.00     0.029 A 
BRANCH  11  15
HETATM   15  N   UNL     1      -3.494  37.529  21.896  1.00  0.00    -0.327 N 
HETATM   16  C   UNL     1      -3.231  38.500  20.927  1.00  0.00     0.226 C 
HETATM   17  O   UNL     1      -3.223  39.716  21.067  1.00  0.00    -0.273 OA
HETATM   18  H   UNL     1      -3.461  36.558  21.591  1.00  0.00     0.169 HD
BRANCH  16  19
HETATM   19  C   UNL     1      -2.926  37.939  19.573  1.00  0.00     0.078 A 
HETATM   20  C   UNL     1      -4.063  37.502  18.719  1.00  0.00     0.015 A 
HETATM   21  C   UNL     1      -3.155  36.486  19.346  1.00  0.00     0.015 A 
ENDBRANCH  16  19
ENDBRANCH  11  15
ENDBRANCH   7   9
ENDBRANCH   3   7
BRANCH   5  22
HETATM   22  N   UNL     1      -8.325  36.632  29.794  1.00  0.00    -0.341 N 
HETATM   23  H   UNL     1      -8.589  37.594  29.996  1.00  0.00     0.167 HD
BRANCH  22  24
HETATM   24  C   UNL     1      -7.805  35.966  30.924  1.00  0.00     0.034 A 
HETATM   25  C   UNL     1      -7.006  36.657  31.835  1.00  0.00     0.045 A 
HETATM   26  C   UNL     1      -6.494  35.998  32.953  1.00  0.00     0.050 A 
HETATM   27  C   UNL     1      -6.779  34.649  33.158  1.00  0.00     0.016 A 
HETATM   28  C   UNL     1      -7.577  33.957  32.247  1.00  0.00     0.003 A 
HETATM   29  C   UNL     1      -8.090  34.617  31.129  1.00  0.00     0.029 A 
BRANCH  26  30
HETATM   30  C   UNL     1      -5.640  36.737  33.928  1.00  0.00     0.417 C 
HETATM   31  F   UNL     1      -5.690  36.228  35.194  1.00  0.00    -0.166 F 
HETATM   32  F   UNL     1      -4.315  36.743  33.598  1.00  0.00    -0.166 F 
HETATM   33  F   UNL     1      -5.994  38.050  34.047  1.00  0.00    -0.166 F 
ENDBRANCH  26  30
ENDBRANCH  22  24
ENDBRANCH   5  22
TORSDOF 7
ENDMDL
