REMARK  7 active torsions:
REMARK  status: ('A' for Active; 'I' for Inactive)
REMARK    1  A    between atoms: N3_2  and  C20_12 
REMARK    2  A    between atoms: C4_3  and  C5_4 
REMARK    3  A    between atoms: C13_9  and  N2_29 
REMARK    4  A    between atoms: C17_11  and  C19_33 
REMARK    5  A    between atoms: C20_12  and  C16_31 
REMARK    6  A    between atoms: C2_23  and  C3_24 
REMARK    7  A    between atoms: C9_25  and  C12_27 
REMARK       I    between atoms: C12_27  and  N2_29 
ROOT
HETATM    1  C12   D T2601     283.451 249.153 230.567  1.00 46.76     0.279 C 
HETATM    2  O1    D T2601     284.075 248.157 230.931  1.00 51.78    -0.265 OA
HETATM    3  N2    D T2601     282.388 249.109 229.749  1.00 44.45    -0.208 NA
ENDROOT
BRANCH   1   4
HETATM    4  C9    D T2601     283.886 250.486 231.073  1.00 45.99     0.059 A 
HETATM    5  C8    D T2601     283.641 251.724 230.382  1.00 46.02     0.004 A 
HETATM    6  C7    D T2601     284.085 252.953 230.946  1.00 47.49    -0.004 A 
HETATM    7  C6    D T2601     284.785 252.954 232.197  1.00 43.57    -0.014 A 
HETATM    8  C5    D T2601     285.025 251.701 232.877  1.00 47.11     0.038 A 
HETATM    9  C11   D T2601     285.260 254.272 232.794  1.00 43.74     0.032 C 
HETATM   10  C10   D T2601     284.572 250.500 232.306  1.00 47.17     0.013 A 
BRANCH   8  11
HETATM   11  C4    D T2601     285.727 251.638 234.146  1.00 52.56    -0.058 C 
HETATM   12  C3    D T2601     286.224 251.604 235.251  1.00 49.20    -0.039 C 
BRANCH  12  13
HETATM   13  C2    D T2601     286.892 251.618 236.473  1.00 38.17     0.145 A 
HETATM   14  N82   D T2601     288.224 251.491 236.672  1.00 38.45    -0.203 N 
HETATM   15  N81   D T2601     289.177 251.314 235.712  1.00 47.45    -0.162 NA
HETATM   16  C84   D T2601     288.393 251.575 238.063  1.00 43.62     0.165 A 
HETATM   17  C83   D T2601     290.399 251.218 236.228  1.00 47.13     0.121 A 
HETATM   18  C82   D T2601     290.734 251.282 237.604  1.00 45.79     0.026 A 
HETATM   19  C81   D T2601     289.730 251.463 238.528  1.00 45.43     0.041 A 
HETATM   20  N1    D T2601     287.242 251.740 238.664  1.00 46.40    -0.223 NA
HETATM   21  C1    D T2601     286.300 251.768 237.667  1.00 39.18     0.128 A 
ENDBRANCH  12  13
ENDBRANCH   8  11
ENDBRANCH   1   4
BRANCH   3  22
HETATM   22  C13   D T2601     281.828 247.942 229.175  1.00 46.23     0.085 A 
HETATM   23  C14   D T2601     281.568 247.927 227.787  1.00 47.02     0.019 A 
HETATM   24  C15   D T2601     281.008 246.764 227.171  1.00 48.51    -0.001 A 
HETATM   25  C16   D T2601     280.694 245.580 227.937  1.00 46.86     0.015 A 
HETATM   26  C17   D T2601     280.960 245.602 229.373  1.00 48.59     0.071 A 
HETATM   27  C18   D T2601     281.515 246.775 229.944  1.00 47.76     0.023 A 
BRANCH  25  28
HETATM   28  C20   D T2601     280.094 244.373 227.182  1.00 47.69     0.277 C 
BRANCH  28  29
HETATM   29  N3    D T2601     280.869 243.961 226.009  1.00 53.58     0.146 N 
HETATM   30  C21   D T2601     281.977 243.038 226.365  1.00 51.34     0.286 C 
HETATM   31  C22   D T2601     282.881 242.801 225.139  1.00 47.99     0.286 C 
HETATM   32  N4    D T2601     282.104 242.159 224.066  1.00 50.46     0.143 N 
HETATM   33  C23   D T2601     280.897 242.966 223.719  1.00 49.01     0.286 C 
HETATM   34  C25   D T2601     282.944 241.879 222.914  1.00 50.12     0.285 C 
HETATM   35  C24   D T2601     280.042 243.311 224.977  1.00 52.37     0.286 C 
ENDBRANCH  28  29
ENDBRANCH  25  28
BRANCH  26  36
HETATM   36  C19   D T2601     280.701 244.443 230.339  1.00 53.84     0.419 C 
HETATM   37  F1    D T2601     279.447 244.071 230.271  1.00 57.02    -0.166 F 
HETATM   38  F2    D T2601     281.445 243.382 230.067  1.00 55.32    -0.166 F 
HETATM   39  F3    D T2601     280.987 244.814 231.583  1.00 54.82    -0.166 F 
ENDBRANCH  26  36
ENDBRANCH   3  22
TORSDOF 7
