MODEL 1
REMARK VINA RESULT:      -9.5      0.000      0.000
REMARK  2 active torsions:
REMARK  status: ('A' for Active; 'I' for Inactive)
REMARK    1  A    between atoms: CBF_31  and  CBG_32 
REMARK    2  A    between atoms: CBG_32  and  NBH_33 
ROOT
HETATM    1  CBD   D T1374      -6.753   1.697  -6.828  1.00 18.24     0.056 C 
HETATM    2  CBB   D T1374      -7.095   1.313  -5.409  1.00 13.77     0.109 C 
HETATM    3  NAW   D T1374      -6.155   1.694  -4.342  1.00 11.00    -0.326 N 
HETATM    4  CAV   D T1374      -4.791   1.478  -4.389  1.00  9.70     0.076 A 
HETATM    5  CAX   D T1374      -6.447   2.054  -3.109  1.00 10.89     0.060 A 
HETATM    6  CAY   D T1374      -7.689   2.318  -2.499  1.00 13.31     0.017 A 
HETATM    7  CAZ   D T1374      -7.716   2.718  -1.145  1.00 12.88     0.002 A 
HETATM    8  CAP   D T1374      -6.552   2.884  -0.389  1.00 12.85     0.000 A 
HETATM    9  CAO   D T1374      -5.303   2.601  -0.996  1.00 12.21     0.002 A 
HETATM   10  CAN   D T1374      -5.264   2.173  -2.365  1.00 11.16     0.017 A 
HETATM   11  CAM   D T1374      -4.207   1.854  -3.218  1.00 10.47     0.023 A 
HETATM   12  CAH   D T1374      -2.798   1.649  -2.977  1.00 11.61     0.064 A 
HETATM   13  CAE   D T1374      -2.273   1.003  -1.810  1.00 11.67     0.282 A 
HETATM   14  OAF   D T1374      -2.906   0.622  -0.803  1.00 12.38    -0.265 OA
HETATM   15  NAD   D T1374      -0.924   0.840  -1.909  1.00 11.58    -0.169 NA
HETATM   16  CAC   D T1374      -0.561   1.315  -3.083  1.00 11.36     0.282 A 
HETATM   17  OAB   D T1374       0.608   1.250  -3.494  1.00 13.28    -0.265 OA
HETATM   18  CAG   D T1374      -1.654   1.865  -3.814  1.00 10.54     0.064 A 
HETATM   19  CAL   D T1374      -1.676   2.419  -5.136  1.00 12.92     0.023 A 
HETATM   20  CAU   D T1374      -2.602   3.336  -5.527  1.00 12.44     0.076 A 
HETATM   21  CAK   D T1374      -0.905   2.138  -6.291  1.00 12.61     0.017 A 
HETATM   22  CAJ   D T1374       0.205   1.275  -6.556  1.00 13.95     0.002 A 
HETATM   23  CAI   D T1374       0.715   1.238  -7.859  1.00 15.63     0.000 A 
HETATM   24  CAQ   D T1374       0.171   2.014  -8.896  1.00 14.37     0.002 A 
HETATM   25  CAR   D T1374      -0.918   2.848  -8.637  1.00 13.26     0.017 A 
HETATM   26  CAS   D T1374      -1.447   2.898  -7.331  1.00 11.92     0.060 A 
HETATM   27  NAT   D T1374      -2.461   3.613  -6.840  1.00 12.89    -0.324 N 
HETATM   28  CBA   D T1374      -3.386   4.542  -7.547  1.00 13.69     0.138 C 
HETATM   29  CBC   D T1374      -4.586   3.689  -7.987  1.00 16.12     0.167 C 
HETATM   30  OBE   D T1374      -5.464   3.728  -6.835  1.00 16.41    -0.352 OA
HETATM   31  CBF   D T1374      -6.787   3.212  -7.040  1.00 19.48     0.151 C 
ENDROOT
BRANCH  31  32
HETATM   32  CBG   D T1374      -7.588   3.976  -5.959  1.00 23.41     0.280 C 
BRANCH  32  33
HETATM   33  NBH   D T1374      -8.827   4.639  -6.488  1.00 26.24     0.144 N 
HETATM   34  CBI   D T1374      -8.555   5.191  -7.827  1.00 27.90     0.286 C 
HETATM   35  CBJ   D T1374      -9.913   3.652  -6.727  1.00 27.31     0.286 C 
ENDBRANCH  32  33
ENDBRANCH  31  32
TORSDOF 2
ENDMDL
MODEL 2
REMARK VINA RESULT:      -9.4      3.923      7.477
REMARK  2 active torsions:
REMARK  status: ('A' for Active; 'I' for Inactive)
REMARK    1  A    between atoms: CBF_31  and  CBG_32 
REMARK    2  A    between atoms: CBG_32  and  NBH_33 
ROOT
HETATM    1  CBD   D T1374     -10.842   3.774  -5.346  1.00 18.24     0.056 C 
HETATM    2  CBB   D T1374      -9.550   3.145  -4.885  1.00 13.77     0.109 C 
HETATM    3  NAW   D T1374      -8.285   3.778  -5.296  1.00 11.00    -0.326 N 
HETATM    4  CAV   D T1374      -7.987   4.156  -6.590  1.00  9.70     0.076 A 
HETATM    5  CAX   D T1374      -7.169   3.860  -4.602  1.00 10.89     0.060 A 
HETATM    6  CAY   D T1374      -6.893   3.520  -3.263  1.00 13.31     0.017 A 
HETATM    7  CAZ   D T1374      -5.593   3.738  -2.755  1.00 12.88     0.002 A 
HETATM    8  CAP   D T1374      -4.572   4.300  -3.526  1.00 12.85     0.000 A 
HETATM    9  CAO   D T1374      -4.843   4.625  -4.878  1.00 12.21     0.002 A 
HETATM   10  CAN   D T1374      -6.154   4.389  -5.412  1.00 11.16     0.017 A 
HETATM   11  CAM   D T1374      -6.711   4.625  -6.669  1.00 10.47     0.023 A 
HETATM   12  CAH   D T1374      -6.123   5.005  -7.932  1.00 11.61     0.064 A 
HETATM   13  CAE   D T1374      -4.854   4.527  -8.398  1.00 11.67     0.282 A 
HETATM   14  OAF   D T1374      -4.034   3.820  -7.776  1.00 12.38    -0.265 OA
HETATM   15  NAD   D T1374      -4.610   4.953  -9.669  1.00 11.58    -0.169 NA
HETATM   16  CAC   D T1374      -5.661   5.648 -10.053  1.00 11.36     0.282 A 
HETATM   17  OAB   D T1374      -5.765   6.118 -11.197  1.00 13.28    -0.265 OA
HETATM   18  CAG   D T1374      -6.648   5.760  -9.031  1.00 10.54     0.064 A 
HETATM   19  CAL   D T1374      -7.940   6.381  -9.080  1.00 12.92     0.023 A 
HETATM   20  CAU   D T1374      -8.560   6.860  -7.968  1.00 12.44     0.076 A 
HETATM   21  CAK   D T1374      -8.862   6.562 -10.141  1.00 12.61     0.017 A 
HETATM   22  CAJ   D T1374      -8.831   6.271 -11.541  1.00 13.95     0.002 A 
HETATM   23  CAI   D T1374      -9.964   6.579 -12.303  1.00 15.63     0.000 A 
HETATM   24  CAQ   D T1374     -11.113   7.154 -11.735  1.00 14.37     0.002 A 
HETATM   25  CAR   D T1374     -11.144   7.428 -10.367  1.00 13.26     0.017 A 
HETATM   26  CAS   D T1374     -10.013   7.124  -9.581  1.00 11.92     0.060 A 
HETATM   27  NAT   D T1374      -9.799   7.298  -8.276  1.00 12.89    -0.324 N 
HETATM   28  CBA   D T1374     -10.726   7.820  -7.233  1.00 13.69     0.138 C 
HETATM   29  CBC   D T1374     -11.443   6.591  -6.653  1.00 16.12     0.167 C 
HETATM   30  OBE   D T1374     -10.548   6.148  -5.603  1.00 16.41    -0.352 OA
HETATM   31  CBF   D T1374     -11.073   5.148  -4.716  1.00 19.48     0.151 C 
ENDROOT
BRANCH  31  32
HETATM   32  CBG   D T1374     -10.235   5.398  -3.439  1.00 23.41     0.280 C 
BRANCH  32  33
HETATM   33  NBH   D T1374      -9.796   6.825  -3.281  1.00 26.24     0.144 N 
HETATM   34  CBI   D T1374     -10.435   7.408  -2.089  1.00 27.90     0.286 C 
HETATM   35  CBJ   D T1374      -8.342   6.917  -2.981  1.00 27.31     0.286 C 
ENDBRANCH  32  33
ENDBRANCH  31  32
TORSDOF 2
ENDMDL
MODEL 3
REMARK VINA RESULT:      -9.3      3.808      8.301
REMARK  2 active torsions:
REMARK  status: ('A' for Active; 'I' for Inactive)
REMARK    1  A    between atoms: CBF_31  and  CBG_32 
REMARK    2  A    between atoms: CBG_32  and  NBH_33 
ROOT
HETATM    1  CBD   D T1374      -5.810   7.694  -5.737  1.00 18.24     0.056 C 
HETATM    2  CBB   D T1374      -6.941   7.412  -4.778  1.00 13.77     0.109 C 
HETATM    3  NAW   D T1374      -8.027   6.525  -5.229  1.00 11.00    -0.326 N 
HETATM    4  CAV   D T1374      -8.684   6.649  -6.438  1.00  9.70     0.076 A 
HETATM    5  CAX   D T1374      -8.710   5.663  -4.504  1.00 10.89     0.060 A 
HETATM    6  CAY   D T1374      -8.526   5.233  -3.175  1.00 13.31     0.017 A 
HETATM    7  CAZ   D T1374      -9.404   4.262  -2.643  1.00 12.88     0.002 A 
HETATM    8  CAP   D T1374     -10.437   3.694  -3.392  1.00 12.85     0.000 A 
HETATM    9  CAO   D T1374     -10.634   4.139  -4.723  1.00 12.21     0.002 A 
HETATM   10  CAN   D T1374      -9.762   5.140  -5.269  1.00 11.16     0.017 A 
HETATM   11  CAM   D T1374      -9.697   5.743  -6.525  1.00 10.47     0.023 A 
HETATM   12  CAH   D T1374     -10.596   5.722  -7.656  1.00 11.61     0.064 A 
HETATM   13  CAE   D T1374     -12.025   5.729  -7.540  1.00 11.67     0.282 A 
HETATM   14  OAF   D T1374     -12.703   5.650  -6.494  1.00 12.38    -0.265 OA
HETATM   15  NAD   D T1374     -12.612   5.830  -8.765  1.00 11.58    -0.169 NA
HETATM   16  CAC   D T1374     -11.643   5.919  -9.654  1.00 11.36     0.282 A 
HETATM   17  OAB   D T1374     -11.863   6.087 -10.863  1.00 13.28    -0.265 OA
HETATM   18  CAG   D T1374     -10.348   5.836  -9.063  1.00 10.54     0.064 A 
HETATM   19  CAL   D T1374      -9.060   5.948  -9.681  1.00 12.92     0.023 A 
HETATM   20  CAU   D T1374      -7.945   5.373  -9.152  1.00 12.44     0.076 A 
HETATM   21  CAK   D T1374      -8.614   6.673 -10.814  1.00 12.61     0.017 A 
HETATM   22  CAJ   D T1374      -9.271   7.488 -11.790  1.00 13.95     0.002 A 
HETATM   23  CAI   D T1374      -8.488   8.080 -12.788  1.00 15.63     0.000 A 
HETATM   24  CAQ   D T1374      -7.097   7.900 -12.852  1.00 14.37     0.002 A 
HETATM   25  CAR   D T1374      -6.457   7.113 -11.892  1.00 13.26     0.017 A 
HETATM   26  CAS   D T1374      -7.228   6.508 -10.878  1.00 11.92     0.060 A 
HETATM   27  NAT   D T1374      -6.856   5.716  -9.870  1.00 12.89    -0.324 N 
HETATM   28  CBA   D T1374      -5.489   5.275  -9.477  1.00 13.69     0.138 C 
HETATM   29  CBC   D T1374      -4.987   6.312  -8.460  1.00 16.12     0.167 C 
HETATM   30  OBE   D T1374      -5.488   5.809  -7.197  1.00 16.41    -0.352 OA
HETATM   31  CBF   D T1374      -4.969   6.449  -6.021  1.00 19.48     0.151 C 
ENDROOT
BRANCH  31  32
HETATM   32  CBG   D T1374      -5.132   5.330  -4.964  1.00 23.41     0.280 C 
BRANCH  32  33
HETATM   33  NBH   D T1374      -5.097   3.947  -5.545  1.00 26.24     0.144 N 
HETATM   34  CBI   D T1374      -3.791   3.328  -5.263  1.00 27.90     0.286 C 
HETATM   35  CBJ   D T1374      -6.068   3.047  -4.868  1.00 27.31     0.286 C 
ENDBRANCH  32  33
ENDBRANCH  31  32
TORSDOF 2
ENDMDL
MODEL 4
REMARK VINA RESULT:      -9.0      2.372      7.151
REMARK  2 active torsions:
REMARK  status: ('A' for Active; 'I' for Inactive)
REMARK    1  A    between atoms: CBF_31  and  CBG_32 
REMARK    2  A    between atoms: CBG_32  and  NBH_33 
ROOT
HETATM    1  CBD   D T1374      -6.026  -0.190  -3.090  1.00 18.24     0.056 C 
HETATM    2  CBB   D T1374      -4.624  -0.258  -3.643  1.00 13.77     0.109 C 
HETATM    3  NAW   D T1374      -4.081   0.939  -4.308  1.00 11.00    -0.326 N 
HETATM    4  CAV   D T1374      -4.749   1.664  -5.276  1.00  9.70     0.076 A 
HETATM    5  CAX   D T1374      -2.836   1.367  -4.294  1.00 10.89     0.060 A 
HETATM    6  CAY   D T1374      -1.720   0.922  -3.558  1.00 13.31     0.017 A 
HETATM    7  CAZ   D T1374      -0.484   1.588  -3.719  1.00 12.88     0.002 A 
HETATM    8  CAP   D T1374      -0.330   2.687  -4.567  1.00 12.85     0.000 A 
HETATM    9  CAO   D T1374      -1.447   3.124  -5.321  1.00 12.21     0.002 A 
HETATM   10  CAN   D T1374      -2.703   2.444  -5.183  1.00 11.16     0.017 A 
HETATM   11  CAM   D T1374      -3.953   2.656  -5.763  1.00 10.47     0.023 A 
HETATM   12  CAH   D T1374      -4.384   3.504  -6.849  1.00 11.61     0.064 A 
HETATM   13  CAE   D T1374      -3.609   3.745  -8.031  1.00 11.67     0.282 A 
HETATM   14  OAF   D T1374      -2.441   3.367  -8.263  1.00 12.38    -0.265 OA
HETATM   15  NAD   D T1374      -4.313   4.482  -8.934  1.00 11.58    -0.169 NA
HETATM   16  CAC   D T1374      -5.504   4.700  -8.413  1.00 11.36     0.282 A 
HETATM   17  OAB   D T1374      -6.401   5.294  -9.030  1.00 13.28    -0.265 OA
HETATM   18  CAG   D T1374      -5.638   4.152  -7.104  1.00 10.54     0.064 A 
HETATM   19  CAL   D T1374      -6.782   4.129  -6.242  1.00 12.92     0.023 A 
HETATM   20  CAU   D T1374      -6.674   4.048  -4.888  1.00 12.44     0.076 A 
HETATM   21  CAK   D T1374      -8.172   4.092  -6.516  1.00 12.61     0.017 A 
HETATM   22  CAJ   D T1374      -8.946   4.135  -7.719  1.00 13.95     0.002 A 
HETATM   23  CAI   D T1374     -10.339   4.054  -7.609  1.00 15.63     0.000 A 
HETATM   24  CAQ   D T1374     -10.985   3.931  -6.369  1.00 14.37     0.002 A 
HETATM   25  CAR   D T1374     -10.227   3.879  -5.197  1.00 13.26     0.017 A 
HETATM   26  CAS   D T1374      -8.822   3.958  -5.286  1.00 11.92     0.060 A 
HETATM   27  NAT   D T1374      -7.896   3.941  -4.326  1.00 12.89    -0.324 N 
HETATM   28  CBA   D T1374      -8.069   3.774  -2.855  1.00 13.69     0.138 C 
HETATM   29  CBC   D T1374      -7.955   2.266  -2.586  1.00 16.12     0.167 C 
HETATM   30  OBE   D T1374      -6.530   2.064  -2.418  1.00 16.41    -0.352 OA
HETATM   31  CBF   D T1374      -6.136   0.780  -1.913  1.00 19.48     0.151 C 
ENDROOT
BRANCH  31  32
HETATM   32  CBG   D T1374      -4.779   1.112  -1.248  1.00 23.41     0.280 C 
BRANCH  32  33
HETATM   33  NBH   D T1374      -4.469   0.253  -0.056  1.00 26.24     0.144 N 
HETATM   34  CBI   D T1374      -5.526  -0.760   0.107  1.00 27.90     0.286 C 
HETATM   35  CBJ   D T1374      -3.238  -0.553  -0.271  1.00 27.31     0.286 C 
ENDBRANCH  32  33
ENDBRANCH  31  32
TORSDOF 2
ENDMDL
MODEL 5
REMARK VINA RESULT:      -8.9      2.583      5.952
REMARK  2 active torsions:
REMARK  status: ('A' for Active; 'I' for Inactive)
REMARK    1  A    between atoms: CBF_31  and  CBG_32 
REMARK    2  A    between atoms: CBG_32  and  NBH_33 
ROOT
HETATM    1  CBD   D T1374      -6.833   5.803  -2.931  1.00 18.24     0.056 C 
HETATM    2  CBB   D T1374      -7.322   6.695  -4.046  1.00 13.77     0.109 C 
HETATM    3  NAW   D T1374      -7.302   6.162  -5.419  1.00 11.00    -0.326 N 
HETATM    4  CAV   D T1374      -6.216   5.532  -5.995  1.00  9.70     0.076 A 
HETATM    5  CAX   D T1374      -8.167   6.401  -6.383  1.00 10.89     0.060 A 
HETATM    6  CAY   D T1374      -9.399   7.084  -6.362  1.00 13.31     0.017 A 
HETATM    7  CAZ   D T1374     -10.152   7.173  -7.554  1.00 12.88     0.002 A 
HETATM    8  CAP   D T1374      -9.731   6.590  -8.752  1.00 12.85     0.000 A 
HETATM    9  CAO   D T1374      -8.484   5.919  -8.778  1.00 12.21     0.002 A 
HETATM   10  CAN   D T1374      -7.699   5.839  -7.579  1.00 11.16     0.017 A 
HETATM   11  CAM   D T1374      -6.473   5.237  -7.300  1.00 10.47     0.023 A 
HETATM   12  CAH   D T1374      -5.465   4.652  -8.154  1.00 11.61     0.064 A 
HETATM   13  CAE   D T1374      -5.106   5.176  -9.439  1.00 11.67     0.282 A 
HETATM   14  OAF   D T1374      -5.651   6.116 -10.056  1.00 12.38    -0.265 OA
HETATM   15  NAD   D T1374      -4.047   4.498  -9.962  1.00 11.58    -0.169 NA
HETATM   16  CAC   D T1374      -3.688   3.593  -9.074  1.00 11.36     0.282 A 
HETATM   17  OAB   D T1374      -2.704   2.856  -9.236  1.00 13.28    -0.265 OA
HETATM   18  CAG   D T1374      -4.527   3.593  -7.922  1.00 10.54     0.064 A 
HETATM   19  CAL   D T1374      -4.429   2.808  -6.727  1.00 12.92     0.023 A 
HETATM   20  CAU   D T1374      -5.510   2.525  -5.949  1.00 12.44     0.076 A 
HETATM   21  CAK   D T1374      -3.315   2.255  -6.047  1.00 12.61     0.017 A 
HETATM   22  CAJ   D T1374      -1.912   2.206  -6.322  1.00 13.95     0.002 A 
HETATM   23  CAI   D T1374      -1.080   1.574  -5.391  1.00 15.63     0.000 A 
HETATM   24  CAQ   D T1374      -1.580   0.999  -4.212  1.00 14.37     0.002 A 
HETATM   25  CAR   D T1374      -2.949   1.056  -3.941  1.00 13.26     0.017 A 
HETATM   26  CAS   D T1374      -3.804   1.690  -4.866  1.00 11.92     0.060 A 
HETATM   27  NAT   D T1374      -5.127   1.862  -4.838  1.00 12.89    -0.324 N 
HETATM   28  CBA   D T1374      -6.102   1.480  -3.779  1.00 13.69     0.138 C 
HETATM   29  CBC   D T1374      -6.219   2.701  -2.854  1.00 16.12     0.167 C 
HETATM   30  OBE   D T1374      -7.251   3.500  -3.485  1.00 16.41    -0.352 OA
HETATM   31  CBF   D T1374      -7.750   4.600  -2.709  1.00 19.48     0.151 C 
ENDROOT
BRANCH  31  32
HETATM   32  CBG   D T1374      -9.168   4.778  -3.304  1.00 23.41     0.280 C 
BRANCH  32  33
HETATM   33  NBH   D T1374      -9.698   3.541  -3.969  1.00 26.24     0.144 N 
HETATM   34  CBI   D T1374     -10.512   2.775  -3.010  1.00 27.90     0.286 C 
HETATM   35  CBJ   D T1374     -10.656   3.875  -5.056  1.00 27.31     0.286 C 
ENDBRANCH  32  33
ENDBRANCH  31  32
TORSDOF 2
ENDMDL
MODEL 6
REMARK VINA RESULT:      -8.8      2.131      5.720
REMARK  2 active torsions:
REMARK  status: ('A' for Active; 'I' for Inactive)
REMARK    1  A    between atoms: CBF_31  and  CBG_32 
REMARK    2  A    between atoms: CBG_32  and  NBH_33 
ROOT
HETATM    1  CBD   D T1374      -7.460   5.985  -3.653  1.00 18.24     0.056 C 
HETATM    2  CBB   D T1374      -6.735   6.480  -4.880  1.00 13.77     0.109 C 
HETATM    3  NAW   D T1374      -5.989   5.499  -5.687  1.00 11.00    -0.326 N 
HETATM    4  CAV   D T1374      -5.103   4.576  -5.169  1.00  9.70     0.076 A 
HETATM    5  CAX   D T1374      -5.838   5.490  -6.995  1.00 10.89     0.060 A 
HETATM    6  CAY   D T1374      -6.433   6.284  -7.995  1.00 13.31     0.017 A 
HETATM    7  CAZ   D T1374      -6.107   6.041  -9.348  1.00 12.88     0.002 A 
HETATM    8  CAP   D T1374      -5.229   5.026  -9.736  1.00 12.85     0.000 A 
HETATM    9  CAO   D T1374      -4.616   4.237  -8.731  1.00 12.21     0.002 A 
HETATM   10  CAN   D T1374      -4.923   4.488  -7.351  1.00 11.16     0.017 A 
HETATM   11  CAM   D T1374      -4.504   3.874  -6.171  1.00 10.47     0.023 A 
HETATM   12  CAH   D T1374      -3.468   2.905  -5.900  1.00 11.61     0.064 A 
HETATM   13  CAE   D T1374      -2.194   2.892  -6.558  1.00 11.67     0.282 A 
HETATM   14  OAF   D T1374      -1.822   3.615  -7.506  1.00 12.38    -0.265 OA
HETATM   15  NAD   D T1374      -1.376   1.946  -6.017  1.00 11.58    -0.169 NA
HETATM   16  CAC   D T1374      -2.041   1.376  -5.033  1.00 11.36     0.282 A 
HETATM   17  OAB   D T1374      -1.534   0.512  -4.301  1.00 13.28    -0.265 OA
HETATM   18  CAG   D T1374      -3.365   1.887  -4.896  1.00 10.54     0.064 A 
HETATM   19  CAL   D T1374      -4.365   1.568  -3.921  1.00 12.92     0.023 A 
HETATM   20  CAU   D T1374      -5.696   1.715  -4.166  1.00 12.44     0.076 A 
HETATM   21  CAK   D T1374      -4.270   1.155  -2.568  1.00 12.61     0.017 A 
HETATM   22  CAJ   D T1374      -3.175   0.837  -1.704  1.00 13.95     0.002 A 
HETATM   23  CAI   D T1374      -3.461   0.475  -0.383  1.00 15.63     0.000 A 
HETATM   24  CAQ   D T1374      -4.776   0.420   0.108  1.00 14.37     0.002 A 
HETATM   25  CAR   D T1374      -5.843   0.739  -0.735  1.00 13.26     0.017 A 
HETATM   26  CAS   D T1374      -5.574   1.108  -2.069  1.00 11.92     0.060 A 
HETATM   27  NAT   D T1374      -6.410   1.443  -3.054  1.00 12.89    -0.324 N 
HETATM   28  CBA   D T1374      -7.892   1.585  -3.022  1.00 13.69     0.138 C 
HETATM   29  CBC   D T1374      -8.168   3.058  -2.684  1.00 16.12     0.167 C 
HETATM   30  OBE   D T1374      -8.157   3.705  -3.980  1.00 16.41    -0.352 OA
HETATM   31  CBF   D T1374      -8.628   5.061  -4.005  1.00 19.48     0.151 C 
ENDROOT
BRANCH  31  32
HETATM   32  CBG   D T1374      -9.110   5.194  -5.470  1.00 23.41     0.280 C 
BRANCH  32  33
HETATM   33  NBH   D T1374      -9.647   3.915  -6.041  1.00 26.24     0.144 N 
HETATM   34  CBI   D T1374     -11.116   3.904  -5.927  1.00 27.90     0.286 C 
HETATM   35  CBJ   D T1374      -9.407   3.830  -7.506  1.00 27.31     0.286 C 
ENDBRANCH  32  33
ENDBRANCH  31  32
TORSDOF 2
ENDMDL
MODEL 7
REMARK VINA RESULT:      -8.6      2.811      7.660
REMARK  2 active torsions:
REMARK  status: ('A' for Active; 'I' for Inactive)
REMARK    1  A    between atoms: CBF_31  and  CBG_32 
REMARK    2  A    between atoms: CBG_32  and  NBH_33 
ROOT
HETATM    1  CBD   D T1374      -8.116   1.604  -4.434  1.00 18.24     0.056 C 
HETATM    2  CBB   D T1374      -6.773   1.166  -4.965  1.00 13.77     0.109 C 
HETATM    3  NAW   D T1374      -5.942   2.166  -5.658  1.00 11.00    -0.326 N 
HETATM    4  CAV   D T1374      -6.399   3.003  -6.657  1.00  9.70     0.076 A 
HETATM    5  CAX   D T1374      -4.629   2.265  -5.640  1.00 10.89     0.060 A 
HETATM    6  CAY   D T1374      -3.665   1.578  -4.875  1.00 13.31     0.017 A 
HETATM    7  CAZ   D T1374      -2.301   1.905  -5.039  1.00 12.88     0.002 A 
HETATM    8  CAP   D T1374      -1.869   2.901  -5.918  1.00 12.85     0.000 A 
HETATM    9  CAO   D T1374      -2.835   3.581  -6.701  1.00 12.21     0.002 A 
HETATM   10  CAN   D T1374      -4.223   3.244  -6.559  1.00 11.16     0.017 A 
HETATM   11  CAM   D T1374      -5.376   3.746  -7.162  1.00 10.47     0.023 A 
HETATM   12  CAH   D T1374      -5.572   4.640  -8.280  1.00 11.61     0.064 A 
HETATM   13  CAE   D T1374      -4.754   4.639  -9.457  1.00 11.67     0.282 A 
HETATM   14  OAF   D T1374      -3.719   3.971  -9.661  1.00 12.38    -0.265 OA
HETATM   15  NAD   D T1374      -5.245   5.500 -10.392  1.00 11.58    -0.169 NA
HETATM   16  CAC   D T1374      -6.344   6.028  -9.894  1.00 11.36     0.282 A 
HETATM   17  OAB   D T1374      -7.059   6.809 -10.540  1.00 13.28    -0.265 OA
HETATM   18  CAG   D T1374      -6.620   5.574  -8.571  1.00 10.54     0.064 A 
HETATM   19  CAL   D T1374      -7.738   5.870  -7.724  1.00 12.92     0.023 A 
HETATM   20  CAU   D T1374      -7.662   5.807  -6.367  1.00 12.44     0.076 A 
HETATM   21  CAK   D T1374      -9.091   6.175  -8.017  1.00 12.61     0.017 A 
HETATM   22  CAJ   D T1374      -9.822   6.373  -9.231  1.00 13.95     0.002 A 
HETATM   23  CAI   D T1374     -11.191   6.650  -9.138  1.00 15.63     0.000 A 
HETATM   24  CAQ   D T1374     -11.854   6.734  -7.903  1.00 14.37     0.002 A 
HETATM   25  CAR   D T1374     -11.140   6.531  -6.720  1.00 13.26     0.017 A 
HETATM   26  CAS   D T1374      -9.761   6.249  -6.792  1.00 11.92     0.060 A 
HETATM   27  NAT   D T1374      -8.874   6.031  -5.819  1.00 12.89    -0.324 N 
HETATM   28  CBA   D T1374      -9.092   5.961  -4.347  1.00 13.69     0.138 C 
HETATM   29  CBC   D T1374      -9.365   4.482  -4.031  1.00 16.12     0.167 C 
HETATM   30  OBE   D T1374      -8.038   3.933  -3.837  1.00 16.41    -0.352 OA
HETATM   31  CBF   D T1374      -7.984   2.608  -3.288  1.00 19.48     0.151 C 
ENDROOT
BRANCH  31  32
HETATM   32  CBG   D T1374      -6.590   2.609  -2.615  1.00 23.41     0.280 C 
BRANCH  32  33
HETATM   33  NBH   D T1374      -6.549   1.845  -1.323  1.00 26.24     0.144 N 
HETATM   34  CBI   D T1374      -5.654   0.684  -1.466  1.00 27.90     0.286 C 
HETATM   35  CBJ   D T1374      -5.920   2.643  -0.238  1.00 27.31     0.286 C 
ENDBRANCH  32  33
ENDBRANCH  31  32
TORSDOF 2
ENDMDL
MODEL 8
REMARK VINA RESULT:      -8.5      5.202      8.257
REMARK  2 active torsions:
REMARK  status: ('A' for Active; 'I' for Inactive)
REMARK    1  A    between atoms: CBF_31  and  CBG_32 
REMARK    2  A    between atoms: CBG_32  and  NBH_33 
ROOT
HETATM    1  CBD   D T1374      -6.356   9.107  -5.199  1.00 18.24     0.056 C 
HETATM    2  CBB   D T1374      -7.688   9.035  -4.493  1.00 13.77     0.109 C 
HETATM    3  NAW   D T1374      -8.588   7.917  -4.823  1.00 11.00    -0.326 N 
HETATM    4  CAV   D T1374      -8.910   7.527  -6.108  1.00  9.70     0.076 A 
HETATM    5  CAX   D T1374      -9.407   7.282  -4.009  1.00 10.89     0.060 A 
HETATM    6  CAY   D T1374      -9.563   7.369  -2.612  1.00 13.31     0.017 A 
HETATM    7  CAZ   D T1374     -10.516   6.541  -1.977  1.00 12.88     0.002 A 
HETATM    8  CAP   D T1374     -11.298   5.622  -2.681  1.00 12.85     0.000 A 
HETATM    9  CAO   D T1374     -11.154   5.546  -4.089  1.00 12.21     0.002 A 
HETATM   10  CAN   D T1374     -10.205   6.397  -4.749  1.00 11.16     0.017 A 
HETATM   11  CAM   D T1374      -9.834   6.527  -6.087  1.00 10.47     0.023 A 
HETATM   12  CAH   D T1374     -10.404   6.000  -7.305  1.00 11.61     0.064 A 
HETATM   13  CAE   D T1374     -11.813   5.865  -7.533  1.00 11.67     0.282 A 
HETATM   14  OAF   D T1374     -12.738   6.070  -6.719  1.00 12.38    -0.265 OA
HETATM   15  NAD   D T1374     -12.062   5.457  -8.809  1.00 11.58    -0.169 NA
HETATM   16  CAC   D T1374     -10.898   5.354  -9.418  1.00 11.36     0.282 A 
HETATM   17  OAB   D T1374     -10.799   5.061 -10.619  1.00 13.28    -0.265 OA
HETATM   18  CAG   D T1374      -9.801   5.647  -8.556  1.00 10.54     0.064 A 
HETATM   19  CAL   D T1374      -8.400   5.699  -8.855  1.00 12.92     0.023 A 
HETATM   20  CAU   D T1374      -7.444   5.491  -7.909  1.00 12.44     0.076 A 
HETATM   21  CAK   D T1374      -7.698   6.034 -10.040  1.00 12.61     0.017 A 
HETATM   22  CAJ   D T1374      -8.104   6.367 -11.371  1.00 13.95     0.002 A 
HETATM   23  CAI   D T1374      -7.108   6.669 -12.307  1.00 15.63     0.000 A 
HETATM   24  CAQ   D T1374      -5.743   6.656 -11.976  1.00 14.37     0.002 A 
HETATM   25  CAR   D T1374      -5.350   6.341 -10.674  1.00 13.26     0.017 A 
HETATM   26  CAS   D T1374      -6.339   6.035  -9.716  1.00 11.92     0.060 A 
HETATM   27  NAT   D T1374      -6.217   5.698  -8.431  1.00 12.89    -0.324 N 
HETATM   28  CBA   D T1374      -4.986   5.598  -7.597  1.00 13.69     0.138 C 
HETATM   29  CBC   D T1374      -4.803   6.979  -6.949  1.00 16.12     0.167 C 
HETATM   30  OBE   D T1374      -5.600   6.889  -5.742  1.00 16.41    -0.352 OA
HETATM   31  CBF   D T1374      -5.429   7.958  -4.800  1.00 19.48     0.151 C 
ENDROOT
BRANCH  31  32
HETATM   32  CBG   D T1374      -5.825   7.267  -3.473  1.00 23.41     0.280 C 
BRANCH  32  33
HETATM   33  NBH   D T1374      -4.998   7.706  -2.299  1.00 26.24     0.144 N 
HETATM   34  CBI   D T1374      -4.808   6.571  -1.380  1.00 27.90     0.286 C 
HETATM   35  CBJ   D T1374      -3.614   8.061  -2.711  1.00 27.31     0.286 C 
ENDBRANCH  32  33
ENDBRANCH  31  32
TORSDOF 2
ENDMDL
MODEL 9
REMARK VINA RESULT:      -8.2      4.621      6.841
REMARK  2 active torsions:
REMARK  status: ('A' for Active; 'I' for Inactive)
REMARK    1  A    between atoms: CBF_31  and  CBG_32 
REMARK    2  A    between atoms: CBG_32  and  NBH_33 
ROOT
HETATM    1  CBD   D T1374      -5.684   9.565  -5.270  1.00 18.24     0.056 C 
HETATM    2  CBB   D T1374      -7.147   9.626  -4.903  1.00 13.77     0.109 C 
HETATM    3  NAW   D T1374      -7.784   8.402  -4.388  1.00 11.00    -0.326 N 
HETATM    4  CAV   D T1374      -7.676   7.158  -4.980  1.00  9.70     0.076 A 
HETATM    5  CAX   D T1374      -8.728   8.315  -3.474  1.00 10.89     0.060 A 
HETATM    6  CAY   D T1374      -9.290   9.300  -2.637  1.00 13.31     0.017 A 
HETATM    7  CAZ   D T1374     -10.288   8.923  -1.711  1.00 12.88     0.002 A 
HETATM    8  CAP   D T1374     -10.726   7.603  -1.578  1.00 12.85     0.000 A 
HETATM    9  CAO   D T1374     -10.175   6.615  -2.430  1.00 12.21     0.002 A 
HETATM   10  CAN   D T1374      -9.175   6.988  -3.390  1.00 11.16     0.017 A 
HETATM   11  CAM   D T1374      -8.450   6.249  -4.324  1.00 10.47     0.023 A 
HETATM   12  CAH   D T1374      -8.582   4.891  -4.797  1.00 11.61     0.064 A 
HETATM   13  CAE   D T1374      -9.841   4.237  -5.006  1.00 11.67     0.282 A 
HETATM   14  OAF   D T1374     -10.978   4.673  -4.728  1.00 12.38    -0.265 OA
HETATM   15  NAD   D T1374      -9.664   3.009  -5.569  1.00 11.58    -0.169 NA
HETATM   16  CAC   D T1374      -8.370   2.853  -5.760  1.00 11.36     0.282 A 
HETATM   17  OAB   D T1374      -7.897   1.852  -6.320  1.00 13.28    -0.265 OA
HETATM   18  CAG   D T1374      -7.608   3.961  -5.288  1.00 10.54     0.064 A 
HETATM   19  CAL   D T1374      -6.195   4.191  -5.365  1.00 12.92     0.023 A 
HETATM   20  CAU   D T1374      -5.537   4.987  -4.480  1.00 12.44     0.076 A 
HETATM   21  CAK   D T1374      -5.223   3.788  -6.314  1.00 12.61     0.017 A 
HETATM   22  CAJ   D T1374      -5.260   2.964  -7.483  1.00 13.95     0.002 A 
HETATM   23  CAI   D T1374      -4.076   2.797  -8.210  1.00 15.63     0.000 A 
HETATM   24  CAQ   D T1374      -2.873   3.412  -7.829  1.00 14.37     0.002 A 
HETATM   25  CAR   D T1374      -2.840   4.224  -6.694  1.00 13.26     0.017 A 
HETATM   26  CAS   D T1374      -4.023   4.405  -5.948  1.00 11.92     0.060 A 
HETATM   27  NAT   D T1374      -4.242   5.114  -4.838  1.00 12.89    -0.324 N 
HETATM   28  CBA   D T1374      -3.301   5.982  -4.077  1.00 13.69     0.138 C 
HETATM   29  CBC   D T1374      -3.466   7.394  -4.659  1.00 16.12     0.167 C 
HETATM   30  OBE   D T1374      -4.563   7.946  -3.889  1.00 16.41    -0.352 OA
HETATM   31  CBF   D T1374      -4.790   9.355  -4.047  1.00 19.48     0.151 C 
ENDROOT
BRANCH  31  32
HETATM   32  CBG   D T1374      -5.474   9.710  -2.705  1.00 23.41     0.280 C 
BRANCH  32  33
HETATM   33  NBH   D T1374      -4.695  10.689  -1.876  1.00 26.24     0.144 N 
HETATM   34  CBI   D T1374      -3.413  10.983  -2.539  1.00 27.90     0.286 C 
HETATM   35  CBJ   D T1374      -5.372  12.011  -1.815  1.00 27.31     0.286 C 
ENDBRANCH  32  33
ENDBRANCH  31  32
TORSDOF 2
ENDMDL
