MODEL 1
REMARK VINA RESULT:      -9.3      0.000      0.000
REMARK  5 active torsions:
REMARK  status: ('A' for Active; 'I' for Inactive)
REMARK    1  A    between atoms: C3_3  and  C48_30 
REMARK    2  A    between atoms: C7_6  and  C10_8 
REMARK    3  A    between atoms: C13_11  and  C24_18 
REMARK    4  A    between atoms: N27_20  and  C31_23 
REMARK    5  A    between atoms: C48_30  and  N51_31 
ROOT
HETATM    1  C10   D T   1      16.049  11.462   3.999  1.00 15.48     0.019 A 
HETATM    2  C11   D T   1      16.636  12.548   4.677  1.00 17.77     0.099 A 
HETATM    3  N12   D T   1      16.035  13.778   4.720  1.00 14.42    -0.242 NA
HETATM    4  C13   D T   1      16.621  14.806   5.385  1.00 16.70     0.103 A 
HETATM    5  C14   D T   1      17.851  14.593   6.016  1.00 16.81     0.118 A 
HETATM    6  N16   D T   1      18.460  13.393   5.970  1.00 18.92    -0.241 NA
HETATM    7  C17   D T   1      17.877  12.361   5.320  1.00 19.63     0.099 A 
HETATM    8  C18   D T   1      18.528  11.116   5.294  1.00 16.22     0.021 A 
HETATM    9  C20   D T   1      17.942  10.043   4.612  1.00 16.47     0.002 A 
HETATM   10  C22   D T   1      16.701  10.212   3.974  1.00 11.45     0.002 A 
ENDROOT
BRANCH   1  11
HETATM   11  C7    D T   1      14.760  11.576   3.259  1.00 15.00     0.006 A 
HETATM   12  C5    D T   1      14.489  12.822   2.678  1.00 16.13     0.030 A 
HETATM   13  C4    D T   1      13.303  13.044   1.972  1.00 20.46     0.140 A 
HETATM   14  C3    D T   1      12.372  12.000   1.836  1.00 19.71     0.055 A 
HETATM   15  F47   D T   1      13.088  14.255   1.440  1.00 18.81    -0.204 F 
HETATM   16  C2    D T   1      12.642  10.753   2.434  1.00 20.82     0.140 A 
HETATM   17  F1    D T   1      11.793   9.729   2.330  1.00 22.79    -0.204 F 
HETATM   18  C8    D T   1      13.830  10.537   3.144  1.00 15.46     0.030 A 
BRANCH  14  19
HETATM   19  C48   D T   1      11.078  12.226   1.032  1.00 20.25     0.129 C 
BRANCH  19  20
HETATM   20  N51   D T   1      10.349  13.438   1.557  1.00 24.07    -0.361 N 
HETATM   21  C52   D T   1      10.441  14.641   0.670  1.00 22.40     0.130 C 
HETATM   22  C55   D T   1       9.676  15.871   1.227  1.00 27.40     0.166 C 
HETATM   23  O58   D T   1      10.042  16.103   2.602  1.00 26.30    -0.350 OA
HETATM   24  C59   D T   1       9.681  14.987   3.438  1.00 25.21     0.166 C 
HETATM   25  C62   D T   1      10.510  13.743   3.016  1.00 22.22     0.130 C 
ENDBRANCH  19  20
ENDBRANCH  14  19
ENDBRANCH   1  11
BRANCH   4  26
HETATM   26  C24   D T   1      15.914  16.148   5.436  1.00 15.92     0.059 A 
HETATM   27  C25   D T   1      14.586  16.451   5.459  1.00 18.01     0.098 A 
HETATM   28  N27   D T   1      14.494  17.757   5.501  1.00 18.37    -0.251 N 
HETATM   29  N28   D T   1      15.729  18.309   5.489  1.00 18.72    -0.168 NA
HETATM   30  C29   D T   1      16.636  17.421   5.452  1.00 18.29     0.123 A 
BRANCH  28  31
HETATM   31  C31   D T   1      13.326  18.630   5.518  1.00 23.01     0.110 C 
HETATM   32  C33   D T   1      12.280  18.097   6.544  1.00 23.05     0.063 C 
HETATM   33  C36   D T   1      11.020  18.996   6.603  1.00 27.20     0.292 C 
HETATM   34  N39   D T   1      11.454  20.390   6.834  1.00 30.30     0.339 N 
HETATM   35  C41   D T   1      12.300  20.955   5.744  1.00 26.52     0.292 C 
HETATM   36  C44   D T   1      13.632  20.145   5.668  1.00 29.21     0.063 C 
ENDBRANCH  28  31
ENDBRANCH   4  26
TORSDOF 5
ENDMDL
MODEL 2
REMARK VINA RESULT:      -9.3      2.257      6.202
REMARK  5 active torsions:
REMARK  status: ('A' for Active; 'I' for Inactive)
REMARK    1  A    between atoms: C3_3  and  C48_30 
REMARK    2  A    between atoms: C7_6  and  C10_8 
REMARK    3  A    between atoms: C13_11  and  C24_18 
REMARK    4  A    between atoms: N27_20  and  C31_23 
REMARK    5  A    between atoms: C48_30  and  N51_31 
ROOT
HETATM    1  C10   D T   1      16.377  12.626   4.240  1.00 15.48     0.019 A 
HETATM    2  C11   D T   1      15.404  11.865   3.564  1.00 17.77     0.099 A 
HETATM    3  N12   D T   1      14.267  12.438   3.059  1.00 14.42    -0.242 NA
HETATM    4  C13   D T   1      13.348  11.681   2.407  1.00 16.70     0.103 A 
HETATM    5  C14   D T   1      13.574  10.308   2.268  1.00 16.81     0.118 A 
HETATM    6  N16   D T   1      14.681   9.729   2.772  1.00 18.92    -0.241 NA
HETATM    7  C17   D T   1      15.607  10.478   3.411  1.00 19.63     0.099 A 
HETATM    8  C18   D T   1      16.758   9.852   3.919  1.00 16.22     0.021 A 
HETATM    9  C20   D T   1      17.717  10.613   4.596  1.00 16.47     0.002 A 
HETATM   10  C22   D T   1      17.533  11.998   4.749  1.00 11.45     0.002 A 
ENDROOT
BRANCH   1  11
HETATM   11  C7    D T   1      16.230  14.089   4.483  1.00 15.00     0.006 A 
HETATM   12  C5    D T   1      15.550  14.815   3.496  1.00 16.13     0.030 A 
HETATM   13  C4    D T   1      15.367  16.195   3.616  1.00 20.46     0.140 A 
HETATM   14  C3    D T   1      15.864  16.865   4.747  1.00 19.71     0.055 A 
HETATM   15  F47   D T   1      14.715  16.844   2.641  1.00 18.81    -0.204 F 
HETATM   16  C2    D T   1      16.560  16.134   5.730  1.00 20.82     0.140 A 
HETATM   17  F1    D T   1      17.048  16.722   6.825  1.00 22.79    -0.204 F 
HETATM   18  C8    D T   1      16.745  14.751   5.603  1.00 15.46     0.030 A 
BRANCH  14  19
HETATM   19  C48   D T   1      15.638  18.380   4.902  1.00 20.25     0.129 C 
BRANCH  19  20
HETATM   20  N51   D T   1      14.181  18.659   5.177  1.00 24.07    -0.361 N 
HETATM   21  C52   D T   1      13.897  20.064   5.610  1.00 22.40     0.130 C 
HETATM   22  C55   D T   1      12.391  20.329   5.878  1.00 27.40     0.166 C 
HETATM   23  O58   D T   1      11.852  19.307   6.741  1.00 26.30    -0.350 OA
HETATM   24  C59   D T   1      11.934  18.005   6.131  1.00 25.21     0.166 C 
HETATM   25  C62   D T   1      13.428  17.619   5.950  1.00 22.22     0.130 C 
ENDBRANCH  19  20
ENDBRANCH  14  19
ENDBRANCH   1  11
BRANCH   4  26
HETATM   26  C24   D T   1      12.112  12.354   1.837  1.00 15.92     0.059 A 
HETATM   27  C25   D T   1      11.881  13.656   1.510  1.00 18.01     0.098 A 
HETATM   28  N27   D T   1      10.654  13.723   1.057  1.00 18.37    -0.251 N 
HETATM   29  N28   D T   1      10.078  12.500   1.097  1.00 18.72    -0.168 NA
HETATM   30  C29   D T   1      10.878  11.623   1.549  1.00 18.29     0.123 A 
BRANCH  28  31
HETATM   31  C31   D T   1       9.873  14.862   0.589  1.00 23.01     0.110 C 
HETATM   32  C33   D T   1      10.052  16.065   1.565  1.00 23.05     0.063 C 
HETATM   33  C36   D T   1       9.244  17.305   1.106  1.00 27.20     0.292 C 
HETATM   34  N39   D T   1       9.598  17.595  -0.300  1.00 30.30     0.339 N 
HETATM   35  C41   D T   1       9.243  16.509  -1.256  1.00 26.52     0.292 C 
HETATM   36  C44   D T   1      10.076  15.235  -0.905  1.00 29.21     0.063 C 
ENDBRANCH  28  31
ENDBRANCH   4  26
TORSDOF 5
ENDMDL
MODEL 3
REMARK VINA RESULT:      -8.8      2.453      3.540
REMARK  5 active torsions:
REMARK  status: ('A' for Active; 'I' for Inactive)
REMARK    1  A    between atoms: C3_3  and  C48_30 
REMARK    2  A    between atoms: C7_6  and  C10_8 
REMARK    3  A    between atoms: C13_11  and  C24_18 
REMARK    4  A    between atoms: N27_20  and  C31_23 
REMARK    5  A    between atoms: C48_30  and  N51_31 
ROOT
HETATM    1  C10   D T   1      14.329  12.769   3.533  1.00 15.48     0.019 A 
HETATM    2  C11   D T   1      15.427  13.474   4.065  1.00 17.77     0.099 A 
HETATM    3  N12   D T   1      15.382  14.828   4.267  1.00 14.42    -0.242 NA
HETATM    4  C13   D T   1      16.453  15.481   4.786  1.00 16.70     0.103 A 
HETATM    5  C14   D T   1      17.605  14.753   5.102  1.00 16.81     0.118 A 
HETATM    6  N16   D T   1      17.668  13.424   4.896  1.00 18.92    -0.241 NA
HETATM    7  C17   D T   1      16.601  12.764   4.391  1.00 19.63     0.099 A 
HETATM    8  C18   D T   1      16.688  11.376   4.194  1.00 16.22     0.021 A 
HETATM    9  C20   D T   1      15.596  10.683   3.658  1.00 16.47     0.002 A 
HETATM   10  C22   D T   1      14.416  11.376   3.337  1.00 11.45     0.002 A 
ENDROOT
BRANCH   1  11
HETATM   11  C7    D T   1      13.063  13.441   3.124  1.00 15.00     0.006 A 
HETATM   12  C5    D T   1      13.052  14.840   3.200  1.00 16.13     0.030 A 
HETATM   13  C4    D T   1      11.912  15.570   2.853  1.00 20.46     0.140 A 
HETATM   14  C3    D T   1      10.762  14.892   2.413  1.00 19.71     0.055 A 
HETATM   15  F47   D T   1      11.951  16.906   2.949  1.00 18.81    -0.204 F 
HETATM   16  C2    D T   1      10.773  13.485   2.353  1.00 20.82     0.140 A 
HETATM   17  F1    D T   1       9.708  12.795   1.938  1.00 22.79    -0.204 F 
HETATM   18  C8    D T   1      11.916  12.757   2.706  1.00 15.46     0.030 A 
BRANCH  14  19
HETATM   19  C48   D T   1       9.513  15.691   1.998  1.00 20.25     0.129 C 
BRANCH  19  20
HETATM   20  N51   D T   1       9.709  16.278   0.622  1.00 24.07    -0.361 N 
HETATM   21  C52   D T   1       8.895  17.507   0.358  1.00 22.40     0.130 C 
HETATM   22  C55   D T   1       9.120  18.097  -1.060  1.00 27.40     0.166 C 
HETATM   23  O58   D T   1       8.995  17.061  -2.055  1.00 26.30    -0.350 OA
HETATM   24  C59   D T   1       9.992  16.037  -1.877  1.00 25.21     0.166 C 
HETATM   25  C62   D T   1       9.746  15.314  -0.524  1.00 22.22     0.130 C 
ENDBRANCH  19  20
ENDBRANCH  14  19
ENDBRANCH   1  11
BRANCH   4  26
HETATM   26  C24   D T   1      16.359  16.978   5.022  1.00 15.92     0.059 A 
HETATM   27  C25   D T   1      17.335  17.923   5.121  1.00 18.01     0.098 A 
HETATM   28  N27   D T   1      16.735  19.069   5.329  1.00 18.37    -0.251 N 
HETATM   29  N28   D T   1      15.395  18.887   5.383  1.00 18.72    -0.168 NA
HETATM   30  C29   D T   1      15.083  17.669   5.209  1.00 18.29     0.123 A 
BRANCH  28  31
HETATM   31  C31   D T   1      17.279  20.406   5.533  1.00 23.01     0.110 C 
HETATM   32  C33   D T   1      16.117  21.433   5.696  1.00 23.05     0.063 C 
HETATM   33  C36   D T   1      16.647  22.872   5.923  1.00 27.20     0.292 C 
HETATM   34  N39   D T   1      17.605  22.841   7.049  1.00 30.30     0.339 N 
HETATM   35  C41   D T   1      18.812  22.004   6.802  1.00 26.52     0.292 C 
HETATM   36  C44   D T   1      18.369  20.516   6.635  1.00 29.21     0.063 C 
ENDBRANCH  28  31
ENDBRANCH   4  26
TORSDOF 5
ENDMDL
MODEL 4
REMARK VINA RESULT:      -8.0      1.982      3.138
REMARK  5 active torsions:
REMARK  status: ('A' for Active; 'I' for Inactive)
REMARK    1  A    between atoms: C3_3  and  C48_30 
REMARK    2  A    between atoms: C7_6  and  C10_8 
REMARK    3  A    between atoms: C13_11  and  C24_18 
REMARK    4  A    between atoms: N27_20  and  C31_23 
REMARK    5  A    between atoms: C48_30  and  N51_31 
ROOT
HETATM    1  C10   D T   1      14.990  12.047   3.577  1.00 15.48     0.019 A 
HETATM    2  C11   D T   1      15.878  12.911   4.248  1.00 17.77     0.099 A 
HETATM    3  N12   D T   1      15.665  14.263   4.297  1.00 14.42    -0.242 NA
HETATM    4  C13   D T   1      16.535  15.071   4.955  1.00 16.70     0.103 A 
HETATM    5  C14   D T   1      17.655  14.505   5.573  1.00 16.81     0.118 A 
HETATM    6  N16   D T   1      17.883  13.178   5.520  1.00 18.92    -0.241 NA
HETATM    7  C17   D T   1      17.015  12.365   4.878  1.00 19.63     0.099 A 
HETATM    8  C18   D T   1      17.270  10.984   4.846  1.00 16.22     0.021 A 
HETATM    9  C20   D T   1      16.388  10.133   4.171  1.00 16.47     0.002 A 
HETATM   10  C22   D T   1      15.245  10.661   3.546  1.00 11.45     0.002 A 
ENDROOT
BRANCH   1  11
HETATM   11  C7    D T   1      13.784  12.537   2.851  1.00 15.00     0.006 A 
HETATM   12  C5    D T   1      12.836  11.567   2.499  1.00 16.13     0.030 A 
HETATM   13  C4    D T   1      11.675  11.915   1.804  1.00 20.46     0.140 A 
HETATM   14  C3    D T   1      11.449  13.258   1.459  1.00 19.71     0.055 A 
HETATM   15  F47   D T   1      10.803  10.948   1.485  1.00 18.81    -0.204 F 
HETATM   16  C2    D T   1      12.411  14.229   1.802  1.00 20.82     0.140 A 
HETATM   17  F1    D T   1      12.242  15.518   1.502  1.00 22.79    -0.204 F 
HETATM   18  C8    D T   1      13.576  13.875   2.495  1.00 15.46     0.030 A 
BRANCH  14  19
HETATM   19  C48   D T   1      10.156  13.654   0.722  1.00 20.25     0.129 C 
BRANCH  19  20
HETATM   20  N51   D T   1      10.136  15.142   0.478  1.00 24.07    -0.361 N 
HETATM   21  C52   D T   1       9.568  15.942   1.609  1.00 22.40     0.130 C 
HETATM   22  C55   D T   1       9.566  17.470   1.338  1.00 27.40     0.166 C 
HETATM   23  O58   D T   1       8.984  17.746   0.048  1.00 26.30    -0.350 OA
HETATM   24  C59   D T   1       9.748  17.145  -1.014  1.00 25.21     0.166 C 
HETATM   25  C62   D T   1       9.686  15.598  -0.877  1.00 22.22     0.130 C 
ENDBRANCH  19  20
ENDBRANCH  14  19
ENDBRANCH   1  11
BRANCH   4  26
HETATM   26  C24   D T   1      16.255  16.562   5.012  1.00 15.92     0.059 A 
HETATM   27  C25   D T   1      16.809  17.540   5.782  1.00 18.01     0.098 A 
HETATM   28  N27   D T   1      16.220  18.663   5.453  1.00 18.37    -0.251 N 
HETATM   29  N28   D T   1      15.286  18.434   4.501  1.00 18.72    -0.168 NA
HETATM   30  C29   D T   1      15.240  17.207   4.179  1.00 18.29     0.123 A 
BRANCH  28  31
HETATM   31  C31   D T   1      16.396  20.017   5.966  1.00 23.01     0.110 C 
HETATM   32  C33   D T   1      17.881  20.236   6.386  1.00 23.05     0.063 C 
HETATM   33  C36   D T   1      18.121  21.666   6.933  1.00 27.20     0.292 C 
HETATM   34  N39   D T   1      17.613  22.634   5.939  1.00 30.30     0.339 N 
HETATM   35  C41   D T   1      16.147  22.541   5.689  1.00 26.52     0.292 C 
HETATM   36  C44   D T   1      15.829  21.146   5.062  1.00 29.21     0.063 C 
ENDBRANCH  28  31
ENDBRANCH   4  26
TORSDOF 5
ENDMDL
MODEL 5
REMARK VINA RESULT:      -7.7      2.788      6.305
REMARK  5 active torsions:
REMARK  status: ('A' for Active; 'I' for Inactive)
REMARK    1  A    between atoms: C3_3  and  C48_30 
REMARK    2  A    between atoms: C7_6  and  C10_8 
REMARK    3  A    between atoms: C13_11  and  C24_18 
REMARK    4  A    between atoms: N27_20  and  C31_23 
REMARK    5  A    between atoms: C48_30  and  N51_31 
ROOT
HETATM    1  C10   D T   1      12.524  12.578   2.278  1.00 15.48     0.019 A 
HETATM    2  C11   D T   1      12.059  13.901   2.403  1.00 17.77     0.099 A 
HETATM    3  N12   D T   1      12.766  14.849   3.093  1.00 14.42    -0.242 NA
HETATM    4  C13   D T   1      12.296  16.119   3.193  1.00 16.70     0.103 A 
HETATM    5  C14   D T   1      11.075  16.441   2.591  1.00 16.81     0.118 A 
HETATM    6  N16   D T   1      10.363  15.515   1.921  1.00 18.92    -0.241 NA
HETATM    7  C17   D T   1      10.830  14.252   1.806  1.00 19.63     0.099 A 
HETATM    8  C18   D T   1      10.073  13.307   1.095  1.00 16.22     0.021 A 
HETATM    9  C20   D T   1      10.538  11.992   0.981  1.00 16.47     0.002 A 
HETATM   10  C22   D T   1      11.765  11.629   1.562  1.00 11.45     0.002 A 
ENDROOT
BRANCH   1  11
HETATM   11  C7    D T   1      13.790  12.107   2.907  1.00 15.00     0.006 A 
HETATM   12  C5    D T   1      13.840  12.153   4.307  1.00 16.13     0.030 A 
HETATM   13  C4    D T   1      14.985  11.748   4.999  1.00 20.46     0.140 A 
HETATM   14  C3    D T   1      16.099  11.279   4.283  1.00 19.71     0.055 A 
HETATM   15  F47   D T   1      14.984  11.818   6.338  1.00 18.81    -0.204 F 
HETATM   16  C2    D T   1      16.050  11.247   2.875  1.00 20.82     0.140 A 
HETATM   17  F1    D T   1      17.079  10.807   2.149  1.00 22.79    -0.204 F 
HETATM   18  C8    D T   1      14.903  11.659   2.186  1.00 15.46     0.030 A 
BRANCH  14  19
HETATM   19  C48   D T   1      17.352  10.800   5.040  1.00 20.25     0.129 C 
BRANCH  19  20
HETATM   20  N51   D T   1      17.936  11.936   5.842  1.00 24.07    -0.361 N 
HETATM   21  C52   D T   1      17.620  13.296   5.300  1.00 22.40     0.130 C 
HETATM   22  C55   D T   1      18.225  14.447   6.146  1.00 27.40     0.166 C 
HETATM   23  O58   D T   1      19.624  14.203   6.392  1.00 26.30    -0.350 OA
HETATM   24  C59   D T   1      19.822  12.994   7.149  1.00 25.21     0.166 C 
HETATM   25  C62   D T   1      19.353  11.778   6.303  1.00 22.22     0.130 C 
ENDBRANCH  19  20
ENDBRANCH  14  19
ENDBRANCH   1  11
BRANCH   4  26
HETATM   26  C24   D T   1      13.119  17.152   3.942  1.00 15.92     0.059 A 
HETATM   27  C25   D T   1      14.316  17.725   3.635  1.00 18.01     0.098 A 
HETATM   28  N27   D T   1      14.601  18.555   4.608  1.00 18.37    -0.251 N 
HETATM   29  N28   D T   1      13.627  18.522   5.546  1.00 18.72    -0.168 NA
HETATM   30  C29   D T   1      12.703  17.711   5.228  1.00 18.29     0.123 A 
BRANCH  28  31
HETATM   31  C31   D T   1      15.761  19.414   4.817  1.00 23.01     0.110 C 
HETATM   32  C33   D T   1      15.310  20.771   5.438  1.00 23.05     0.063 C 
HETATM   33  C36   D T   1      16.510  21.719   5.686  1.00 27.20     0.292 C 
HETATM   34  N39   D T   1      17.525  20.987   6.474  1.00 30.30     0.339 N 
HETATM   35  C41   D T   1      18.091  19.794   5.784  1.00 26.52     0.292 C 
HETATM   36  C44   D T   1      16.951  18.751   5.562  1.00 29.21     0.063 C 
ENDBRANCH  28  31
ENDBRANCH   4  26
TORSDOF 5
ENDMDL
MODEL 6
REMARK VINA RESULT:      -7.5      3.238      7.257
REMARK  5 active torsions:
REMARK  status: ('A' for Active; 'I' for Inactive)
REMARK    1  A    between atoms: C3_3  and  C48_30 
REMARK    2  A    between atoms: C7_6  and  C10_8 
REMARK    3  A    between atoms: C13_11  and  C24_18 
REMARK    4  A    between atoms: N27_20  and  C31_23 
REMARK    5  A    between atoms: C48_30  and  N51_31 
ROOT
HETATM    1  C10   D T   1      16.392  13.978   4.772  1.00 15.48     0.019 A 
HETATM    2  C11   D T   1      15.498  13.072   4.168  1.00 17.77     0.099 A 
HETATM    3  N12   D T   1      14.325  13.492   3.600  1.00 14.42    -0.242 NA
HETATM    4  C13   D T   1      13.484  12.597   3.020  1.00 16.70     0.103 A 
HETATM    5  C14   D T   1      13.829  11.242   3.020  1.00 16.81     0.118 A 
HETATM    6  N16   D T   1      14.973  10.814   3.588  1.00 18.92    -0.241 NA
HETATM    7  C17   D T   1      15.821  11.700   4.156  1.00 19.63     0.099 A 
HETATM    8  C18   D T   1      17.013  11.229   4.733  1.00 16.22     0.021 A 
HETATM    9  C20   D T   1      17.893  12.134   5.338  1.00 16.47     0.002 A 
HETATM   10  C22   D T   1      17.589  13.506   5.349  1.00 11.45     0.002 A 
ENDROOT
BRANCH   1  11
HETATM   11  C7    D T   1      16.117  15.439   4.867  1.00 15.00     0.006 A 
HETATM   12  C5    D T   1      14.988  15.809   5.611  1.00 16.13     0.030 A 
HETATM   13  C4    D T   1      14.629  17.152   5.753  1.00 20.46     0.140 A 
HETATM   14  C3    D T   1      15.416  18.148   5.149  1.00 19.71     0.055 A 
HETATM   15  F47   D T   1      13.537  17.453   6.469  1.00 18.81    -0.204 F 
HETATM   16  C2    D T   1      16.542  17.771   4.390  1.00 20.82     0.140 A 
HETATM   17  F1    D T   1      17.323  18.678   3.800  1.00 22.79    -0.204 F 
HETATM   18  C8    D T   1      16.894  16.423   4.246  1.00 15.46     0.030 A 
BRANCH  14  19
HETATM   19  C48   D T   1      15.045  19.632   5.328  1.00 20.25     0.129 C 
BRANCH  19  20
HETATM   20  N51   D T   1      16.294  20.455   5.526  1.00 24.07    -0.361 N 
HETATM   21  C52   D T   1      17.325  19.806   6.398  1.00 22.40     0.130 C 
HETATM   22  C55   D T   1      18.602  20.668   6.580  1.00 27.40     0.166 C 
HETATM   23  O58   D T   1      18.246  22.012   6.960  1.00 26.30    -0.350 OA
HETATM   24  C59   D T   1      17.461  22.658   5.939  1.00 25.21     0.166 C 
HETATM   25  C62   D T   1      16.103  21.918   5.793  1.00 22.22     0.130 C 
ENDBRANCH  19  20
ENDBRANCH  14  19
ENDBRANCH   1  11
BRANCH   4  26
HETATM   26  C24   D T   1      12.205  13.101   2.376  1.00 15.92     0.059 A 
HETATM   27  C25   D T   1      11.953  14.243   1.678  1.00 18.01     0.098 A 
HETATM   28  N27   D T   1      10.689  14.208   1.334  1.00 18.37    -0.251 N 
HETATM   29  N28   D T   1      10.111  13.080   1.807  1.00 18.72    -0.168 NA
HETATM   30  C29   D T   1      10.944  12.361   2.441  1.00 18.29     0.123 A 
BRANCH  28  31
HETATM   31  C31   D T   1       9.875  15.170   0.601  1.00 23.01     0.110 C 
HETATM   32  C33   D T   1       9.957  16.567   1.288  1.00 23.05     0.063 C 
HETATM   33  C36   D T   1       9.111  17.629   0.540  1.00 27.20     0.292 C 
HETATM   34  N39   D T   1       9.507  17.618  -0.884  1.00 30.30     0.339 N 
HETATM   35  C41   D T   1       9.243  16.329  -1.583  1.00 26.52     0.292 C 
HETATM   36  C44   D T   1      10.120  15.213  -0.932  1.00 29.21     0.063 C 
ENDBRANCH  28  31
ENDBRANCH   4  26
TORSDOF 5
ENDMDL
MODEL 7
REMARK VINA RESULT:      -6.4      2.633      6.123
REMARK  5 active torsions:
REMARK  status: ('A' for Active; 'I' for Inactive)
REMARK    1  A    between atoms: C3_3  and  C48_30 
REMARK    2  A    between atoms: C7_6  and  C10_8 
REMARK    3  A    between atoms: C13_11  and  C24_18 
REMARK    4  A    between atoms: N27_20  and  C31_23 
REMARK    5  A    between atoms: C48_30  and  N51_31 
ROOT
HETATM    1  C10   D T   1      12.669  12.020   2.216  1.00 15.48     0.019 A 
HETATM    2  C11   D T   1      12.042  13.277   2.317  1.00 17.77     0.099 A 
HETATM    3  N12   D T   1      12.622  14.317   2.994  1.00 14.42    -0.242 NA
HETATM    4  C13   D T   1      11.997  15.520   3.071  1.00 16.70     0.103 A 
HETATM    5  C14   D T   1      10.750  15.678   2.458  1.00 16.81     0.118 A 
HETATM    6  N16   D T   1      10.162  14.660   1.801  1.00 18.92    -0.241 NA
HETATM    7  C17   D T   1      10.784  13.463   1.709  1.00 19.63     0.099 A 
HETATM    8  C18   D T   1      10.154  12.420   1.009  1.00 16.22     0.021 A 
HETATM    9  C20   D T   1      10.779  11.171   0.920  1.00 16.47     0.002 A 
HETATM   10  C22   D T   1      12.038  10.973   1.513  1.00 11.45     0.002 A 
ENDROOT
BRANCH   1  11
HETATM   11  C7    D T   1      13.979  11.720   2.859  1.00 15.00     0.006 A 
HETATM   12  C5    D T   1      14.026  11.840   4.254  1.00 16.13     0.030 A 
HETATM   13  C4    D T   1      15.209  11.596   4.958  1.00 20.46     0.140 A 
HETATM   14  C3    D T   1      16.366  11.214   4.258  1.00 19.71     0.055 A 
HETATM   15  F47   D T   1      15.203  11.731   6.291  1.00 18.81    -0.204 F 
HETATM   16  C2    D T   1      16.319  11.108   2.853  1.00 20.82     0.140 A 
HETATM   17  F1    D T   1      17.388  10.745   2.143  1.00 22.79    -0.204 F 
HETATM   18  C8    D T   1      15.132  11.359   2.153  1.00 15.46     0.030 A 
BRANCH  14  19
HETATM   19  C48   D T   1      17.664  10.911   5.029  1.00 20.25     0.129 C 
BRANCH  19  20
HETATM   20  N51   D T   1      18.330  12.199   5.447  1.00 24.07    -0.361 N 
HETATM   21  C52   D T   1      19.436  12.023   6.441  1.00 22.40     0.130 C 
HETATM   22  C55   D T   1      20.110  13.360   6.848  1.00 27.40     0.166 C 
HETATM   23  O58   D T   1      19.110  14.329   7.219  1.00 26.30    -0.350 OA
HETATM   24  C59   D T   1      18.236  14.633   6.116  1.00 25.21     0.166 C 
HETATM   25  C62   D T   1      17.429  13.361   5.736  1.00 22.22     0.130 C 
ENDBRANCH  19  20
ENDBRANCH  14  19
ENDBRANCH   1  11
BRANCH   4  26
HETATM   26  C24   D T   1      12.681  16.658   3.807  1.00 15.92     0.059 A 
HETATM   27  C25   D T   1      12.168  17.792   4.360  1.00 18.01     0.098 A 
HETATM   28  N27   D T   1      13.174  18.453   4.877  1.00 18.37    -0.251 N 
HETATM   29  N28   D T   1      14.329  17.783   4.658  1.00 18.72    -0.168 NA
HETATM   30  C29   D T   1      14.126  16.701   4.026  1.00 18.29     0.123 A 
BRANCH  28  31
HETATM   31  C31   D T   1      13.216  19.736   5.569  1.00 23.01     0.110 C 
HETATM   32  C33   D T   1      14.518  20.502   5.186  1.00 23.05     0.063 C 
HETATM   33  C36   D T   1      14.607  21.879   5.892  1.00 27.20     0.292 C 
HETATM   34  N39   D T   1      13.355  22.619   5.625  1.00 30.30     0.339 N 
HETATM   35  C41   D T   1      12.131  21.966   6.169  1.00 26.52     0.292 C 
HETATM   36  C44   D T   1      11.928  20.595   5.449  1.00 29.21     0.063 C 
ENDBRANCH  28  31
ENDBRANCH   4  26
TORSDOF 5
ENDMDL
