MODEL 1
REMARK VINA RESULT:      -7.5      0.000      0.000
REMARK  19 active torsions:
REMARK  status: ('A' for Active; 'I' for Inactive)
REMARK    1  A    between atoms: C2_2  and  C6_6 
REMARK    2  A    between atoms: C6_6  and  O7_7 
REMARK    3  A    between atoms: O7_7  and  C10_8 
REMARK       I    between atoms: C10_8  and  N11_10 
REMARK    4  A    between atoms: N11_10  and  C12_11 
REMARK    5  A    between atoms: C12_11  and  C13_12 
REMARK    6  A    between atoms: C12_11  and  C26_15 
REMARK    7  A    between atoms: C13_12  and  C14_13 
REMARK    8  A    between atoms: C13_12  and  O41_22 
REMARK    9  A    between atoms: C14_13  and  C15_14 
REMARK   10  A    between atoms: C15_14  and  C44_23 
REMARK   11  A    between atoms: C15_14  and  N58_30 
REMARK   12  A    between atoms: C26_15  and  C28_16 
REMARK   13  A    between atoms: C44_23  and  C45_24 
REMARK       I    between atoms: N58_30  and  C18_33 
REMARK   14  A    between atoms: N20_31  and  C19_32 
REMARK       I    between atoms: N20_31  and  C21_38 
REMARK   15  A    between atoms: C19_32  and  C18_33 
REMARK   16  A    between atoms: C19_32  and  C62_35 
REMARK       I    between atoms: C21_38  and  N74_39 
REMARK   17  A    between atoms: N74_39  and  C75_40 
REMARK   18  A    between atoms: C75_40  and  C77_42 
REMARK   19  A    between atoms: C82_45  and  C85_47 
ROOT
HETATM    1  C15   D T 401      16.424  17.475   4.693  1.00 55.13     0.091 C 
ENDROOT
BRANCH   1   2
HETATM    2  C14   D T 401      14.908  17.449   4.530  1.00 56.49     0.059 C 
BRANCH   2   3
HETATM    3  C13   D T 401      14.153  18.039   5.711  1.00 52.85     0.143 C 
BRANCH   3   4
HETATM    4  C12   D T 401      12.815  18.629   5.320  1.00 51.97     0.119 C 
BRANCH   4   5
HETATM    5  N11   D T 401      11.843  17.589   5.058  1.00 54.53    -0.329 N 
HETATM    6  C10   D T 401      11.630  17.102   3.846  1.00 57.55     0.361 C 
HETATM    7  O24   D T 401      12.209  17.489   2.844  1.00 50.79    -0.238 OA
HETATM    8  H11   D T 401      11.313  17.229   5.838  1.00 65.46     0.165 HD
BRANCH   6   9
HETATM    9  O7    D T 401      10.642  16.058   3.734  1.00 56.36    -0.299 OA
BRANCH   9  10
HETATM   10  C6    D T 401      10.123  15.824   2.478  1.00 61.93     0.228 C 
BRANCH  10  11
HETATM   11  C2    D T 401      10.293  14.384   2.126  1.00 76.84     0.022 A 
HETATM   12  C1    D T 401      10.287  13.197   2.838  1.00 77.89     0.128 A 
HETATM   13  N5    D T 401      10.489  12.137   2.015  1.00 89.70    -0.282 NA
HETATM   14  C4    D T 401      10.646  12.458   0.706  1.00 85.46     0.208 A 
HETATM   15  S3    D T 401      10.551  14.176   0.441  1.00 90.97    -0.100 SA
ENDBRANCH  10  11
ENDBRANCH   9  10
ENDBRANCH   6   9
ENDBRANCH   4   5
BRANCH   4  16
HETATM   16  C26   D T 401      12.270  19.514   6.444  1.00 53.54     0.066 C 
BRANCH  16  17
HETATM   17  C28   D T 401      12.009  20.862   5.843  1.00 51.74    -0.056 A 
HETATM   18  C31   D T 401      10.739  21.153   5.386  1.00 56.62     0.007 A 
HETATM   19  C32   D T 401      10.469  22.396   4.839  1.00 61.24     0.001 A 
HETATM   20  C33   D T 401      11.470  23.353   4.771  1.00 57.56     0.000 A 
HETATM   21  C34   D T 401      12.741  23.053   5.247  1.00 57.29     0.001 A 
HETATM   22  C35   D T 401      13.010  21.802   5.792  1.00 54.64     0.007 A 
ENDBRANCH  16  17
ENDBRANCH   4  16
ENDBRANCH   3   4
BRANCH   3  23
HETATM   23  O41   D T 401      13.961  16.954   6.645  1.00 46.89    -0.393 OA
HETATM   24  HO4   D T 401      14.207  16.119   6.225  1.00 56.30     0.210 HD
ENDBRANCH   3  23
ENDBRANCH   2   3
ENDBRANCH   1   2
BRANCH   1  25
HETATM   25  C44   D T 401      16.827  16.015   4.854  1.00 57.31     0.063 C 
BRANCH  25  26
HETATM   26  C45   D T 401      15.834  15.149   4.147  1.00 62.23    -0.056 A 
HETATM   27  C48   D T 401      15.273  14.073   4.810  1.00 68.40     0.007 A 
HETATM   28  C49   D T 401      14.344  13.276   4.153  1.00 68.89     0.001 A 
HETATM   29  C50   D T 401      13.981  13.559   2.841  1.00 70.95     0.000 A 
HETATM   30  C51   D T 401      14.549  14.644   2.185  1.00 69.71     0.001 A 
HETATM   31  C52   D T 401      15.477  15.444   2.842  1.00 63.86     0.007 A 
ENDBRANCH  25  26
ENDBRANCH   1  25
BRANCH   1  32
HETATM   32  N58   D T 401      16.843  18.248   5.841  1.00 57.14    -0.354 N 
HETATM   33  C18   D T 401      17.358  19.455   5.623  1.00 63.33     0.241 C 
HETATM   34  O61   D T 401      17.409  19.907   4.494  1.00 56.06    -0.271 OA
HETATM   35  H58   D T 401      16.743  17.874   6.773  1.00 68.60     0.162 HD
BRANCH  33  36
HETATM   36  C19   D T 401      17.889  20.245   6.770  1.00 62.97     0.181 C 
BRANCH  36  37
HETATM   37  N20   D T 401      19.337  20.196   6.997  1.00 62.86    -0.329 N 
HETATM   38  C21   D T 401      20.178  20.955   6.333  1.00 67.85     0.319 C 
HETATM   39  N74   D T 401      21.363  21.210   6.852  1.00 70.47    -0.333 N 
HETATM   40  O76   D T 401      19.862  21.456   5.277  1.00 58.01    -0.247 OA
HETATM   41  C95   D T 401      21.996  20.446   7.902  1.00 68.34     0.154 C 
HETATM   42  H20   D T 401      19.687  19.552   7.692  1.00 75.47     0.165 HD
BRANCH  39  43
HETATM   43  C75   D T 401      22.144  22.351   6.382  1.00 68.98     0.183 C 
BRANCH  43  44
HETATM   44  C77   D T 401      23.345  21.734   5.734  1.00 78.58     0.047 A 
HETATM   45  C80   D T 401      24.540  21.581   6.412  1.00 85.18     0.122 A 
HETATM   46  S81   D T 401      25.757  20.860   5.419  1.00 94.63    -0.102 SA
HETATM   47  C82   D T 401      24.592  20.825   4.150  1.00 83.84     0.075 A 
HETATM   48  N83   D T 401      23.390  21.323   4.462  1.00 84.20    -0.252 NA
BRANCH  47  49
HETATM   49  C85   D T 401      25.082  20.249   2.901  1.00 85.08     0.036 C 
HETATM   50  C86   D T 401      26.256  19.417   3.246  1.00 89.40     0.016 C 
HETATM   51  C90   D T 401      23.939  19.580   2.181  1.00 90.17     0.016 C 
ENDBRANCH  47  49
ENDBRANCH  43  44
ENDBRANCH  39  43
ENDBRANCH  36  37
BRANCH  36  52
HETATM   52  C62   D T 401      17.667  21.728   6.450  1.00 69.84     0.009 C 
HETATM   53  C64   D T 401      16.250  22.028   5.999  1.00 64.64     0.012 C 
HETATM   54  C68   D T 401      18.020  22.595   7.654  1.00 69.88     0.012 C 
ENDBRANCH  36  52
ENDBRANCH  33  36
ENDBRANCH   1  32
TORSDOF 19
ENDMDL
MODEL 2
REMARK VINA RESULT:      -6.3      3.528      6.605
REMARK  19 active torsions:
REMARK  status: ('A' for Active; 'I' for Inactive)
REMARK    1  A    between atoms: C2_2  and  C6_6 
REMARK    2  A    between atoms: C6_6  and  O7_7 
REMARK    3  A    between atoms: O7_7  and  C10_8 
REMARK       I    between atoms: C10_8  and  N11_10 
REMARK    4  A    between atoms: N11_10  and  C12_11 
REMARK    5  A    between atoms: C12_11  and  C13_12 
REMARK    6  A    between atoms: C12_11  and  C26_15 
REMARK    7  A    between atoms: C13_12  and  C14_13 
REMARK    8  A    between atoms: C13_12  and  O41_22 
REMARK    9  A    between atoms: C14_13  and  C15_14 
REMARK   10  A    between atoms: C15_14  and  C44_23 
REMARK   11  A    between atoms: C15_14  and  N58_30 
REMARK   12  A    between atoms: C26_15  and  C28_16 
REMARK   13  A    between atoms: C44_23  and  C45_24 
REMARK       I    between atoms: N58_30  and  C18_33 
REMARK   14  A    between atoms: N20_31  and  C19_32 
REMARK       I    between atoms: N20_31  and  C21_38 
REMARK   15  A    between atoms: C19_32  and  C18_33 
REMARK   16  A    between atoms: C19_32  and  C62_35 
REMARK       I    between atoms: C21_38  and  N74_39 
REMARK   17  A    between atoms: N74_39  and  C75_40 
REMARK   18  A    between atoms: C75_40  and  C77_42 
REMARK   19  A    between atoms: C82_45  and  C85_47 
ROOT
HETATM    1  C15   D T 401      14.191  13.475   2.677  1.00 55.13     0.091 C 
ENDROOT
BRANCH   1   2
HETATM    2  C14   D T 401      12.780  13.713   3.203  1.00 56.49     0.059 C 
BRANCH   2   3
HETATM    3  C13   D T 401      12.079  14.903   2.566  1.00 52.85     0.143 C 
BRANCH   3   4
HETATM    4  C12   D T 401      11.182  15.646   3.532  1.00 51.97     0.119 C 
BRANCH   4   5
HETATM    5  N11   D T 401      11.561  17.040   3.628  1.00 54.53    -0.329 N 
HETATM    6  C10   D T 401      11.949  17.597   4.765  1.00 57.55     0.361 C 
HETATM    7  O24   D T 401      12.005  17.003   5.830  1.00 50.79    -0.238 OA
HETATM    8  H11   D T 401      11.523  17.599   2.789  1.00 65.46     0.165 HD
BRANCH   6   9
HETATM    9  O7    D T 401      12.311  18.991   4.711  1.00 56.36    -0.299 OA
BRANCH   9  10
HETATM   10  C6    D T 401      12.232  19.701   5.890  1.00 61.93     0.228 C 
BRANCH  10  11
HETATM   11  C2    D T 401      12.364  21.160   5.606  1.00 76.84     0.022 A 
HETATM   12  C1    D T 401      13.374  22.095   5.748  1.00 77.89     0.128 A 
HETATM   13  N5    D T 401      12.967  23.318   5.325  1.00 89.70    -0.282 NA
HETATM   14  C4    D T 401      11.691  23.361   4.861  1.00 85.46     0.208 A 
HETATM   15  S3    D T 401      10.914  21.805   4.949  1.00 90.97    -0.100 SA
ENDBRANCH  10  11
ENDBRANCH   9  10
ENDBRANCH   6   9
ENDBRANCH   4   5
BRANCH   4  16
HETATM   16  C26   D T 401       9.725  15.582   3.070  1.00 53.54     0.066 C 
BRANCH  16  17
HETATM   17  C28   D T 401       9.728  15.851   1.595  1.00 51.74    -0.056 A 
HETATM   18  C31   D T 401      10.033  14.819   0.731  1.00 56.62     0.007 A 
HETATM   19  C32   D T 401      10.030  15.040  -0.636  1.00 61.24     0.001 A 
HETATM   20  C33   D T 401       9.698  16.290  -1.134  1.00 57.56     0.000 A 
HETATM   21  C34   D T 401       9.378  17.317  -0.254  1.00 57.29     0.001 A 
HETATM   22  C35   D T 401       9.387  17.094   1.119  1.00 54.64     0.007 A 
ENDBRANCH  16  17
ENDBRANCH   4  16
ENDBRANCH   3   4
BRANCH   3  23
HETATM   23  O41   D T 401      13.126  15.777   2.092  1.00 46.89    -0.393 OA
HETATM   24  HO4   D T 401      13.981  15.459   2.412  1.00 56.30     0.210 HD
ENDBRANCH   3  23
ENDBRANCH   2   3
ENDBRANCH   1   2
BRANCH   1  25
HETATM   25  C44   D T 401      14.300  11.965   2.511  1.00 57.31     0.063 C 
BRANCH  25  26
HETATM   26  C45   D T 401      15.465  11.464   3.303  1.00 62.23    -0.056 A 
HETATM   27  C48   D T 401      15.366  11.375   4.679  1.00 68.40     0.007 A 
HETATM   28  C49   D T 401      16.448  10.901   5.411  1.00 68.89     0.001 A 
HETATM   29  C50   D T 401      17.618  10.520   4.764  1.00 70.95     0.000 A 
HETATM   30  C51   D T 401      17.706  10.612   3.381  1.00 69.71     0.001 A 
HETATM   31  C52   D T 401      16.623  11.083   2.646  1.00 63.86     0.007 A 
ENDBRANCH  25  26
ENDBRANCH   1  25
BRANCH   1  32
HETATM   32  N58   D T 401      15.208  13.962   3.582  1.00 57.14    -0.354 N 
HETATM   33  C18   D T 401      15.849  15.080   3.253  1.00 63.33     0.241 C 
HETATM   34  O61   D T 401      15.534  15.698   2.252  1.00 56.06    -0.271 OA
HETATM   35  H58   D T 401      15.416  13.462   4.434  1.00 68.60     0.162 HD
BRANCH  33  36
HETATM   36  C19   D T 401      16.968  15.565   4.110  1.00 62.97     0.181 C 
BRANCH  36  37
HETATM   37  N20   D T 401      17.253  17.003   4.080  1.00 62.86    -0.329 N 
HETATM   38  C21   D T 401      16.438  17.891   4.605  1.00 67.85     0.319 C 
HETATM   39  N74   D T 401      16.911  19.070   4.955  1.00 70.47    -0.333 N 
HETATM   40  O76   D T 401      15.276  17.622   4.809  1.00 58.01    -0.247 OA
HETATM   41  C95   D T 401      18.151  19.646   4.485  1.00 68.34     0.154 C 
HETATM   42  H20   D T 401      18.108  17.310   3.639  1.00 75.47     0.165 HD
BRANCH  39  43
HETATM   43  C75   D T 401      16.179  19.907   5.901  1.00 68.98     0.183 C 
BRANCH  43  44
HETATM   44  C77   D T 401      17.171  20.952   6.312  1.00 78.58     0.047 A 
HETATM   45  C80   D T 401      18.323  20.629   7.005  1.00 85.18     0.122 A 
HETATM   46  S81   D T 401      19.271  22.029   7.366  1.00 94.63    -0.102 SA
HETATM   47  C82   D T 401      18.054  22.961   6.580  1.00 83.84     0.075 A 
HETATM   48  N83   D T 401      17.022  22.263   6.095  1.00 84.20    -0.252 NA
BRANCH  47  49
HETATM   49  C85   D T 401      18.324  24.397   6.551  1.00 85.08     0.036 C 
HETATM   50  C86   D T 401      19.791  24.554   6.454  1.00 89.40     0.016 C 
HETATM   51  C90   D T 401      17.480  25.037   5.478  1.00 90.17     0.016 C 
ENDBRANCH  47  49
ENDBRANCH  43  44
ENDBRANCH  39  43
ENDBRANCH  36  37
BRANCH  36  52
HETATM   52  C62   D T 401      16.556  15.351   5.570  1.00 69.84     0.009 C 
HETATM   53  C64   D T 401      15.159  14.779   5.711  1.00 64.64     0.012 C 
HETATM   54  C68   D T 401      17.557  14.448   6.284  1.00 69.88     0.012 C 
ENDBRANCH  36  52
ENDBRANCH  33  36
ENDBRANCH   1  32
TORSDOF 19
ENDMDL
MODEL 3
REMARK VINA RESULT:      -6.0      2.327      4.263
REMARK  19 active torsions:
REMARK  status: ('A' for Active; 'I' for Inactive)
REMARK    1  A    between atoms: C2_2  and  C6_6 
REMARK    2  A    between atoms: C6_6  and  O7_7 
REMARK    3  A    between atoms: O7_7  and  C10_8 
REMARK       I    between atoms: C10_8  and  N11_10 
REMARK    4  A    between atoms: N11_10  and  C12_11 
REMARK    5  A    between atoms: C12_11  and  C13_12 
REMARK    6  A    between atoms: C12_11  and  C26_15 
REMARK    7  A    between atoms: C13_12  and  C14_13 
REMARK    8  A    between atoms: C13_12  and  O41_22 
REMARK    9  A    between atoms: C14_13  and  C15_14 
REMARK   10  A    between atoms: C15_14  and  C44_23 
REMARK   11  A    between atoms: C15_14  and  N58_30 
REMARK   12  A    between atoms: C26_15  and  C28_16 
REMARK   13  A    between atoms: C44_23  and  C45_24 
REMARK       I    between atoms: N58_30  and  C18_33 
REMARK   14  A    between atoms: N20_31  and  C19_32 
REMARK       I    between atoms: N20_31  and  C21_38 
REMARK   15  A    between atoms: C19_32  and  C18_33 
REMARK   16  A    between atoms: C19_32  and  C62_35 
REMARK       I    between atoms: C21_38  and  N74_39 
REMARK   17  A    between atoms: N74_39  and  C75_40 
REMARK   18  A    between atoms: C75_40  and  C77_42 
REMARK   19  A    between atoms: C82_45  and  C85_47 
ROOT
HETATM    1  C15   D T 401      15.636  17.932   4.603  1.00 55.13     0.091 C 
ENDROOT
BRANCH   1   2
HETATM    2  C14   D T 401      14.570  16.895   4.941  1.00 56.49     0.059 C 
BRANCH   2   3
HETATM    3  C13   D T 401      13.193  17.226   4.385  1.00 52.85     0.143 C 
BRANCH   3   4
HETATM    4  C12   D T 401      12.626  16.122   3.519  1.00 51.97     0.119 C 
BRANCH   4   5
HETATM    5  N11   D T 401      13.016  14.819   4.013  1.00 54.53    -0.329 N 
HETATM    6  C10   D T 401      13.697  13.953   3.280  1.00 57.55     0.361 C 
HETATM    7  O24   D T 401      14.040  14.158   2.127  1.00 50.79    -0.238 OA
HETATM    8  H11   D T 401      12.753  14.572   4.956  1.00 65.46     0.165 HD
BRANCH   6   9
HETATM    9  O7    D T 401      14.031  12.698   3.906  1.00 56.36    -0.299 OA
BRANCH   9  10
HETATM   10  C6    D T 401      14.014  11.578   3.102  1.00 61.93     0.228 C 
BRANCH  10  11
HETATM   11  C2    D T 401      15.308  10.847   3.234  1.00 76.84     0.022 A 
HETATM   12  C1    D T 401      16.234  10.331   2.343  1.00 77.89     0.128 A 
HETATM   13  N5    D T 401      17.268   9.749   2.999  1.00 89.70    -0.282 NA
HETATM   14  C4    D T 401      17.179   9.799   4.353  1.00 85.46     0.208 A 
HETATM   15  S3    D T 401      15.728  10.604   4.881  1.00 90.97    -0.100 SA
ENDBRANCH  10  11
ENDBRANCH   9  10
ENDBRANCH   6   9
ENDBRANCH   4   5
BRANCH   4  16
HETATM   16  C26   D T 401      11.098  16.185   3.502  1.00 53.54     0.066 C 
BRANCH  16  17
HETATM   17  C28   D T 401      10.661  15.718   2.147  1.00 51.74    -0.056 A 
HETATM   18  C31   D T 401      10.275  16.657   1.211  1.00 56.62     0.007 A 
HETATM   19  C32   D T 401       9.880  16.251  -0.052  1.00 61.24     0.001 A 
HETATM   20  C33   D T 401       9.895  14.905  -0.382  1.00 57.56     0.000 A 
HETATM   21  C34   D T 401      10.299  13.970   0.564  1.00 57.29     0.001 A 
HETATM   22  C35   D T 401      10.691  14.380   1.835  1.00 54.64     0.007 A 
ENDBRANCH  16  17
ENDBRANCH   4  16
ENDBRANCH   3   4
BRANCH   3  23
HETATM   23  O41   D T 401      12.341  17.442   5.531  1.00 46.89    -0.393 OA
HETATM   24  HO4   D T 401      12.290  18.389   5.722  1.00 56.30     0.210 HD
ENDBRANCH   3  23
ENDBRANCH   2   3
ENDBRANCH   1   2
BRANCH   1  25
HETATM   25  C44   D T 401      16.731  17.151   3.888  1.00 57.31     0.063 C 
BRANCH  25  26
HETATM   26  C45   D T 401      17.007  15.888   4.639  1.00 62.23    -0.056 A 
HETATM   27  C48   D T 401      17.004  14.680   3.967  1.00 68.40     0.007 A 
HETATM   28  C49   D T 401      17.270  13.509   4.668  1.00 68.89     0.001 A 
HETATM   29  C50   D T 401      17.537  13.554   6.031  1.00 70.95     0.000 A 
HETATM   30  C51   D T 401      17.540  14.774   6.697  1.00 69.71     0.001 A 
HETATM   31  C52   D T 401      17.276  15.947   5.996  1.00 63.86     0.007 A 
ENDBRANCH  25  26
ENDBRANCH   1  25
BRANCH   1  32
HETATM   32  N58   D T 401      16.164  18.586   5.779  1.00 57.14    -0.354 N 
HETATM   33  C18   D T 401      16.960  19.637   5.601  1.00 63.33     0.241 C 
HETATM   34  O61   D T 401      17.176  20.062   4.481  1.00 56.06    -0.271 OA
HETATM   35  H58   D T 401      15.929  18.249   6.701  1.00 68.60     0.162 HD
BRANCH  33  36
HETATM   36  C19   D T 401      17.600  20.282   6.783  1.00 62.97     0.181 C 
BRANCH  36  37
HETATM   37  N20   D T 401      19.042  20.073   6.954  1.00 62.86    -0.329 N 
HETATM   38  C21   D T 401      19.933  20.925   6.502  1.00 67.85     0.319 C 
HETATM   39  N74   D T 401      21.135  20.946   7.042  1.00 70.47    -0.333 N 
HETATM   40  O76   D T 401      19.651  21.715   5.629  1.00 58.01    -0.247 OA
HETATM   41  C95   D T 401      21.716  19.883   7.830  1.00 68.34     0.154 C 
HETATM   42  H20   D T 401      19.347  19.242   7.440  1.00 75.47     0.165 HD
BRANCH  39  43
HETATM   43  C75   D T 401      21.995  22.116   6.882  1.00 68.98     0.183 C 
BRANCH  43  44
HETATM   44  C77   D T 401      23.208  21.588   6.179  1.00 78.58     0.047 A 
HETATM   45  C80   D T 401      24.436  21.503   6.809  1.00 85.18     0.122 A 
HETATM   46  S81   D T 401      25.658  20.878   5.759  1.00 94.63    -0.102 SA
HETATM   47  C82   D T 401      24.449  20.786   4.534  1.00 83.84     0.075 A 
HETATM   48  N83   D T 401      23.231  21.200   4.900  1.00 84.20    -0.252 NA
BRANCH  47  49
HETATM   49  C85   D T 401      24.928  20.262   3.257  1.00 85.08     0.036 C 
HETATM   50  C86   D T 401      26.123  19.443   3.553  1.00 89.40     0.016 C 
HETATM   51  C90   D T 401      23.784  19.595   2.536  1.00 90.17     0.016 C 
ENDBRANCH  47  49
ENDBRANCH  43  44
ENDBRANCH  39  43
ENDBRANCH  36  37
BRANCH  36  52
HETATM   52  C62   D T 401      17.520  21.799   6.579  1.00 69.84     0.009 C 
HETATM   53  C64   D T 401      16.216  22.241   5.945  1.00 64.64     0.012 C 
HETATM   54  C68   D T 401      17.725  22.530   7.902  1.00 69.88     0.012 C 
ENDBRANCH  36  52
ENDBRANCH  33  36
ENDBRANCH   1  32
TORSDOF 19
ENDMDL
MODEL 4
REMARK VINA RESULT:      -5.9      1.575      2.038
REMARK  19 active torsions:
REMARK  status: ('A' for Active; 'I' for Inactive)
REMARK    1  A    between atoms: C2_2  and  C6_6 
REMARK    2  A    between atoms: C6_6  and  O7_7 
REMARK    3  A    between atoms: O7_7  and  C10_8 
REMARK       I    between atoms: C10_8  and  N11_10 
REMARK    4  A    between atoms: N11_10  and  C12_11 
REMARK    5  A    between atoms: C12_11  and  C13_12 
REMARK    6  A    between atoms: C12_11  and  C26_15 
REMARK    7  A    between atoms: C13_12  and  C14_13 
REMARK    8  A    between atoms: C13_12  and  O41_22 
REMARK    9  A    between atoms: C14_13  and  C15_14 
REMARK   10  A    between atoms: C15_14  and  C44_23 
REMARK   11  A    between atoms: C15_14  and  N58_30 
REMARK   12  A    between atoms: C26_15  and  C28_16 
REMARK   13  A    between atoms: C44_23  and  C45_24 
REMARK       I    between atoms: N58_30  and  C18_33 
REMARK   14  A    between atoms: N20_31  and  C19_32 
REMARK       I    between atoms: N20_31  and  C21_38 
REMARK   15  A    between atoms: C19_32  and  C18_33 
REMARK   16  A    between atoms: C19_32  and  C62_35 
REMARK       I    between atoms: C21_38  and  N74_39 
REMARK   17  A    between atoms: N74_39  and  C75_40 
REMARK   18  A    between atoms: C75_40  and  C77_42 
REMARK   19  A    between atoms: C82_45  and  C85_47 
ROOT
HETATM    1  C15   D T 401      16.296  16.981   5.491  1.00 55.13     0.091 C 
ENDROOT
BRANCH   1   2
HETATM    2  C14   D T 401      14.778  16.847   5.453  1.00 56.49     0.059 C 
BRANCH   2   3
HETATM    3  C13   D T 401      14.167  17.167   4.097  1.00 52.85     0.143 C 
BRANCH   3   4
HETATM    4  C12   D T 401      12.921  18.020   4.198  1.00 51.97     0.119 C 
BRANCH   4   5
HETATM    5  N11   D T 401      11.768  17.324   3.666  1.00 54.53    -0.329 N 
HETATM    6  C10   D T 401      11.872  16.213   2.955  1.00 57.55     0.361 C 
HETATM    7  O24   D T 401      12.934  15.685   2.667  1.00 50.79    -0.238 OA
HETATM    8  H11   D T 401      10.855  17.712   3.850  1.00 65.46     0.165 HD
BRANCH   6   9
HETATM    9  O7    D T 401      10.640  15.619   2.500  1.00 56.36    -0.299 OA
BRANCH   9  10
HETATM   10  C6    D T 401      10.679  14.949   1.296  1.00 61.93     0.228 C 
BRANCH  10  11
HETATM   11  C2    D T 401      10.052  15.788   0.234  1.00 76.84     0.022 A 
HETATM   12  C1    D T 401       9.818  15.634  -1.122  1.00 77.89     0.128 A 
HETATM   13  N5    D T 401       9.193  16.724  -1.633  1.00 89.70    -0.282 NA
HETATM   14  C4    D T 401       8.935  17.705  -0.731  1.00 85.46     0.208 A 
HETATM   15  S3    D T 401       9.496  17.286   0.864  1.00 90.97    -0.100 SA
ENDBRANCH  10  11
ENDBRANCH   9  10
ENDBRANCH   6   9
ENDBRANCH   4   5
BRANCH   4  16
HETATM   16  C26   D T 401      12.629  18.373   5.658  1.00 53.54     0.066 C 
BRANCH  16  17
HETATM   17  C28   D T 401      12.366  19.848   5.701  1.00 51.74    -0.056 A 
HETATM   18  C31   D T 401      13.431  20.718   5.582  1.00 56.62     0.007 A 
HETATM   19  C32   D T 401      13.212  22.085   5.607  1.00 61.24     0.001 A 
HETATM   20  C33   D T 401      11.921  22.576   5.727  1.00 57.56     0.000 A 
HETATM   21  C34   D T 401      10.856  21.690   5.832  1.00 57.29     0.001 A 
HETATM   22  C35   D T 401      11.079  20.317   5.813  1.00 54.64     0.007 A 
ENDBRANCH  16  17
ENDBRANCH   4  16
ENDBRANCH   3   4
BRANCH   3  23
HETATM   23  O41   D T 401      15.188  17.870   3.355  1.00 46.89    -0.393 OA
HETATM   24  HO4   D T 401      15.132  17.628   2.420  1.00 56.30     0.210 HD
ENDBRANCH   3  23
ENDBRANCH   2   3
ENDBRANCH   1   2
BRANCH   1  25
HETATM   25  C44   D T 401      16.801  15.612   5.929  1.00 57.31     0.063 C 
BRANCH  25  26
HETATM   26  C45   D T 401      16.244  14.567   5.016  1.00 62.23    -0.056 A 
HETATM   27  C48   D T 401      16.795  14.395   3.759  1.00 68.40     0.007 A 
HETATM   28  C49   D T 401      16.281  13.417   2.917  1.00 68.89     0.001 A 
HETATM   29  C50   D T 401      15.223  12.618   3.335  1.00 70.95     0.000 A 
HETATM   30  C51   D T 401      14.678  12.797   4.600  1.00 69.71     0.001 A 
HETATM   31  C52   D T 401      15.193  13.774   5.446  1.00 63.86     0.007 A 
ENDBRANCH  25  26
ENDBRANCH   1  25
BRANCH   1  32
HETATM   32  N58   D T 401      16.738  18.004   6.413  1.00 57.14    -0.354 N 
HETATM   33  C18   D T 401      17.418  19.035   5.918  1.00 63.33     0.241 C 
HETATM   34  O61   D T 401      17.598  19.133   4.718  1.00 56.06    -0.271 OA
HETATM   35  H58   D T 401      16.530  17.929   7.398  1.00 68.60     0.162 HD
BRANCH  33  36
HETATM   36  C19   D T 401      17.971  20.063   6.844  1.00 62.97     0.181 C 
BRANCH  36  37
HETATM   37  N20   D T 401      19.425  20.068   7.038  1.00 62.86    -0.329 N 
HETATM   38  C21   D T 401      20.216  20.895   6.392  1.00 67.85     0.319 C 
HETATM   39  N74   D T 401      21.400  21.179   6.897  1.00 70.47    -0.333 N 
HETATM   40  O76   D T 401      19.853  21.430   5.369  1.00 58.01    -0.247 OA
HETATM   41  C95   D T 401      22.092  20.396   7.896  1.00 68.34     0.154 C 
HETATM   42  H20   D T 401      19.820  19.409   7.694  1.00 75.47     0.165 HD
BRANCH  39  43
HETATM   43  C75   D T 401      22.118  22.375   6.466  1.00 68.98     0.183 C 
BRANCH  43  44
HETATM   44  C77   D T 401      23.321  21.844   5.749  1.00 78.58     0.047 A 
HETATM   45  C80   D T 401      24.583  21.888   6.313  1.00 85.18     0.122 A 
HETATM   46  S81   D T 401      25.783  21.226   5.260  1.00 94.63    -0.102 SA
HETATM   47  C82   D T 401      24.520  20.947   4.122  1.00 83.84     0.075 A 
HETATM   48  N83   D T 401      23.301  21.331   4.515  1.00 84.20    -0.252 NA
BRANCH  47  49
HETATM   49  C85   D T 401      24.961  20.323   2.877  1.00 85.08     0.036 C 
HETATM   50  C86   D T 401      26.158  19.518   3.204  1.00 89.40     0.016 C 
HETATM   51  C90   D T 401      23.794  19.613   2.238  1.00 90.17     0.016 C 
ENDBRANCH  47  49
ENDBRANCH  43  44
ENDBRANCH  39  43
ENDBRANCH  36  37
BRANCH  36  52
HETATM   52  C62   D T 401      17.729  21.435   6.207  1.00 69.84     0.009 C 
HETATM   53  C64   D T 401      16.547  21.445   5.258  1.00 64.64     0.012 C 
HETATM   54  C68   D T 401      17.535  22.499   7.284  1.00 69.88     0.012 C 
ENDBRANCH  36  52
ENDBRANCH  33  36
ENDBRANCH   1  32
TORSDOF 19
ENDMDL
MODEL 5
REMARK VINA RESULT:      -5.5      2.175      4.687
REMARK  19 active torsions:
REMARK  status: ('A' for Active; 'I' for Inactive)
REMARK    1  A    between atoms: C2_2  and  C6_6 
REMARK    2  A    between atoms: C6_6  and  O7_7 
REMARK    3  A    between atoms: O7_7  and  C10_8 
REMARK       I    between atoms: C10_8  and  N11_10 
REMARK    4  A    between atoms: N11_10  and  C12_11 
REMARK    5  A    between atoms: C12_11  and  C13_12 
REMARK    6  A    between atoms: C12_11  and  C26_15 
REMARK    7  A    between atoms: C13_12  and  C14_13 
REMARK    8  A    between atoms: C13_12  and  O41_22 
REMARK    9  A    between atoms: C14_13  and  C15_14 
REMARK   10  A    between atoms: C15_14  and  C44_23 
REMARK   11  A    between atoms: C15_14  and  N58_30 
REMARK   12  A    between atoms: C26_15  and  C28_16 
REMARK   13  A    between atoms: C44_23  and  C45_24 
REMARK       I    between atoms: N58_30  and  C18_33 
REMARK   14  A    between atoms: N20_31  and  C19_32 
REMARK       I    between atoms: N20_31  and  C21_38 
REMARK   15  A    between atoms: C19_32  and  C18_33 
REMARK   16  A    between atoms: C19_32  and  C62_35 
REMARK       I    between atoms: C21_38  and  N74_39 
REMARK   17  A    between atoms: N74_39  and  C75_40 
REMARK   18  A    between atoms: C75_40  and  C77_42 
REMARK   19  A    between atoms: C82_45  and  C85_47 
ROOT
HETATM    1  C15   D T 401      16.169  17.066   5.164  1.00 55.13     0.091 C 
ENDROOT
BRANCH   1   2
HETATM    2  C14   D T 401      15.025  17.425   4.221  1.00 56.49     0.059 C 
BRANCH   2   3
HETATM    3  C13   D T 401      14.999  16.598   2.944  1.00 52.85     0.143 C 
BRANCH   3   4
HETATM    4  C12   D T 401      14.212  15.314   3.090  1.00 51.97     0.119 C 
BRANCH   4   5
HETATM    5  N11   D T 401      12.873  15.460   2.560  1.00 54.53    -0.329 N 
HETATM    6  C10   D T 401      11.940  16.177   3.167  1.00 57.55     0.361 C 
HETATM    7  O24   D T 401      12.110  16.760   4.226  1.00 50.79    -0.238 OA
HETATM    8  H11   D T 401      12.653  14.991   1.694  1.00 65.46     0.165 HD
BRANCH   6   9
HETATM    9  O7    D T 401      10.655  16.247   2.519  1.00 56.36    -0.299 OA
BRANCH   9  10
HETATM   10  C6    D T 401      10.415  15.337   1.511  1.00 61.93     0.228 C 
BRANCH  10  11
HETATM   11  C2    D T 401       9.910  16.050   0.301  1.00 76.84     0.022 A 
HETATM   12  C1    D T 401       9.823  15.745  -1.046  1.00 77.89     0.128 A 
HETATM   13  N5    D T 401       9.262  16.768  -1.740  1.00 89.70    -0.282 NA
HETATM   14  C4    D T 401       8.911  17.839  -0.984  1.00 85.46     0.208 A 
HETATM   15  S3    D T 401       9.295  17.603   0.698  1.00 90.97    -0.100 SA
ENDBRANCH  10  11
ENDBRANCH   9  10
ENDBRANCH   6   9
ENDBRANCH   4   5
BRANCH   4  16
HETATM   16  C26   D T 401      14.899  14.175   2.334  1.00 53.54     0.066 C 
BRANCH  16  17
HETATM   17  C28   D T 401      14.099  12.936   2.600  1.00 51.74    -0.056 A 
HETATM   18  C31   D T 401      14.616  11.977   3.447  1.00 56.62     0.007 A 
HETATM   19  C32   D T 401      13.890  10.830   3.719  1.00 61.24     0.001 A 
HETATM   20  C33   D T 401      12.635  10.657   3.157  1.00 57.56     0.000 A 
HETATM   21  C34   D T 401      12.118  11.636   2.316  1.00 57.29     0.001 A 
HETATM   22  C35   D T 401      12.852  12.786   2.041  1.00 54.64     0.007 A 
ENDBRANCH  16  17
ENDBRANCH   4  16
ENDBRANCH   3   4
BRANCH   3  23
HETATM   23  O41   D T 401      14.393  17.437   1.937  1.00 46.89    -0.393 OA
HETATM   24  HO4   D T 401      14.788  18.319   1.971  1.00 56.30     0.210 HD
ENDBRANCH   3  23
ENDBRANCH   2   3
ENDBRANCH   1   2
BRANCH   1  25
HETATM   25  C44   D T 401      15.699  15.812   5.891  1.00 57.31     0.063 C 
BRANCH  25  26
HETATM   26  C45   D T 401      16.812  14.814   5.920  1.00 62.23    -0.056 A 
HETATM   27  C48   D T 401      17.899  15.028   6.747  1.00 68.40     0.007 A 
HETATM   28  C49   D T 401      18.926  14.093   6.778  1.00 68.89     0.001 A 
HETATM   29  C50   D T 401      18.860  12.953   5.985  1.00 70.95     0.000 A 
HETATM   30  C51   D T 401      17.763  12.746   5.159  1.00 69.71     0.001 A 
HETATM   31  C52   D T 401      16.732  13.680   5.129  1.00 63.86     0.007 A 
ENDBRANCH  25  26
ENDBRANCH   1  25
BRANCH   1  32
HETATM   32  N58   D T 401      16.461  18.122   6.107  1.00 57.14    -0.354 N 
HETATM   33  C18   D T 401      17.214  19.136   5.691  1.00 63.33     0.241 C 
HETATM   34  O61   D T 401      17.584  19.193   4.533  1.00 56.06    -0.271 OA
HETATM   35  H58   D T 401      16.098  18.081   7.048  1.00 68.60     0.162 HD
BRANCH  33  36
HETATM   36  C19   D T 401      17.616  20.198   6.657  1.00 62.97     0.181 C 
BRANCH  36  37
HETATM   37  N20   D T 401      19.042  20.293   6.985  1.00 62.86    -0.329 N 
HETATM   38  C21   D T 401      19.927  20.768   6.138  1.00 67.85     0.319 C 
HETATM   39  N74   D T 401      21.066  21.245   6.598  1.00 70.47    -0.333 N 
HETATM   40  O76   D T 401      19.690  20.811   4.952  1.00 58.01    -0.247 OA
HETATM   41  C95   D T 401      21.622  20.968   7.902  1.00 68.34     0.154 C 
HETATM   42  H20   D T 401      19.342  19.979   7.897  1.00 75.47     0.165 HD
BRANCH  39  43
HETATM   43  C75   D T 401      21.873  22.145   5.778  1.00 68.98     0.183 C 
BRANCH  43  44
HETATM   44  C77   D T 401      23.141  21.385   5.535  1.00 78.58     0.047 A 
HETATM   45  C80   D T 401      24.245  21.533   6.354  1.00 85.18     0.122 A 
HETATM   46  S81   D T 401      25.570  20.554   5.830  1.00 94.63    -0.102 SA
HETATM   47  C82   D T 401      24.565  20.020   4.536  1.00 83.84     0.075 A 
HETATM   48  N83   D T 401      23.336  20.549   4.511  1.00 84.20    -0.252 NA
BRANCH  47  49
HETATM   49  C85   D T 401      25.199  19.055   3.642  1.00 85.08     0.036 C 
HETATM   50  C86   D T 401      24.706  19.347   2.279  1.00 89.40     0.016 C 
HETATM   51  C90   D T 401      26.690  19.078   3.866  1.00 90.17     0.016 C 
ENDBRANCH  47  49
ENDBRANCH  43  44
ENDBRANCH  39  43
ENDBRANCH  36  37
BRANCH  36  52
HETATM   52  C62   D T 401      17.351  21.552   5.990  1.00 69.84     0.009 C 
HETATM   53  C64   D T 401      15.889  21.766   5.650  1.00 64.64     0.012 C 
HETATM   54  C68   D T 401      17.847  22.692   6.875  1.00 69.88     0.012 C 
ENDBRANCH  36  52
ENDBRANCH  33  36
ENDBRANCH   1  32
TORSDOF 19
ENDMDL
MODEL 6
REMARK VINA RESULT:      -4.9      3.618      6.512
REMARK  19 active torsions:
REMARK  status: ('A' for Active; 'I' for Inactive)
REMARK    1  A    between atoms: C2_2  and  C6_6 
REMARK    2  A    between atoms: C6_6  and  O7_7 
REMARK    3  A    between atoms: O7_7  and  C10_8 
REMARK       I    between atoms: C10_8  and  N11_10 
REMARK    4  A    between atoms: N11_10  and  C12_11 
REMARK    5  A    between atoms: C12_11  and  C13_12 
REMARK    6  A    between atoms: C12_11  and  C26_15 
REMARK    7  A    between atoms: C13_12  and  C14_13 
REMARK    8  A    between atoms: C13_12  and  O41_22 
REMARK    9  A    between atoms: C14_13  and  C15_14 
REMARK   10  A    between atoms: C15_14  and  C44_23 
REMARK   11  A    between atoms: C15_14  and  N58_30 
REMARK   12  A    between atoms: C26_15  and  C28_16 
REMARK   13  A    between atoms: C44_23  and  C45_24 
REMARK       I    between atoms: N58_30  and  C18_33 
REMARK   14  A    between atoms: N20_31  and  C19_32 
REMARK       I    between atoms: N20_31  and  C21_38 
REMARK   15  A    between atoms: C19_32  and  C18_33 
REMARK   16  A    between atoms: C19_32  and  C62_35 
REMARK       I    between atoms: C21_38  and  N74_39 
REMARK   17  A    between atoms: N74_39  and  C75_40 
REMARK   18  A    between atoms: C75_40  and  C77_42 
REMARK   19  A    between atoms: C82_45  and  C85_47 
ROOT
HETATM    1  C15   D T 401      14.347  13.996   2.692  1.00 55.13     0.091 C 
ENDROOT
BRANCH   1   2
HETATM    2  C14   D T 401      13.175  14.704   2.021  1.00 56.49     0.059 C 
BRANCH   2   3
HETATM    3  C13   D T 401      13.084  16.186   2.349  1.00 52.85     0.143 C 
BRANCH   3   4
HETATM    4  C12   D T 401      12.367  16.458   3.654  1.00 51.97     0.119 C 
BRANCH   4   5
HETATM    5  N11   D T 401      12.312  17.878   3.933  1.00 54.53    -0.329 N 
HETATM    6  C10   D T 401      12.432  18.370   5.155  1.00 57.55     0.361 C 
HETATM    7  O24   D T 401      12.580  17.684   6.154  1.00 50.79    -0.238 OA
HETATM    8  H11   D T 401      12.175  18.507   3.155  1.00 65.46     0.165 HD
BRANCH   6   9
HETATM    9  O7    D T 401      12.372  19.804   5.283  1.00 56.36    -0.299 OA
BRANCH   9  10
HETATM   10  C6    D T 401      11.494  20.310   6.218  1.00 61.93     0.228 C 
BRANCH  10  11
HETATM   11  C2    D T 401      10.698  21.417   5.612  1.00 76.84     0.022 A 
HETATM   12  C1    D T 401       9.347  21.676   5.454  1.00 77.89     0.128 A 
HETATM   13  N5    D T 401       9.151  22.860   4.821  1.00 89.70    -0.282 NA
HETATM   14  C4    D T 401      10.290  23.521   4.490  1.00 85.46     0.208 A 
HETATM   15  S3    D T 401      11.715  22.644   4.973  1.00 90.97    -0.100 SA
ENDBRANCH  10  11
ENDBRANCH   9  10
ENDBRANCH   6   9
ENDBRANCH   4   5
BRANCH   4  16
HETATM   16  C26   D T 401      10.933  15.929   3.599  1.00 53.54     0.066 C 
BRANCH  16  17
HETATM   17  C28   D T 401      10.513  15.970   2.161  1.00 51.74    -0.056 A 
HETATM   18  C31   D T 401      10.551  14.805   1.422  1.00 56.62     0.007 A 
HETATM   19  C32   D T 401      10.156  14.815   0.095  1.00 61.24     0.001 A 
HETATM   20  C33   D T 401       9.701  15.991  -0.482  1.00 57.56     0.000 A 
HETATM   21  C34   D T 401       9.654  17.155   0.276  1.00 57.29     0.001 A 
HETATM   22  C35   D T 401      10.056  17.143   1.608  1.00 54.64     0.007 A 
ENDBRANCH  16  17
ENDBRANCH   4  16
ENDBRANCH   3   4
BRANCH   3  23
HETATM   23  O41   D T 401      14.445  16.664   2.424  1.00 46.89    -0.393 OA
HETATM   24  HO4   D T 401      14.980  16.220   1.752  1.00 56.30     0.210 HD
ENDBRANCH   3  23
ENDBRANCH   2   3
ENDBRANCH   1   2
BRANCH   1  25
HETATM   25  C44   D T 401      13.707  12.968   3.617  1.00 57.31     0.063 C 
BRANCH  25  26
HETATM   26  C45   D T 401      13.075  11.891   2.794  1.00 62.23    -0.056 A 
HETATM   27  C48   D T 401      11.796  12.073   2.301  1.00 68.40     0.007 A 
HETATM   28  C49   D T 401      11.215  11.073   1.530  1.00 68.89     0.001 A 
HETATM   29  C50   D T 401      11.914   9.903   1.257  1.00 70.95     0.000 A 
HETATM   30  C51   D T 401      13.199   9.731   1.756  1.00 69.71     0.001 A 
HETATM   31  C52   D T 401      13.783  10.732   2.526  1.00 63.86     0.007 A 
ENDBRANCH  25  26
ENDBRANCH   1  25
BRANCH   1  32
HETATM   32  N58   D T 401      15.185  14.903   3.442  1.00 57.14    -0.354 N 
HETATM   33  C18   D T 401      16.468  14.583   3.595  1.00 63.33     0.241 C 
HETATM   34  O61   D T 401      16.921  13.588   3.060  1.00 56.06    -0.271 OA
HETATM   35  H58   D T 401      14.800  15.751   3.833  1.00 68.60     0.162 HD
BRANCH  33  36
HETATM   36  C19   D T 401      17.344  15.443   4.440  1.00 62.97     0.181 C 
BRANCH  36  37
HETATM   37  N20   D T 401      17.306  16.886   4.183  1.00 62.86    -0.329 N 
HETATM   38  C21   D T 401      16.525  17.699   4.857  1.00 67.85     0.319 C 
HETATM   39  N74   D T 401      16.830  18.980   4.920  1.00 70.47    -0.333 N 
HETATM   40  O76   D T 401      15.558  17.279   5.453  1.00 58.01    -0.247 OA
HETATM   41  C95   D T 401      17.725  19.670   4.020  1.00 68.34     0.154 C 
HETATM   42  H20   D T 401      17.907  17.256   3.460  1.00 75.47     0.165 HD
BRANCH  39  43
HETATM   43  C75   D T 401      16.262  19.822   5.969  1.00 68.98     0.183 C 
BRANCH  43  44
HETATM   44  C77   D T 401      17.387  20.731   6.360  1.00 78.58     0.047 A 
HETATM   45  C80   D T 401      18.496  20.264   7.042  1.00 85.18     0.122 A 
HETATM   46  S81   D T 401      19.623  21.530   7.381  1.00 94.63    -0.102 SA
HETATM   47  C82   D T 401      18.529  22.609   6.602  1.00 83.84     0.075 A 
HETATM   48  N83   D T 401      17.408  22.048   6.134  1.00 84.20    -0.252 NA
BRANCH  47  49
HETATM   49  C85   D T 401      18.983  23.996   6.558  1.00 85.08     0.036 C 
HETATM   50  C86   D T 401      17.834  24.808   6.104  1.00 89.40     0.016 C 
HETATM   51  C90   D T 401      19.612  24.353   7.881  1.00 90.17     0.016 C 
ENDBRANCH  47  49
ENDBRANCH  43  44
ENDBRANCH  39  43
ENDBRANCH  36  37
BRANCH  36  52
HETATM   52  C62   D T 401      16.821  15.361   5.878  1.00 69.84     0.009 C 
HETATM   53  C64   D T 401      15.704  14.349   6.043  1.00 64.64     0.012 C 
HETATM   54  C68   D T 401      17.956  15.038   6.845  1.00 69.88     0.012 C 
ENDBRANCH  36  52
ENDBRANCH  33  36
ENDBRANCH   1  32
TORSDOF 19
ENDMDL
MODEL 7
REMARK VINA RESULT:      -4.6      2.591      4.383
REMARK  19 active torsions:
REMARK  status: ('A' for Active; 'I' for Inactive)
REMARK    1  A    between atoms: C2_2  and  C6_6 
REMARK    2  A    between atoms: C6_6  and  O7_7 
REMARK    3  A    between atoms: O7_7  and  C10_8 
REMARK       I    between atoms: C10_8  and  N11_10 
REMARK    4  A    between atoms: N11_10  and  C12_11 
REMARK    5  A    between atoms: C12_11  and  C13_12 
REMARK    6  A    between atoms: C12_11  and  C26_15 
REMARK    7  A    between atoms: C13_12  and  C14_13 
REMARK    8  A    between atoms: C13_12  and  O41_22 
REMARK    9  A    between atoms: C14_13  and  C15_14 
REMARK   10  A    between atoms: C15_14  and  C44_23 
REMARK   11  A    between atoms: C15_14  and  N58_30 
REMARK   12  A    between atoms: C26_15  and  C28_16 
REMARK   13  A    between atoms: C44_23  and  C45_24 
REMARK       I    between atoms: N58_30  and  C18_33 
REMARK   14  A    between atoms: N20_31  and  C19_32 
REMARK       I    between atoms: N20_31  and  C21_38 
REMARK   15  A    between atoms: C19_32  and  C18_33 
REMARK   16  A    between atoms: C19_32  and  C62_35 
REMARK       I    between atoms: C21_38  and  N74_39 
REMARK   17  A    between atoms: N74_39  and  C75_40 
REMARK   18  A    between atoms: C75_40  and  C77_42 
REMARK   19  A    between atoms: C82_45  and  C85_47 
ROOT
HETATM    1  C15   D T 401      16.673  17.198   5.357  1.00 55.13     0.091 C 
ENDROOT
BRANCH   1   2
HETATM    2  C14   D T 401      15.671  17.316   4.213  1.00 56.49     0.059 C 
BRANCH   2   3
HETATM    3  C13   D T 401      15.543  16.052   3.376  1.00 52.85     0.143 C 
BRANCH   3   4
HETATM    4  C12   D T 401      14.192  15.922   2.706  1.00 51.97     0.119 C 
BRANCH   4   5
HETATM    5  N11   D T 401      13.925  14.549   2.334  1.00 54.53    -0.329 N 
HETATM    6  C10   D T 401      13.979  13.552   3.202  1.00 57.55     0.361 C 
HETATM    7  O24   D T 401      14.274  13.688   4.378  1.00 50.79    -0.238 OA
HETATM    8  H11   D T 401      13.690  14.357   1.371  1.00 65.46     0.165 HD
BRANCH   6   9
HETATM    9  O7    D T 401      13.676  12.237   2.695  1.00 56.36    -0.299 OA
BRANCH   9  10
HETATM   10  C6    D T 401      13.728  11.195   3.597  1.00 61.93     0.228 C 
BRANCH  10  11
HETATM   11  C2    D T 401      15.151  10.834   3.865  1.00 76.84     0.022 A 
HETATM   12  C1    D T 401      15.949  10.785   4.995  1.00 77.89     0.128 A 
HETATM   13  N5    D T 401      17.205  10.376   4.684  1.00 89.70    -0.282 NA
HETATM   14  C4    D T 401      17.403  10.106   3.369  1.00 85.46     0.208 A 
HETATM   15  S3    D T 401      15.964  10.374   2.425  1.00 90.97    -0.100 SA
ENDBRANCH  10  11
ENDBRANCH   9  10
ENDBRANCH   6   9
ENDBRANCH   4   5
BRANCH   4  16
HETATM   16  C26   D T 401      13.079  16.383   3.649  1.00 53.54     0.066 C 
BRANCH  16  17
HETATM   17  C28   D T 401      11.783  15.967   3.023  1.00 51.74    -0.056 A 
HETATM   18  C31   D T 401      11.120  14.868   3.531  1.00 56.62     0.007 A 
HETATM   19  C32   D T 401       9.915  14.471   2.978  1.00 61.24     0.001 A 
HETATM   20  C33   D T 401       9.365  15.192   1.930  1.00 57.56     0.000 A 
HETATM   21  C34   D T 401      10.034  16.306   1.436  1.00 57.29     0.001 A 
HETATM   22  C35   D T 401      11.248  16.699   1.990  1.00 54.64     0.007 A 
ENDBRANCH  16  17
ENDBRANCH   4  16
ENDBRANCH   3   4
BRANCH   3  23
HETATM   23  O41   D T 401      16.585  16.127   2.378  1.00 46.89    -0.393 OA
HETATM   24  HO4   D T 401      17.446  16.003   2.800  1.00 56.30     0.210 HD
ENDBRANCH   3  23
ENDBRANCH   2   3
ENDBRANCH   1   2
BRANCH   1  25
HETATM   25  C44   D T 401      16.225  15.975   6.147  1.00 57.31     0.063 C 
BRANCH  25  26
HETATM   26  C45   D T 401      17.387  15.052   6.327  1.00 62.23    -0.056 A 
HETATM   27  C48   D T 401      18.216  15.205   7.423  1.00 68.40     0.007 A 
HETATM   28  C49   D T 401      19.290  14.339   7.592  1.00 68.89     0.001 A 
HETATM   29  C50   D T 401      19.527  13.329   6.667  1.00 70.95     0.000 A 
HETATM   30  C51   D T 401      18.687  13.182   5.570  1.00 69.71     0.001 A 
HETATM   31  C52   D T 401      17.610  14.047   5.401  1.00 63.86     0.007 A 
ENDBRANCH  25  26
ENDBRANCH   1  25
BRANCH   1  32
HETATM   32  N58   D T 401      16.690  18.372   6.201  1.00 57.14    -0.354 N 
HETATM   33  C18   D T 401      17.388  19.425   5.786  1.00 63.33     0.241 C 
HETATM   34  O61   D T 401      17.937  19.411   4.700  1.00 56.06    -0.271 OA
HETATM   35  H58   D T 401      16.183  18.381   7.074  1.00 68.60     0.162 HD
BRANCH  33  36
HETATM   36  C19   D T 401      17.508  20.620   6.669  1.00 62.97     0.181 C 
BRANCH  36  37
HETATM   37  N20   D T 401      18.858  20.991   7.106  1.00 62.86    -0.329 N 
HETATM   38  C21   D T 401      19.881  21.015   6.282  1.00 67.85     0.319 C 
HETATM   39  N74   D T 401      20.930  21.755   6.581  1.00 70.47    -0.333 N 
HETATM   40  O76   D T 401      19.851  20.404   5.238  1.00 58.01    -0.247 OA
HETATM   41  C95   D T 401      21.250  22.258   7.897  1.00 68.34     0.154 C 
HETATM   42  H20   D T 401      18.993  21.234   8.077  1.00 75.47     0.165 HD
BRANCH  39  43
HETATM   43  C75   D T 401      21.877  22.147   5.540  1.00 68.98     0.183 C 
BRANCH  43  44
HETATM   44  C77   D T 401      23.084  21.299   5.802  1.00 78.58     0.047 A 
HETATM   45  C80   D T 401      23.324  20.740   7.044  1.00 85.18     0.122 A 
HETATM   46  S81   D T 401      24.794  19.831   7.068  1.00 94.63    -0.102 SA
HETATM   47  C82   D T 401      25.003  20.272   5.415  1.00 83.84     0.075 A 
HETATM   48  N83   D T 401      24.040  21.046   4.903  1.00 84.20    -0.252 NA
BRANCH  47  49
HETATM   49  C85   D T 401      26.213  19.734   4.799  1.00 85.08     0.036 C 
HETATM   50  C86   D T 401      26.764  18.735   5.741  1.00 89.40     0.016 C 
HETATM   51  C90   D T 401      25.894  19.274   3.400  1.00 90.17     0.016 C 
ENDBRANCH  47  49
ENDBRANCH  43  44
ENDBRANCH  39  43
ENDBRANCH  36  37
BRANCH  36  52
HETATM   52  C62   D T 401      17.093  21.845   5.846  1.00 69.84     0.009 C 
HETATM   53  C64   D T 401      15.601  21.897   5.578  1.00 64.64     0.012 C 
HETATM   54  C68   D T 401      17.538  23.131   6.535  1.00 69.88     0.012 C 
ENDBRANCH  36  52
ENDBRANCH  33  36
ENDBRANCH   1  32
TORSDOF 19
ENDMDL
