MODEL 1
REMARK VINA RESULT:      -8.6      0.000      0.000
REMARK  7 active torsions:
REMARK  status: ('A' for Active; 'I' for Inactive)
REMARK    1  A    between atoms: C13_1  and  C25_22 
REMARK    2  A    between atoms: C17_3  and  C14_7 
REMARK    3  A    between atoms: C17_3  and  N18_34 
REMARK    4  A    between atoms: C11_5  and  N10_10 
REMARK       I    between atoms: N10_10  and  C08_18 
REMARK    5  A    between atoms: C03_13  and  C29_23 
REMARK    6  A    between atoms: C05_15  and  C08_18 
REMARK    7  A    between atoms: C30_24  and  C31_25 
ROOT
HETATM    1  N10   D T2601      17.468  19.137   5.664  1.00 11.81    -0.208 NA
HETATM    2  C08   D T2601      17.271  20.574   5.871  1.00  5.67     0.279 C 
HETATM    3  O09   D T2601      16.271  21.112   5.642  1.00  9.79    -0.265 OA
ENDROOT
BRANCH   2   4
HETATM    4  C05   D T2601      18.344  21.498   6.434  1.00  3.60     0.059 A 
HETATM    5  C04   D T2601      19.634  21.048   6.358  1.00  5.11     0.013 A 
HETATM    6  C03   D T2601      20.629  21.849   6.835  1.00  7.74     0.038 A 
HETATM    7  C02   D T2601      20.368  23.077   7.381  1.00  9.17    -0.014 A 
HETATM    8  C01   D T2601      21.506  23.925   7.902  1.00 11.30     0.032 C 
HETATM    9  C07   D T2601      19.074  23.527   7.448  1.00 16.89    -0.004 A 
HETATM   10  C06   D T2601      18.051  22.731   6.965  1.00 11.92     0.004 A 
BRANCH   6  11
HETATM   11  C29   D T2601      22.061  21.378   6.772  1.00  7.67    -0.060 C 
HETATM   12  C30   D T2601      23.173  20.997   6.730  1.00  4.53    -0.058 C 
BRANCH  12  13
HETATM   13  C31   D T2601      24.598  20.490   6.664  1.00  1.76     0.061 A 
HETATM   14  C32   D T2601      25.082  19.815   5.581  1.00  3.61     0.015 A 
HETATM   15  C33   D T2601      26.343  19.425   5.658  1.00  5.57     0.059 A 
HETATM   16  C34   D T2601      27.146  19.684   6.774  1.00  6.17     0.185 A 
HETATM   17  C37   D T2601      27.306  18.729   4.864  1.00  9.96     0.125 A 
HETATM   18  N35   D T2601      28.360  19.085   6.364  1.00  3.26    -0.129 NA
HETATM   19  N38   D T2601      26.709  20.322   7.828  1.00 12.99    -0.223 NA
HETATM   20  N36   D T2601      28.492  18.503   5.214  1.00  6.50    -0.145 NA
HETATM   21  C39   D T2601      25.414  20.743   7.789  1.00  5.57     0.109 A 
ENDBRANCH  12  13
ENDBRANCH   6  11
ENDBRANCH   2   4
BRANCH   1  22
HETATM   22  C11   D T2601      16.396  18.260   5.125  1.00 11.94     0.085 A 
HETATM   23  C12   D T2601      15.077  18.628   5.240  1.00  8.64     0.023 A 
HETATM   24  C13   D T2601      14.035  17.842   4.765  1.00  5.16     0.074 A 
HETATM   25  C14   D T2601      14.311  16.612   4.119  1.00  9.71     0.016 A 
HETATM   26  C15   D T2601      15.658  16.269   3.981  1.00  7.63     0.003 A 
HETATM   27  C16   D T2601      16.687  17.071   4.490  1.00  5.68     0.019 A 
BRANCH  24  28
HETATM   28  C25   D T2601      12.627  18.356   4.968  1.00  8.83     0.419 C 
HETATM   29  F26   D T2601      11.976  17.603   5.878  1.00 15.45    -0.166 F 
HETATM   30  F27   D T2601      12.684  19.617   5.420  1.00  6.64    -0.166 F 
HETATM   31  F28   D T2601      12.002  18.352   3.777  1.00 29.12    -0.166 F 
ENDBRANCH  24  28
BRANCH  25  32
HETATM   32  C17   D T2601      13.130  15.740   3.536  1.00 12.70     0.051 C 
BRANCH  32  33
HETATM   33  N18   D T2601      13.357  14.507   3.057  1.00 13.52    -0.228 NA
HETATM   34  C19   D T2601      13.912  13.767   3.972  1.00 14.71     0.099 C 
HETATM   35  C20   D T2601      14.158  12.308   3.557  1.00  4.84     0.095 C 
HETATM   36  N21   D T2601      13.052  11.797   3.080  1.00  2.05    -0.248 NA
HETATM   37  C22   D T2601      12.763  12.545   2.070  1.00  7.08     0.060 C 
HETATM   38  C24   D T2601      13.255  10.591   2.653  1.00  7.31     0.094 C 
HETATM   39  C23   D T2601      12.342  13.916   2.555  1.00 11.65     0.063 C 
ENDBRANCH  32  33
ENDBRANCH  25  32
ENDBRANCH   1  22
TORSDOF 7
ENDMDL
MODEL 2
REMARK VINA RESULT:      -8.1      2.006      2.609
REMARK  7 active torsions:
REMARK  status: ('A' for Active; 'I' for Inactive)
REMARK    1  A    between atoms: C13_1  and  C25_22 
REMARK    2  A    between atoms: C17_3  and  C14_7 
REMARK    3  A    between atoms: C17_3  and  N18_34 
REMARK    4  A    between atoms: C11_5  and  N10_10 
REMARK       I    between atoms: N10_10  and  C08_18 
REMARK    5  A    between atoms: C03_13  and  C29_23 
REMARK    6  A    between atoms: C05_15  and  C08_18 
REMARK    7  A    between atoms: C30_24  and  C31_25 
ROOT
HETATM    1  N10   D T2601      17.566  19.312   5.590  1.00 11.81    -0.208 NA
HETATM    2  C08   D T2601      17.479  20.692   6.072  1.00  5.67     0.279 C 
HETATM    3  O09   D T2601      16.472  21.231   6.261  1.00  9.79    -0.265 OA
ENDROOT
BRANCH   2   4
HETATM    4  C05   D T2601      18.697  21.546   6.402  1.00  3.60     0.059 A 
HETATM    5  C04   D T2601      19.918  20.997   6.120  1.00  5.11     0.013 A 
HETATM    6  C03   D T2601      21.037  21.733   6.384  1.00  7.74     0.038 A 
HETATM    7  C02   D T2601      20.963  22.991   6.918  1.00  9.17    -0.014 A 
HETATM    8  C01   D T2601      22.232  23.763   7.199  1.00 11.30     0.032 C 
HETATM    9  C07   D T2601      19.736  23.539   7.192  1.00 16.89    -0.004 A 
HETATM   10  C06   D T2601      18.591  22.811   6.927  1.00 11.92     0.004 A 
BRANCH   6  11
HETATM   11  C29   D T2601      22.398  21.152   6.089  1.00  7.67    -0.060 C 
HETATM   12  C30   D T2601      23.453  20.686   5.865  1.00  4.53    -0.058 C 
BRANCH  12  13
HETATM   13  C31   D T2601      24.803  20.071   5.563  1.00  1.76     0.061 A 
HETATM   14  C32   D T2601      25.181  19.729   4.297  1.00  3.61     0.015 A 
HETATM   15  C33   D T2601      26.386  19.197   4.176  1.00  5.57     0.059 A 
HETATM   16  C34   D T2601      27.235  18.995   5.269  1.00  6.17     0.185 A 
HETATM   17  C37   D T2601      27.242  18.688   3.149  1.00  9.96     0.125 A 
HETATM   18  N35   D T2601      28.358  18.428   4.623  1.00  3.26    -0.129 NA
HETATM   19  N38   D T2601      26.898  19.307   6.493  1.00 12.99    -0.223 NA
HETATM   20  N36   D T2601      28.396  18.232   3.343  1.00  6.50    -0.145 NA
HETATM   21  C39   D T2601      25.666  19.859   6.662  1.00  5.57     0.109 A 
ENDBRANCH  12  13
ENDBRANCH   6  11
ENDBRANCH   2   4
BRANCH   1  22
HETATM   22  C11   D T2601      16.358  18.500   5.289  1.00 11.94     0.085 A 
HETATM   23  C12   D T2601      16.466  17.144   5.093  1.00  8.64     0.023 A 
HETATM   24  C13   D T2601      15.372  16.339   4.798  1.00  5.16     0.074 A 
HETATM   25  C14   D T2601      14.078  16.908   4.701  1.00  9.71     0.016 A 
HETATM   26  C15   D T2601      13.981  18.282   4.936  1.00  7.63     0.003 A 
HETATM   27  C16   D T2601      15.105  19.071   5.210  1.00  5.68     0.019 A 
BRANCH  24  28
HETATM   28  C25   D T2601      15.630  14.863   4.591  1.00  8.83     0.419 C 
HETATM   29  F26   D T2601      14.725  14.126   5.268  1.00 15.45    -0.166 F 
HETATM   30  F27   D T2601      15.518  14.580   3.285  1.00  6.64    -0.166 F 
HETATM   31  F28   D T2601      16.888  14.597   4.985  1.00 29.12    -0.166 F 
ENDBRANCH  24  28
BRANCH  25  32
HETATM   32  C17   D T2601      12.828  15.987   4.413  1.00 12.70     0.051 C 
BRANCH  32  33
HETATM   33  N18   D T2601      12.391  15.792   3.159  1.00 13.52    -0.228 NA
HETATM   34  C19   D T2601      12.297  14.519   2.911  1.00 14.71     0.099 C 
HETATM   35  C20   D T2601      11.741  14.173   1.521  1.00  4.84     0.095 C 
HETATM   36  N21   D T2601      10.621  14.822   1.325  1.00  2.05    -0.248 NA
HETATM   37  C22   D T2601      10.951  16.065   1.419  1.00  7.08     0.060 C 
HETATM   38  C24   D T2601      10.173  14.605   0.129  1.00  7.31     0.094 C 
HETATM   39  C23   D T2601      11.305  16.391   2.854  1.00 11.65     0.063 C 
ENDBRANCH  32  33
ENDBRANCH  25  32
ENDBRANCH   1  22
TORSDOF 7
ENDMDL
MODEL 3
REMARK VINA RESULT:      -8.1      1.422      1.782
REMARK  7 active torsions:
REMARK  status: ('A' for Active; 'I' for Inactive)
REMARK    1  A    between atoms: C13_1  and  C25_22 
REMARK    2  A    between atoms: C17_3  and  C14_7 
REMARK    3  A    between atoms: C17_3  and  N18_34 
REMARK    4  A    between atoms: C11_5  and  N10_10 
REMARK       I    between atoms: N10_10  and  C08_18 
REMARK    5  A    between atoms: C03_13  and  C29_23 
REMARK    6  A    between atoms: C05_15  and  C08_18 
REMARK    7  A    between atoms: C30_24  and  C31_25 
ROOT
HETATM    1  N10   D T2601      17.621  19.515   5.531  1.00 11.81    -0.208 NA
HETATM    2  C08   D T2601      17.606  20.857   6.120  1.00  5.67     0.279 C 
HETATM    3  O09   D T2601      16.629  21.408   6.408  1.00  9.79    -0.265 OA
ENDROOT
BRANCH   2   4
HETATM    4  C05   D T2601      18.868  21.648   6.440  1.00  3.60     0.059 A 
HETATM    5  C04   D T2601      20.056  21.060   6.101  1.00  5.11     0.013 A 
HETATM    6  C03   D T2601      21.212  21.740   6.354  1.00  7.74     0.038 A 
HETATM    7  C02   D T2601      21.207  22.981   6.932  1.00  9.17    -0.014 A 
HETATM    8  C01   D T2601      22.515  23.691   7.199  1.00 11.30     0.032 C 
HETATM    9  C07   D T2601      20.013  23.569   7.264  1.00 16.89    -0.004 A 
HETATM   10  C06   D T2601      18.831  22.898   7.010  1.00 11.92     0.004 A 
BRANCH   6  11
HETATM   11  C29   D T2601      22.538  21.115   5.998  1.00  7.67    -0.060 C 
HETATM   12  C30   D T2601      23.567  20.615   5.728  1.00  4.53    -0.058 C 
BRANCH  12  13
HETATM   13  C31   D T2601      24.881  19.956   5.368  1.00  1.76     0.061 A 
HETATM   14  C32   D T2601      25.246  19.715   4.074  1.00  3.61     0.015 A 
HETATM   15  C33   D T2601      26.419  19.129   3.903  1.00  5.57     0.059 A 
HETATM   16  C34   D T2601      27.249  18.775   4.972  1.00  6.17     0.185 A 
HETATM   17  C37   D T2601      27.250  18.673   2.832  1.00  9.96     0.125 A 
HETATM   18  N35   D T2601      28.342  18.208   4.275  1.00  3.26    -0.129 NA
HETATM   19  N38   D T2601      26.924  18.986   6.220  1.00 12.99    -0.223 NA
HETATM   20  N36   D T2601      28.375  18.135   2.982  1.00  6.50    -0.145 NA
HETATM   21  C39   D T2601      25.724  19.590   6.441  1.00  5.57     0.109 A 
ENDBRANCH  12  13
ENDBRANCH   6  11
ENDBRANCH   2   4
BRANCH   1  22
HETATM   22  C11   D T2601      16.371  18.764   5.242  1.00 11.94     0.085 A 
HETATM   23  C12   D T2601      15.147  19.334   5.493  1.00  8.64     0.023 A 
HETATM   24  C13   D T2601      13.948  18.674   5.252  1.00  5.16     0.074 A 
HETATM   25  C14   D T2601      13.955  17.362   4.717  1.00  9.71     0.016 A 
HETATM   26  C15   D T2601      15.208  16.810   4.437  1.00  7.63     0.003 A 
HETATM   27  C16   D T2601      16.400  17.491   4.711  1.00  5.68     0.019 A 
BRANCH  24  28
HETATM   28  C25   D T2601      12.669  19.409   5.585  1.00  8.83     0.419 C 
HETATM   29  F26   D T2601      12.038  18.817   6.619  1.00 15.45    -0.166 F 
HETATM   30  F27   D T2601      12.968  20.669   5.933  1.00  6.64    -0.166 F 
HETATM   31  F28   D T2601      11.901  19.437   4.481  1.00 29.12    -0.166 F 
ENDBRANCH  24  28
BRANCH  25  32
HETATM   32  C17   D T2601      12.594  16.628   4.399  1.00 12.70     0.051 C 
BRANCH  32  33
HETATM   33  N18   D T2601      12.372  16.081   3.194  1.00 13.52    -0.228 NA
HETATM   34  C19   D T2601      12.614  14.803   3.231  1.00 14.71     0.099 C 
HETATM   35  C20   D T2601      12.330  14.056   1.919  1.00  4.84     0.095 C 
HETATM   36  N21   D T2601      11.120  14.341   1.508  1.00  2.05    -0.248 NA
HETATM   37  C22   D T2601      11.131  15.619   1.343  1.00  7.08     0.060 C 
HETATM   38  C24   D T2601      10.886  13.782   0.362  1.00  7.31     0.094 C 
HETATM   39  C23   D T2601      11.220  16.305   2.690  1.00 11.65     0.063 C 
ENDBRANCH  32  33
ENDBRANCH  25  32
ENDBRANCH   1  22
TORSDOF 7
ENDMDL
MODEL 4
REMARK VINA RESULT:      -8.1      4.838     12.398
REMARK  7 active torsions:
REMARK  status: ('A' for Active; 'I' for Inactive)
REMARK    1  A    between atoms: C13_1  and  C25_22 
REMARK    2  A    between atoms: C17_3  and  C14_7 
REMARK    3  A    between atoms: C17_3  and  N18_34 
REMARK    4  A    between atoms: C11_5  and  N10_10 
REMARK       I    between atoms: N10_10  and  C08_18 
REMARK    5  A    between atoms: C03_13  and  C29_23 
REMARK    6  A    between atoms: C05_15  and  C08_18 
REMARK    7  A    between atoms: C30_24  and  C31_25 
ROOT
HETATM    1  N10   D T2601      23.481  20.156   5.837  1.00 11.81    -0.208 NA
HETATM    2  C08   D T2601      23.117  21.450   6.421  1.00  5.67     0.279 C 
HETATM    3  O09   D T2601      23.901  22.238   6.743  1.00  9.79    -0.265 OA
ENDROOT
BRANCH   2   4
HETATM    4  C05   D T2601      21.678  21.901   6.633  1.00  3.60     0.059 A 
HETATM    5  C04   D T2601      20.702  21.025   6.244  1.00  5.11     0.013 A 
HETATM    6  C03   D T2601      19.398  21.381   6.431  1.00  7.74     0.038 A 
HETATM    7  C02   D T2601      19.051  22.580   6.992  1.00  9.17    -0.014 A 
HETATM    8  C01   D T2601      17.591  22.931   7.170  1.00 11.30     0.032 C 
HETATM    9  C07   D T2601      20.033  23.452   7.386  1.00 16.89    -0.004 A 
HETATM   10  C06   D T2601      21.360  23.107   7.210  1.00 11.92     0.004 A 
BRANCH   6  11
HETATM   11  C29   D T2601      18.299  20.438   6.005  1.00  7.67    -0.060 C 
HETATM   12  C30   D T2601      17.450  19.703   5.660  1.00  4.53    -0.058 C 
BRANCH  12  13
HETATM   13  C31   D T2601      16.371  18.740   5.211  1.00  1.76     0.061 A 
HETATM   14  C32   D T2601      15.053  19.092   5.166  1.00  3.61     0.015 A 
HETATM   15  C33   D T2601      14.216  18.152   4.759  1.00  5.57     0.059 A 
HETATM   16  C34   D T2601      14.642  16.872   4.389  1.00  6.17     0.185 A 
HETATM   17  C37   D T2601      12.815  17.982   4.531  1.00  9.96     0.125 A 
HETATM   18  N35   D T2601      13.405  16.279   4.041  1.00  3.26    -0.129 NA
HETATM   19  N38   D T2601      15.895  16.505   4.427  1.00 12.99    -0.223 NA
HETATM   20  N36   D T2601      12.283  16.923   4.113  1.00  6.50    -0.145 NA
HETATM   21  C39   D T2601      16.791  17.443   4.839  1.00  5.57     0.109 A 
ENDBRANCH  12  13
ENDBRANCH   6  11
ENDBRANCH   2   4
BRANCH   1  22
HETATM   22  C11   D T2601      24.895  19.750   5.630  1.00 11.94     0.085 A 
HETATM   23  C12   D T2601      25.333  19.375   4.383  1.00  8.64     0.023 A 
HETATM   24  C13   D T2601      26.640  18.976   4.135  1.00  5.16     0.074 A 
HETATM   25  C14   D T2601      27.588  18.955   5.188  1.00  9.71     0.016 A 
HETATM   26  C15   D T2601      27.135  19.370   6.443  1.00  7.63     0.003 A 
HETATM   27  C16   D T2601      25.805  19.747   6.667  1.00  5.68     0.019 A 
BRANCH  24  28
HETATM   28  C25   D T2601      26.989  18.575   2.719  1.00  8.83     0.419 C 
HETATM   29  F26   D T2601      27.388  17.288   2.677  1.00 15.45    -0.166 F 
HETATM   30  F27   D T2601      25.901  18.710   1.947  1.00  6.64    -0.166 F 
HETATM   31  F28   D T2601      27.943  19.410   2.269  1.00 29.12    -0.166 F 
ENDBRANCH  24  28
BRANCH  25  32
HETATM   32  C17   D T2601      29.086  18.547   4.898  1.00 12.70     0.051 C 
BRANCH  32  33
HETATM   33  N18   D T2601      29.842  17.984   5.853  1.00 13.52    -0.228 NA
HETATM   34  C19   D T2601      29.344  16.833   6.198  1.00 14.71     0.099 C 
HETATM   35  C20   D T2601      30.166  16.061   7.241  1.00  4.84     0.095 C 
HETATM   36  N21   D T2601      31.412  15.988   6.847  1.00  2.05    -0.248 NA
HETATM   37  C22   D T2601      31.789  17.216   6.746  1.00  7.08     0.060 C 
HETATM   38  C24   D T2601      32.141  15.408   7.748  1.00  7.31     0.094 C 
HETATM   39  C23   D T2601      31.084  17.871   5.577  1.00 11.65     0.063 C 
ENDBRANCH  32  33
ENDBRANCH  25  32
ENDBRANCH   1  22
TORSDOF 7
ENDMDL
MODEL 5
REMARK VINA RESULT:      -7.5      4.847     12.253
REMARK  7 active torsions:
REMARK  status: ('A' for Active; 'I' for Inactive)
REMARK    1  A    between atoms: C13_1  and  C25_22 
REMARK    2  A    between atoms: C17_3  and  C14_7 
REMARK    3  A    between atoms: C17_3  and  N18_34 
REMARK    4  A    between atoms: C11_5  and  N10_10 
REMARK       I    between atoms: N10_10  and  C08_18 
REMARK    5  A    between atoms: C03_13  and  C29_23 
REMARK    6  A    between atoms: C05_15  and  C08_18 
REMARK    7  A    between atoms: C30_24  and  C31_25 
ROOT
HETATM    1  N10   D T2601      23.398  20.543   5.673  1.00 11.81    -0.208 NA
HETATM    2  C08   D T2601      22.740  21.170   6.821  1.00  5.67     0.279 C 
HETATM    3  O09   D T2601      23.282  21.374   7.824  1.00  9.79    -0.265 OA
ENDROOT
BRANCH   2   4
HETATM    4  C05   D T2601      21.292  21.643   6.806  1.00  3.60     0.059 A 
HETATM    5  C04   D T2601      20.358  20.731   6.393  1.00  5.11     0.013 A 
HETATM    6  C03   D T2601      19.047  21.107   6.378  1.00  7.74     0.038 A 
HETATM    7  C02   D T2601      18.651  22.360   6.763  1.00  9.17    -0.014 A 
HETATM    8  C01   D T2601      17.185  22.730   6.721  1.00 11.30     0.032 C 
HETATM    9  C07   D T2601      19.590  23.268   7.182  1.00 16.89    -0.004 A 
HETATM   10  C06   D T2601      20.924  22.904   7.208  1.00 11.92     0.004 A 
BRANCH   6  11
HETATM   11  C29   D T2601      17.995  20.126   5.922  1.00  7.67    -0.060 C 
HETATM   12  C30   D T2601      17.167  19.373   5.561  1.00  4.53    -0.058 C 
BRANCH  12  13
HETATM   13  C31   D T2601      16.104  18.411   5.076  1.00  1.76     0.061 A 
HETATM   14  C32   D T2601      16.408  17.168   4.601  1.00  3.61     0.015 A 
HETATM   15  C33   D T2601      15.383  16.433   4.206  1.00  5.57     0.059 A 
HETATM   16  C34   D T2601      14.061  16.885   4.269  1.00  6.17     0.185 A 
HETATM   17  C37   D T2601      15.134  15.134   3.661  1.00  9.96     0.125 A 
HETATM   18  N35   D T2601      13.377  15.760   3.753  1.00  3.26    -0.129 NA
HETATM   19  N38   D T2601      13.740  18.072   4.712  1.00 12.99    -0.223 NA
HETATM   20  N36   D T2601      13.995  14.684   3.379  1.00  6.50    -0.145 NA
HETATM   21  C39   D T2601      14.766  18.862   5.131  1.00  5.57     0.109 A 
ENDBRANCH  12  13
ENDBRANCH   6  11
ENDBRANCH   2   4
BRANCH   1  22
HETATM   22  C11   D T2601      24.817  20.103   5.715  1.00 11.94     0.085 A 
HETATM   23  C12   D T2601      25.400  19.538   4.607  1.00  8.64     0.023 A 
HETATM   24  C13   D T2601      26.718  19.099   4.594  1.00  5.16     0.074 A 
HETATM   25  C14   D T2601      27.523  19.236   5.752  1.00  9.71     0.016 A 
HETATM   26  C15   D T2601      26.925  19.842   6.859  1.00  7.63     0.003 A 
HETATM   27  C16   D T2601      25.587  20.255   6.850  1.00  5.68     0.019 A 
BRANCH  24  28
HETATM   28  C25   D T2601      27.235  18.483   3.313  1.00  8.83     0.419 C 
HETATM   29  F26   D T2601      28.153  19.286   2.739  1.00 15.45    -0.166 F 
HETATM   30  F27   D T2601      27.815  17.308   3.597  1.00  6.64    -0.166 F 
HETATM   31  F28   D T2601      26.186  18.261   2.501  1.00 29.12    -0.166 F 
ENDBRANCH  24  28
BRANCH  25  32
HETATM   32  C17   D T2601      29.035  18.782   5.724  1.00 12.70     0.051 C 
BRANCH  32  33
HETATM   33  N18   D T2601      29.386  17.538   6.085  1.00 13.52    -0.228 NA
HETATM   34  C19   D T2601      30.646  17.336   5.830  1.00 14.71     0.099 C 
HETATM   35  C20   D T2601      31.179  15.962   6.265  1.00  4.84     0.095 C 
HETATM   36  N21   D T2601      30.865  15.749   7.517  1.00  2.05    -0.248 NA
HETATM   37  C22   D T2601      29.578  15.796   7.537  1.00  7.08     0.060 C 
HETATM   38  C24   D T2601      31.239  14.563   7.883  1.00  7.31     0.094 C 
HETATM   39  C23   D T2601      29.116  17.217   7.292  1.00 11.65     0.063 C 
ENDBRANCH  32  33
ENDBRANCH  25  32
ENDBRANCH   1  22
TORSDOF 7
ENDMDL
MODEL 6
REMARK VINA RESULT:      -7.3      2.329      2.980
REMARK  7 active torsions:
REMARK  status: ('A' for Active; 'I' for Inactive)
REMARK    1  A    between atoms: C13_1  and  C25_22 
REMARK    2  A    between atoms: C17_3  and  C14_7 
REMARK    3  A    between atoms: C17_3  and  N18_34 
REMARK    4  A    between atoms: C11_5  and  N10_10 
REMARK       I    between atoms: N10_10  and  C08_18 
REMARK    5  A    between atoms: C03_13  and  C29_23 
REMARK    6  A    between atoms: C05_15  and  C08_18 
REMARK    7  A    between atoms: C30_24  and  C31_25 
ROOT
HETATM    1  N10   D T2601      17.183  18.269   5.647  1.00 11.81    -0.208 NA
HETATM    2  C08   D T2601      16.743  19.666   5.622  1.00  5.67     0.279 C 
HETATM    3  O09   D T2601      15.688  19.987   5.269  1.00  9.79    -0.265 OA
ENDROOT
BRANCH   2   4
HETATM    4  C05   D T2601      17.610  20.830   6.083  1.00  3.60     0.059 A 
HETATM    5  C04   D T2601      18.956  20.593   6.156  1.00  5.11     0.013 A 
HETATM    6  C03   D T2601      19.774  21.612   6.549  1.00  7.74     0.038 A 
HETATM    7  C02   D T2601      19.283  22.850   6.867  1.00  9.17    -0.014 A 
HETATM    8  C01   D T2601      20.230  23.944   7.305  1.00 11.30     0.032 C 
HETATM    9  C07   D T2601      17.934  23.084   6.786  1.00 16.89    -0.004 A 
HETATM   10  C06   D T2601      17.089  22.065   6.385  1.00 11.92     0.004 A 
BRANCH   6  11
HETATM   11  C29   D T2601      21.262  21.380   6.646  1.00  7.67    -0.060 C 
HETATM   12  C30   D T2601      22.421  21.206   6.735  1.00  4.53    -0.058 C 
BRANCH  12  13
HETATM   13  C31   D T2601      23.911  20.972   6.868  1.00  1.76     0.061 A 
HETATM   14  C32   D T2601      24.538  19.912   6.280  1.00  3.61     0.015 A 
HETATM   15  C33   D T2601      25.841  19.826   6.481  1.00  5.57     0.059 A 
HETATM   16  C34   D T2601      26.550  20.758   7.246  1.00  6.17     0.185 A 
HETATM   17  C37   D T2601      26.934  18.975   6.122  1.00  9.96     0.125 A 
HETATM   18  N35   D T2601      27.860  20.233   7.147  1.00  3.26    -0.129 NA
HETATM   19  N38   D T2601      25.977  21.780   7.826  1.00 12.99    -0.223 NA
HETATM   20  N36   D T2601      28.126  19.159   6.473  1.00  6.50    -0.145 NA
HETATM   21  C39   D T2601      24.634  21.907   7.643  1.00  5.57     0.109 A 
ENDBRANCH  12  13
ENDBRANCH   6  11
ENDBRANCH   2   4
BRANCH   1  22
HETATM   22  C11   D T2601      16.308  17.154   5.202  1.00 11.94     0.085 A 
HETATM   23  C12   D T2601      16.809  15.879   5.100  1.00  8.64     0.023 A 
HETATM   24  C13   D T2601      16.039  14.801   4.679  1.00  5.16     0.074 A 
HETATM   25  C14   D T2601      14.675  14.991   4.346  1.00  9.71     0.016 A 
HETATM   26  C15   D T2601      14.173  16.287   4.486  1.00  7.63     0.003 A 
HETATM   27  C16   D T2601      14.979  17.358   4.892  1.00  5.68     0.019 A 
BRANCH  24  28
HETATM   28  C25   D T2601      16.716  13.451   4.597  1.00  8.83     0.419 C 
HETATM   29  F26   D T2601      17.906  13.480   5.232  1.00 15.45    -0.166 F 
HETATM   30  F27   D T2601      15.938  12.536   5.193  1.00  6.64    -0.166 F 
HETATM   31  F28   D T2601      16.849  13.126   3.299  1.00 29.12    -0.166 F 
ENDBRANCH  24  28
BRANCH  25  32
HETATM   32  C17   D T2601      13.787  13.759   3.912  1.00 12.70     0.051 C 
BRANCH  32  33
HETATM   33  N18   D T2601      12.638  13.941   3.243  1.00 13.52    -0.228 NA
HETATM   34  C19   D T2601      12.758  14.931   2.408  1.00 14.71     0.099 C 
HETATM   35  C20   D T2601      11.521  15.191   1.535  1.00  4.84     0.095 C 
HETATM   36  N21   D T2601      11.147  14.074   0.963  1.00  2.05    -0.248 NA
HETATM   37  C22   D T2601      10.888  13.282   1.947  1.00  7.08     0.060 C 
HETATM   38  C24   D T2601      10.059  14.253   0.282  1.00  7.31     0.094 C 
HETATM   39  C23   D T2601      12.174  12.908   2.653  1.00 11.65     0.063 C 
ENDBRANCH  32  33
ENDBRANCH  25  32
ENDBRANCH   1  22
TORSDOF 7
ENDMDL
MODEL 7
REMARK VINA RESULT:      -7.0      4.857     12.125
REMARK  7 active torsions:
REMARK  status: ('A' for Active; 'I' for Inactive)
REMARK    1  A    between atoms: C13_1  and  C25_22 
REMARK    2  A    between atoms: C17_3  and  C14_7 
REMARK    3  A    between atoms: C17_3  and  N18_34 
REMARK    4  A    between atoms: C11_5  and  N10_10 
REMARK       I    between atoms: N10_10  and  C08_18 
REMARK    5  A    between atoms: C03_13  and  C29_23 
REMARK    6  A    between atoms: C05_15  and  C08_18 
REMARK    7  A    between atoms: C30_24  and  C31_25 
ROOT
HETATM    1  N10   D T2601      23.169  20.221   5.333  1.00 11.81    -0.208 NA
HETATM    2  C08   D T2601      22.776  21.361   6.165  1.00  5.67     0.279 C 
HETATM    3  O09   D T2601      23.543  22.054   6.687  1.00  9.79    -0.265 OA
ENDROOT
BRANCH   2   4
HETATM    4  C05   D T2601      21.328  21.768   6.403  1.00  3.60     0.059 A 
HETATM    5  C04   D T2601      20.372  20.865   6.023  1.00  5.11     0.013 A 
HETATM    6  C03   D T2601      19.061  21.181   6.233  1.00  7.74     0.038 A 
HETATM    7  C02   D T2601      18.688  22.366   6.807  1.00  9.17    -0.014 A 
HETATM    8  C01   D T2601      17.221  22.673   7.011  1.00 11.30     0.032 C 
HETATM    9  C07   D T2601      19.650  23.265   7.192  1.00 16.89    -0.004 A 
HETATM   10  C06   D T2601      20.984  22.961   6.993  1.00 11.92     0.004 A 
BRANCH   6  11
HETATM   11  C29   D T2601      17.984  20.209   5.818  1.00  7.67    -0.060 C 
HETATM   12  C30   D T2601      17.145  19.458   5.481  1.00  4.53    -0.058 C 
BRANCH  12  13
HETATM   13  C31   D T2601      16.078  18.483   5.032  1.00  1.76     0.061 A 
HETATM   14  C32   D T2601      14.762  18.833   4.941  1.00  3.61     0.015 A 
HETATM   15  C33   D T2601      13.936  17.883   4.540  1.00  5.57     0.059 A 
HETATM   16  C34   D T2601      14.369  16.592   4.219  1.00  6.17     0.185 A 
HETATM   17  C37   D T2601      12.541  17.706   4.279  1.00  9.96     0.125 A 
HETATM   18  N35   D T2601      13.142  15.989   3.855  1.00  3.26    -0.129 NA
HETATM   19  N38   D T2601      15.621  16.225   4.301  1.00 12.99    -0.223 NA
HETATM   20  N36   D T2601      12.020  16.635   3.878  1.00  6.50    -0.145 NA
HETATM   21  C39   D T2601      16.506  17.175   4.710  1.00  5.57     0.109 A 
ENDBRANCH  12  13
ENDBRANCH   6  11
ENDBRANCH   2   4
BRANCH   1  22
HETATM   22  C11   D T2601      24.593  19.857   5.109  1.00 11.94     0.085 A 
HETATM   23  C12   D T2601      25.315  19.244   6.105  1.00  8.64     0.023 A 
HETATM   24  C13   D T2601      26.651  18.892   5.955  1.00  5.16     0.074 A 
HETATM   25  C14   D T2601      27.320  19.152   4.734  1.00  9.71     0.016 A 
HETATM   26  C15   D T2601      26.562  19.746   3.721  1.00  7.63     0.003 A 
HETATM   27  C16   D T2601      25.224  20.109   3.909  1.00  5.68     0.019 A 
BRANCH  24  28
HETATM   28  C25   D T2601      27.334  18.234   7.133  1.00  8.83     0.419 C 
HETATM   29  F26   D T2601      27.985  19.154   7.875  1.00 15.45    -0.166 F 
HETATM   30  F27   D T2601      26.407  17.646   7.903  1.00  6.64    -0.166 F 
HETATM   31  F28   D T2601      28.167  17.290   6.662  1.00 29.12    -0.166 F 
ENDBRANCH  24  28
BRANCH  25  32
HETATM   32  C17   D T2601      28.824  18.709   4.545  1.00 12.70     0.051 C 
BRANCH  32  33
HETATM   33  N18   D T2601      29.193  17.950   3.501  1.00 13.52    -0.228 NA
HETATM   34  C19   D T2601      30.479  17.758   3.519  1.00 14.71     0.099 C 
HETATM   35  C20   D T2601      31.009  16.843   2.405  1.00  4.84     0.095 C 
HETATM   36  N21   D T2601      30.321  15.731   2.388  1.00  2.05    -0.248 NA
HETATM   37  C22   D T2601      29.108  16.108   2.169  1.00  7.08     0.060 C 
HETATM   38  C24   D T2601      30.700  14.975   1.406  1.00  7.31     0.094 C 
HETATM   39  C23   D T2601      28.574  16.839   3.382  1.00 11.65     0.063 C 
ENDBRANCH  32  33
ENDBRANCH  25  32
ENDBRANCH   1  22
TORSDOF 7
ENDMDL
MODEL 8
REMARK VINA RESULT:      -6.5      1.482      1.856
REMARK  7 active torsions:
REMARK  status: ('A' for Active; 'I' for Inactive)
REMARK    1  A    between atoms: C13_1  and  C25_22 
REMARK    2  A    between atoms: C17_3  and  C14_7 
REMARK    3  A    between atoms: C17_3  and  N18_34 
REMARK    4  A    between atoms: C11_5  and  N10_10 
REMARK       I    between atoms: N10_10  and  C08_18 
REMARK    5  A    between atoms: C03_13  and  C29_23 
REMARK    6  A    between atoms: C05_15  and  C08_18 
REMARK    7  A    between atoms: C30_24  and  C31_25 
ROOT
HETATM    1  N10   D T2601      17.390  19.317   5.892  1.00 11.81    -0.208 NA
HETATM    2  C08   D T2601      17.221  20.770   5.966  1.00  5.67     0.279 C 
HETATM    3  O09   D T2601      16.208  21.297   5.774  1.00  9.79    -0.265 OA
ENDROOT
BRANCH   2   4
HETATM    4  C05   D T2601      18.346  21.729   6.332  1.00  3.60     0.059 A 
HETATM    5  C04   D T2601      19.590  21.178   6.485  1.00  5.11     0.013 A 
HETATM    6  C03   D T2601      20.631  22.003   6.796  1.00  7.74     0.038 A 
HETATM    7  C02   D T2601      20.460  23.351   6.957  1.00  9.17    -0.014 A 
HETATM    8  C01   D T2601      21.645  24.222   7.310  1.00 11.30     0.032 C 
HETATM    9  C07   D T2601      19.213  23.900   6.797  1.00 16.89    -0.004 A 
HETATM   10  C06   D T2601      18.146  23.081   6.476  1.00 11.92     0.004 A 
BRANCH   6  11
HETATM   11  C29   D T2601      22.013  21.423   6.977  1.00  7.67    -0.060 C 
HETATM   12  C30   D T2601      23.084  20.967   7.133  1.00  4.53    -0.058 C 
BRANCH  12  13
HETATM   13  C31   D T2601      24.456  20.358   7.334  1.00  1.76     0.061 A 
HETATM   14  C32   D T2601      25.590  21.117   7.386  1.00  3.61     0.015 A 
HETATM   15  C33   D T2601      26.721  20.456   7.562  1.00  5.57     0.059 A 
HETATM   16  C34   D T2601      26.769  19.064   7.691  1.00  6.17     0.185 A 
HETATM   17  C37   D T2601      28.119  20.727   7.688  1.00  9.96     0.125 A 
HETATM   18  N35   D T2601      28.160  18.867   7.859  1.00  3.26    -0.129 NA
HETATM   19  N38   D T2601      25.702  18.311   7.639  1.00 12.99    -0.223 NA
HETATM   20  N36   D T2601      29.003  19.851   7.865  1.00  6.50    -0.145 NA
HETATM   21  C39   D T2601      24.515  18.952   7.461  1.00  5.57     0.109 A 
ENDBRANCH  12  13
ENDBRANCH   6  11
ENDBRANCH   2   4
BRANCH   1  22
HETATM   22  C11   D T2601      16.268  18.406   5.545  1.00 11.94     0.085 A 
HETATM   23  C12   D T2601      14.968  18.838   5.650  1.00  8.64     0.023 A 
HETATM   24  C13   D T2601      13.880  18.026   5.349  1.00  5.16     0.074 A 
HETATM   25  C14   D T2601      14.089  16.698   4.902  1.00  9.71     0.016 A 
HETATM   26  C15   D T2601      15.417  16.286   4.770  1.00  7.63     0.003 A 
HETATM   27  C16   D T2601      16.492  17.119   5.101  1.00  5.68     0.019 A 
BRANCH  24  28
HETATM   28  C25   D T2601      12.500  18.620   5.520  1.00  8.83     0.419 C 
HETATM   29  F26   D T2601      11.730  17.814   6.280  1.00 15.45    -0.166 F 
HETATM   30  F27   D T2601      12.609  19.807   6.134  1.00  6.64    -0.166 F 
HETATM   31  F28   D T2601      11.971  18.811   4.299  1.00 29.12    -0.166 F 
ENDBRANCH  24  28
BRANCH  25  32
HETATM   32  C17   D T2601      12.856  15.790   4.515  1.00 12.70     0.051 C 
BRANCH  32  33
HETATM   33  N18   D T2601      12.503  15.620   3.231  1.00 13.52    -0.228 NA
HETATM   34  C19   D T2601      12.521  14.356   2.925  1.00 14.71     0.099 C 
HETATM   35  C20   D T2601      12.067  14.034   1.493  1.00  4.84     0.095 C 
HETATM   36  N21   D T2601      10.913  14.605   1.262  1.00  2.05    -0.248 NA
HETATM   37  C22   D T2601      11.139  15.863   1.426  1.00  7.08     0.060 C 
HETATM   38  C24   D T2601      10.547  14.411   0.034  1.00  7.31     0.094 C 
HETATM   39  C23   D T2601      11.391  16.149   2.891  1.00 11.65     0.063 C 
ENDBRANCH  32  33
ENDBRANCH  25  32
ENDBRANCH   1  22
TORSDOF 7
ENDMDL
MODEL 9
REMARK VINA RESULT:      -6.4      4.525     12.244
REMARK  7 active torsions:
REMARK  status: ('A' for Active; 'I' for Inactive)
REMARK    1  A    between atoms: C13_1  and  C25_22 
REMARK    2  A    between atoms: C17_3  and  C14_7 
REMARK    3  A    between atoms: C17_3  and  N18_34 
REMARK    4  A    between atoms: C11_5  and  N10_10 
REMARK       I    between atoms: N10_10  and  C08_18 
REMARK    5  A    between atoms: C03_13  and  C29_23 
REMARK    6  A    between atoms: C05_15  and  C08_18 
REMARK    7  A    between atoms: C30_24  and  C31_25 
ROOT
HETATM    1  N10   D T2601      21.972  20.812   6.306  1.00 11.81    -0.208 NA
HETATM    2  C08   D T2601      21.053  21.701   7.022  1.00  5.67     0.279 C 
HETATM    3  O09   D T2601      21.386  22.374   7.902  1.00  9.79    -0.265 OA
ENDROOT
BRANCH   2   4
HETATM    4  C05   D T2601      19.580  21.852   6.664  1.00  3.60     0.059 A 
HETATM    5  C04   D T2601      18.926  20.711   6.283  1.00  5.11     0.013 A 
HETATM    6  C03   D T2601      17.601  20.797   5.969  1.00  7.74     0.038 A 
HETATM    7  C02   D T2601      16.922  21.984   6.026  1.00  9.17    -0.014 A 
HETATM    8  C01   D T2601      15.455  22.028   5.661  1.00 11.30     0.032 C 
HETATM    9  C07   D T2601      17.580  23.123   6.415  1.00 16.89    -0.004 A 
HETATM   10  C06   D T2601      18.921  23.056   6.742  1.00 11.92     0.004 A 
BRANCH   6  11
HETATM   11  C29   D T2601      16.855  19.558   5.539  1.00  7.67    -0.060 C 
HETATM   12  C30   D T2601      16.273  18.599   5.190  1.00  4.53    -0.058 C 
BRANCH  12  13
HETATM   13  C31   D T2601      15.540  17.358   4.726  1.00  1.76     0.061 A 
HETATM   14  C32   D T2601      15.872  16.108   5.163  1.00  3.61     0.015 A 
HETATM   15  C33   D T2601      15.153  15.113   4.674  1.00  5.57     0.059 A 
HETATM   16  C34   D T2601      14.107  15.313   3.766  1.00  6.17     0.185 A 
HETATM   17  C37   D T2601      15.067  13.690   4.781  1.00  9.96     0.125 A 
HETATM   18  N35   D T2601      13.676  13.980   3.570  1.00  3.26    -0.129 NA
HETATM   19  N38   D T2601      13.769  16.496   3.325  1.00 12.99    -0.223 NA
HETATM   20  N36   D T2601      14.232  12.976   4.171  1.00  6.50    -0.145 NA
HETATM   21  C39   D T2601      14.485  17.550   3.805  1.00  5.57     0.109 A 
ENDBRANCH  12  13
ENDBRANCH   6  11
ENDBRANCH   2   4
BRANCH   1  22
HETATM   22  C11   D T2601      23.407  20.696   6.671  1.00 11.94     0.085 A 
HETATM   23  C12   D T2601      24.185  21.823   6.787  1.00  8.64     0.023 A 
HETATM   24  C13   D T2601      25.535  21.773   7.115  1.00  5.16     0.074 A 
HETATM   25  C14   D T2601      26.160  20.525   7.358  1.00  9.71     0.016 A 
HETATM   26  C15   D T2601      25.347  19.392   7.268  1.00  7.63     0.003 A 
HETATM   27  C16   D T2601      23.995  19.472   6.914  1.00  5.68     0.019 A 
BRANCH  24  28
HETATM   28  C25   D T2601      26.281  23.086   7.197  1.00  8.83     0.419 C 
HETATM   29  F26   D T2601      27.437  22.931   7.874  1.00 15.45    -0.166 F 
HETATM   30  F27   D T2601      26.567  23.503   5.955  1.00  6.64    -0.166 F 
HETATM   31  F28   D T2601      25.476  23.991   7.782  1.00 29.12    -0.166 F 
ENDBRANCH  24  28
BRANCH  25  32
HETATM   32  C17   D T2601      27.681  20.469   7.777  1.00 12.70     0.051 C 
BRANCH  32  33
HETATM   33  N18   D T2601      28.435  19.396   7.492  1.00 13.52    -0.228 NA
HETATM   34  C19   D T2601      28.367  19.126   6.221  1.00 14.71     0.099 C 
HETATM   35  C20   D T2601      29.246  17.951   5.765  1.00  4.84     0.095 C 
HETATM   36  N21   D T2601      30.471  18.131   6.190  1.00  2.05    -0.248 NA
HETATM   37  C22   D T2601      30.360  18.182   7.474  1.00  7.08     0.060 C 
HETATM   38  C24   D T2601      31.213  17.115   5.882  1.00  7.31     0.094 C 
HETATM   39  C23   D T2601      29.652  19.459   7.873  1.00 11.65     0.063 C 
ENDBRANCH  32  33
ENDBRANCH  25  32
ENDBRANCH   1  22
TORSDOF 7
ENDMDL
