MODEL 1
REMARK VINA RESULT:      -7.7      0.000      0.000
REMARK  3 active torsions:
REMARK  status: ('A' for Active; 'I' for Inactive)
REMARK    1  A    between atoms: C2_2  and  O11_20 
REMARK    2  A    between atoms: C10_10  and  N14_11 
REMARK    3  A    between atoms: N14_11  and  C15_12 
ROOT
HETATM    1  C1    D T9001     -12.693   6.966  -2.763  1.00 83.47     0.092 A 
HETATM    2  C2    D T9001     -13.234   6.650  -1.473  1.00 83.68     0.109 A 
HETATM    3  C3    D T9001     -13.699   5.320  -1.201  1.00 82.47     0.044 A 
HETATM    4  C4    D T9001     -13.647   4.297  -2.157  1.00 82.50     0.088 A 
HETATM    5  C5    D T9001     -13.108   4.595  -3.464  1.00 84.12     0.055 A 
HETATM    6  C6    D T9001     -12.637   5.936  -3.745  1.00 83.53     0.021 A 
HETATM    7  N7    D T9001     -14.110   3.067  -1.806  1.00 81.78    -0.224 NA
HETATM    8  C8    D T9001     -14.046   2.089  -2.746  1.00 83.59     0.200 A 
HETATM    9  N9    D T9001     -13.567   2.229  -4.004  1.00 84.30    -0.205 NA
HETATM   10  C10   D T9001     -13.093   3.483  -4.378  1.00 85.59     0.166 A 
HETATM   11  N13   D T9001     -12.222   8.264  -3.070  1.00 82.67    -0.099 NA
ENDROOT
BRANCH  10  12
HETATM   12  N14   D T9001     -12.579   3.668  -5.710  1.00 86.44    -0.227 NA
BRANCH  12  13
HETATM   13  C15   D T9001     -11.495   2.965  -6.307  1.00 87.38     0.084 A 
HETATM   14  C16   D T9001     -10.167   3.039  -5.772  1.00 88.13     0.033 A 
HETATM   15  C17   D T9001      -9.094   2.344  -6.373  1.00 88.88     0.087 A 
HETATM   16  C18   D T9001      -9.334   1.557  -7.532  1.00 88.55     0.151 A 
HETATM   17 CL     D T9001      -7.511   2.474  -5.685  1.00 89.26    -0.080 Cl
HETATM   18  C19   D T9001     -10.642   1.461  -8.086  1.00 87.62     0.032 A 
HETATM   19  F21   D T9001      -8.325   0.891  -8.119  1.00 88.92    -0.203 F 
HETATM   20  C20   D T9001     -11.720   2.164  -7.478  1.00 87.82     0.021 A 
ENDBRANCH  12  13
ENDBRANCH  10  12
BRANCH   2  21
HETATM   21  O11   D T9001     -13.256   7.702  -0.561  1.00 85.44    -0.327 OA
HETATM   22  C12   D T9001     -14.395   7.825   0.299  1.00 84.41     0.181 C 
ENDBRANCH   2  21
TORSDOF 3
ENDMDL
MODEL 2
REMARK VINA RESULT:      -7.3      4.681      7.634
REMARK  3 active torsions:
REMARK  status: ('A' for Active; 'I' for Inactive)
REMARK    1  A    between atoms: C2_2  and  O11_20 
REMARK    2  A    between atoms: C10_10  and  N14_11 
REMARK    3  A    between atoms: N14_11  and  C15_12 
ROOT
HETATM    1  C1    D T9001     -11.699   3.426  -5.426  1.00 83.47     0.092 A 
HETATM    2  C2    D T9001     -10.299   3.708  -5.546  1.00 83.68     0.109 A 
HETATM    3  C3    D T9001      -9.704   4.729  -4.732  1.00 82.47     0.044 A 
HETATM    4  C4    D T9001     -10.445   5.478  -3.808  1.00 82.50     0.088 A 
HETATM    5  C5    D T9001     -11.859   5.212  -3.673  1.00 84.12     0.055 A 
HETATM    6  C6    D T9001     -12.464   4.181  -4.492  1.00 83.53     0.021 A 
HETATM    7  N7    D T9001      -9.794   6.425  -3.079  1.00 81.78    -0.224 NA
HETATM    8  C8    D T9001     -10.530   7.134  -2.186  1.00 83.59     0.200 A 
HETATM    9  N9    D T9001     -11.856   6.989  -1.958  1.00 84.30    -0.205 NA
HETATM   10  C10   D T9001     -12.536   6.027  -2.699  1.00 85.59     0.166 A 
HETATM   11  N13   D T9001     -12.322   2.425  -6.208  1.00 82.67    -0.099 NA
ENDROOT
BRANCH  10  12
HETATM   12  N14   D T9001     -13.948   5.847  -2.484  1.00 86.44    -0.227 NA
BRANCH  12  13
HETATM   13  C15   D T9001     -14.578   5.439  -1.274  1.00 87.38     0.084 A 
HETATM   14  C16   D T9001     -14.949   6.387  -0.265  1.00 88.13     0.033 A 
HETATM   15  C17   D T9001     -15.568   5.975   0.937  1.00 88.88     0.087 A 
HETATM   16  C18   D T9001     -15.825   4.594   1.151  1.00 88.55     0.151 A 
HETATM   17 CL     D T9001     -15.990   7.165   2.121  1.00 89.26    -0.080 Cl
HETATM   18  C19   D T9001     -15.471   3.628   0.167  1.00 87.62     0.032 A 
HETATM   19  F21   D T9001     -16.410   4.184   2.289  1.00 88.92    -0.203 F 
HETATM   20  C20   D T9001     -14.848   4.048  -1.041  1.00 87.82     0.021 A 
ENDBRANCH  12  13
ENDBRANCH  10  12
BRANCH   2  21
HETATM   21  O11   D T9001      -9.611   2.931  -6.475  1.00 85.44    -0.327 OA
HETATM   22  C12   D T9001      -8.336   2.398  -6.096  1.00 84.41     0.181 C 
ENDBRANCH   2  21
TORSDOF 3
ENDMDL
MODEL 3
REMARK VINA RESULT:      -7.2      3.496      4.726
REMARK  3 active torsions:
REMARK  status: ('A' for Active; 'I' for Inactive)
REMARK    1  A    between atoms: C2_2  and  O11_20 
REMARK    2  A    between atoms: C10_10  and  N14_11 
REMARK    3  A    between atoms: N14_11  and  C15_12 
ROOT
HETATM    1  C1    D T9001     -13.165   4.800  -4.043  1.00 83.47     0.092 A 
HETATM    2  C2    D T9001     -11.943   5.359  -3.544  1.00 83.68     0.109 A 
HETATM    3  C3    D T9001     -10.690   4.962  -4.118  1.00 82.47     0.044 A 
HETATM    4  C4    D T9001     -10.604   4.034  -5.164  1.00 82.50     0.088 A 
HETATM    5  C5    D T9001     -11.824   3.455  -5.681  1.00 84.12     0.055 A 
HETATM    6  C6    D T9001     -13.092   3.853  -5.105  1.00 83.53     0.021 A 
HETATM    7  N7    D T9001      -9.371   3.720  -5.645  1.00 81.78    -0.224 NA
HETATM    8  C8    D T9001      -9.312   2.822  -6.662  1.00 83.59     0.200 A 
HETATM    9  N9    D T9001     -10.371   2.206  -7.239  1.00 84.30    -0.205 NA
HETATM   10  C10   D T9001     -11.639   2.515  -6.755  1.00 85.59     0.166 A 
HETATM   11  N13   D T9001     -14.422   5.168  -3.507  1.00 82.67    -0.099 NA
ENDROOT
BRANCH  10  12
HETATM   12  N14   D T9001     -12.787   1.877  -7.343  1.00 86.44    -0.227 NA
BRANCH  12  13
HETATM   13  C15   D T9001     -13.219   0.538  -7.126  1.00 87.38     0.084 A 
HETATM   14  C16   D T9001     -12.874  -0.518  -8.031  1.00 88.13     0.033 A 
HETATM   15  C17   D T9001     -13.312  -1.844  -7.813  1.00 88.88     0.087 A 
HETATM   16  C18   D T9001     -14.110  -2.136  -6.675  1.00 88.55     0.151 A 
HETATM   17 CL     D T9001     -12.868  -3.077  -8.944  1.00 89.26    -0.080 Cl
HETATM   18  C19   D T9001     -14.467  -1.110  -5.754  1.00 87.62     0.032 A 
HETATM   19  F21   D T9001     -14.537  -3.391  -6.453  1.00 88.92    -0.203 F 
HETATM   20  C20   D T9001     -14.025   0.224  -5.979  1.00 87.82     0.021 A 
ENDBRANCH  12  13
ENDBRANCH  10  12
BRANCH   2  21
HETATM   21  O11   D T9001     -12.088   6.279  -2.509  1.00 85.44    -0.327 OA
HETATM   22  C12   D T9001     -11.652   7.625  -2.736  1.00 84.41     0.181 C 
ENDBRANCH   2  21
TORSDOF 3
ENDMDL
MODEL 4
REMARK VINA RESULT:      -7.2      4.529      6.159
REMARK  3 active torsions:
REMARK  status: ('A' for Active; 'I' for Inactive)
REMARK    1  A    between atoms: C2_2  and  O11_20 
REMARK    2  A    between atoms: C10_10  and  N14_11 
REMARK    3  A    between atoms: N14_11  and  C15_12 
ROOT
HETATM    1  C1    D T9001     -12.657   3.821  -5.029  1.00 83.47     0.092 A 
HETATM    2  C2    D T9001     -11.275   4.182  -4.906  1.00 83.68     0.109 A 
HETATM    3  C3    D T9001     -10.288   3.511  -5.703  1.00 82.47     0.044 A 
HETATM    4  C4    D T9001     -10.620   2.499  -6.613  1.00 82.50     0.088 A 
HETATM    5  C5    D T9001     -12.008   2.117  -6.751  1.00 84.12     0.055 A 
HETATM    6  C6    D T9001     -13.008   2.792  -5.949  1.00 83.53     0.021 A 
HETATM    7  N7    D T9001      -9.616   1.921  -7.326  1.00 81.78    -0.224 NA
HETATM    8  C8    D T9001      -9.962   0.946  -8.205  1.00 83.59     0.200 A 
HETATM    9  N9    D T9001     -11.216   0.492  -8.434  1.00 84.30    -0.205 NA
HETATM   10  C10   D T9001     -12.253   1.072  -7.710  1.00 85.59     0.166 A 
HETATM   11  N13   D T9001     -13.660   4.461  -4.264  1.00 82.67    -0.099 NA
ENDROOT
BRANCH  10  12
HETATM   12  N14   D T9001     -13.601   0.612  -7.926  1.00 86.44    -0.227 NA
BRANCH  12  13
HETATM   13  C15   D T9001     -14.283  -0.394  -7.186  1.00 87.38     0.084 A 
HETATM   14  C16   D T9001     -15.659  -0.246  -6.812  1.00 88.13     0.033 A 
HETATM   15  C17   D T9001     -16.329  -1.246  -6.071  1.00 88.88     0.087 A 
HETATM   16  C18   D T9001     -15.626  -2.420  -5.688  1.00 88.55     0.151 A 
HETATM   17 CL     D T9001     -17.990  -1.011  -5.644  1.00 89.26    -0.080 Cl
HETATM   18  C19   D T9001     -14.260  -2.598  -6.047  1.00 87.62     0.032 A 
HETATM   19  F21   D T9001     -16.247  -3.379  -4.982  1.00 88.92    -0.203 F 
HETATM   20  C20   D T9001     -13.589  -1.588  -6.792  1.00 87.82     0.021 A 
ENDBRANCH  12  13
ENDBRANCH  10  12
BRANCH   2  21
HETATM   21  O11   D T9001     -11.002   5.197  -3.991  1.00 85.44    -0.327 OA
HETATM   22  C12   D T9001      -9.709   5.810  -4.031  1.00 84.41     0.181 C 
ENDBRANCH   2  21
TORSDOF 3
ENDMDL
MODEL 5
REMARK VINA RESULT:      -7.1      5.254      7.592
REMARK  3 active torsions:
REMARK  status: ('A' for Active; 'I' for Inactive)
REMARK    1  A    between atoms: C2_2  and  O11_20 
REMARK    2  A    between atoms: C10_10  and  N14_11 
REMARK    3  A    between atoms: N14_11  and  C15_12 
ROOT
HETATM    1  C1    D T9001     -13.060  -1.988  -9.433  1.00 83.47     0.092 A 
HETATM    2  C2    D T9001     -14.272  -2.514  -8.879  1.00 83.68     0.109 A 
HETATM    3  C3    D T9001     -15.007  -1.749  -7.912  1.00 82.47     0.044 A 
HETATM    4  C4    D T9001     -14.583  -0.487  -7.475  1.00 82.50     0.088 A 
HETATM    5  C5    D T9001     -13.360   0.061  -8.019  1.00 84.12     0.055 A 
HETATM    6  C6    D T9001     -12.616  -0.707  -8.995  1.00 83.53     0.021 A 
HETATM    7  N7    D T9001     -15.345   0.164  -6.556  1.00 81.78    -0.224 NA
HETATM    8  C8    D T9001     -14.918   1.388  -6.151  1.00 83.59     0.200 A 
HETATM    9  N9    D T9001     -13.798   2.018  -6.576  1.00 84.30    -0.205 NA
HETATM   10  C10   D T9001     -13.006   1.362  -7.514  1.00 85.59     0.166 A 
HETATM   11  N13   D T9001     -12.309  -2.709 -10.390  1.00 82.67    -0.099 NA
ENDROOT
BRANCH  10  12
HETATM   12  N14   D T9001     -11.806   2.002  -7.986  1.00 86.44    -0.227 NA
BRANCH  12  13
HETATM   13  C15   D T9001     -10.585   2.150  -7.270  1.00 87.38     0.084 A 
HETATM   14  C16   D T9001     -10.453   3.094  -6.200  1.00 88.13     0.033 A 
HETATM   15  C17   D T9001      -9.235   3.242  -5.498  1.00 88.88     0.087 A 
HETATM   16  C18   D T9001      -8.120   2.440  -5.860  1.00 88.55     0.151 A 
HETATM   17 CL     D T9001      -9.134   4.402  -4.217  1.00 89.26    -0.080 Cl
HETATM   18  C19   D T9001      -8.220   1.490  -6.916  1.00 87.62     0.032 A 
HETATM   19  F21   D T9001      -6.954   2.568  -5.205  1.00 88.92    -0.203 F 
HETATM   20  C20   D T9001      -9.447   1.346  -7.621  1.00 87.82     0.021 A 
ENDBRANCH  12  13
ENDBRANCH  10  12
BRANCH   2  21
HETATM   21  O11   D T9001     -14.649  -3.769  -9.351  1.00 85.44    -0.327 OA
HETATM   22  C12   D T9001     -14.622  -4.870  -8.436  1.00 84.41     0.181 C 
ENDBRANCH   2  21
TORSDOF 3
ENDMDL
MODEL 6
REMARK VINA RESULT:      -7.0      3.193      3.914
REMARK  3 active torsions:
REMARK  status: ('A' for Active; 'I' for Inactive)
REMARK    1  A    between atoms: C2_2  and  O11_20 
REMARK    2  A    between atoms: C10_10  and  N14_11 
REMARK    3  A    between atoms: N14_11  and  C15_12 
ROOT
HETATM    1  C1    D T9001     -14.637   4.300  -5.127  1.00 83.47     0.092 A 
HETATM    2  C2    D T9001     -15.797   3.571  -4.703  1.00 83.68     0.109 A 
HETATM    3  C3    D T9001     -16.002   2.228  -5.163  1.00 82.47     0.044 A 
HETATM    4  C4    D T9001     -15.104   1.584  -6.024  1.00 82.50     0.088 A 
HETATM    5  C5    D T9001     -13.930   2.301  -6.466  1.00 84.12     0.055 A 
HETATM    6  C6    D T9001     -13.717   3.658  -6.005  1.00 83.53     0.021 A 
HETATM    7  N7    D T9001     -15.383   0.307  -6.405  1.00 81.78    -0.224 NA
HETATM    8  C8    D T9001     -14.496  -0.299  -7.235  1.00 83.59     0.200 A 
HETATM    9  N9    D T9001     -13.361   0.253  -7.724  1.00 84.30    -0.205 NA
HETATM   10  C10   D T9001     -13.065   1.559  -7.345  1.00 85.59     0.166 A 
HETATM   11  N13   D T9001     -14.396   5.626  -4.694  1.00 82.67    -0.099 NA
ENDROOT
BRANCH  10  12
HETATM   12  N14   D T9001     -11.866   2.179  -7.848  1.00 86.44    -0.227 NA
BRANCH  12  13
HETATM   13  C15   D T9001     -10.604   2.242  -7.193  1.00 87.38     0.084 A 
HETATM   14  C16   D T9001     -10.358   3.166  -6.126  1.00 88.13     0.033 A 
HETATM   15  C17   D T9001      -9.100   3.228  -5.484  1.00 88.88     0.087 A 
HETATM   16  C18   D T9001      -8.059   2.358  -5.906  1.00 88.55     0.151 A 
HETATM   17 CL     D T9001      -8.860   4.368  -4.204  1.00 89.26    -0.080 Cl
HETATM   18  C19   D T9001      -8.273   1.426  -6.961  1.00 87.62     0.032 A 
HETATM   19  F21   D T9001      -6.856   2.404  -5.309  1.00 88.92    -0.203 F 
HETATM   20  C20   D T9001      -9.541   1.368  -7.604  1.00 87.82     0.021 A 
ENDBRANCH  12  13
ENDBRANCH  10  12
BRANCH   2  21
HETATM   21  O11   D T9001     -16.652   4.258  -3.845  1.00 85.44    -0.327 OA
HETATM   22  C12   D T9001     -16.728   3.825  -2.481  1.00 84.41     0.181 C 
ENDBRANCH   2  21
TORSDOF 3
ENDMDL
MODEL 7
REMARK VINA RESULT:      -7.0      4.319      7.148
REMARK  3 active torsions:
REMARK  status: ('A' for Active; 'I' for Inactive)
REMARK    1  A    between atoms: C2_2  and  O11_20 
REMARK    2  A    between atoms: C10_10  and  N14_11 
REMARK    3  A    between atoms: N14_11  and  C15_12 
ROOT
HETATM    1  C1    D T9001     -10.405   3.191  -6.026  1.00 83.47     0.092 A 
HETATM    2  C2    D T9001     -11.296   2.428  -6.850  1.00 83.68     0.109 A 
HETATM    3  C3    D T9001     -12.710   2.480  -6.610  1.00 82.47     0.044 A 
HETATM    4  C4    D T9001     -13.269   3.256  -5.587  1.00 82.50     0.088 A 
HETATM    5  C5    D T9001     -12.388   4.030  -4.742  1.00 84.12     0.055 A 
HETATM    6  C6    D T9001     -10.960   3.982  -4.980  1.00 83.53     0.021 A 
HETATM    7  N7    D T9001     -14.621   3.243  -5.436  1.00 81.78    -0.224 NA
HETATM    8  C8    D T9001     -15.142   4.006  -4.442  1.00 83.59     0.200 A 
HETATM    9  N9    D T9001     -14.437   4.776  -3.581  1.00 84.30    -0.205 NA
HETATM   10  C10   D T9001     -13.052   4.797  -3.720  1.00 85.59     0.166 A 
HETATM   11  N13   D T9001      -9.005   3.170  -6.232  1.00 82.67    -0.099 NA
ENDROOT
BRANCH  10  12
HETATM   12  N14   D T9001     -12.270   5.604  -2.820  1.00 86.44    -0.227 NA
BRANCH  12  13
HETATM   13  C15   D T9001     -12.365   7.013  -2.643  1.00 87.38     0.084 A 
HETATM   14  C16   D T9001     -12.293   7.916  -3.754  1.00 88.13     0.033 A 
HETATM   15  C17   D T9001     -12.381   9.314  -3.571  1.00 88.88     0.087 A 
HETATM   16  C18   D T9001     -12.542   9.837  -2.259  1.00 88.55     0.151 A 
HETATM   17 CL     D T9001     -12.284  10.355  -4.950  1.00 89.26    -0.080 Cl
HETATM   18  C19   D T9001     -12.620   8.966  -1.135  1.00 87.62     0.032 A 
HETATM   19  F21   D T9001     -12.625  11.164  -2.066  1.00 88.92    -0.203 F 
HETATM   20  C20   D T9001     -12.529   7.559  -1.325  1.00 87.82     0.021 A 
ENDBRANCH  12  13
ENDBRANCH  10  12
BRANCH   2  21
HETATM   21  O11   D T9001     -10.687   1.680  -7.854  1.00 85.44    -0.327 OA
HETATM   22  C12   D T9001     -11.357   0.501  -8.317  1.00 84.41     0.181 C 
ENDBRANCH   2  21
TORSDOF 3
ENDMDL
MODEL 8
REMARK VINA RESULT:      -6.9      4.596      7.396
REMARK  3 active torsions:
REMARK  status: ('A' for Active; 'I' for Inactive)
REMARK    1  A    between atoms: C2_2  and  O11_20 
REMARK    2  A    between atoms: C10_10  and  N14_11 
REMARK    3  A    between atoms: N14_11  and  C15_12 
ROOT
HETATM    1  C1    D T9001     -14.052   3.028  -5.525  1.00 83.47     0.092 A 
HETATM    2  C2    D T9001     -13.137   2.373  -6.413  1.00 83.68     0.109 A 
HETATM    3  C3    D T9001     -11.737   2.680  -6.349  1.00 82.47     0.044 A 
HETATM    4  C4    D T9001     -11.214   3.609  -5.440  1.00 82.50     0.088 A 
HETATM    5  C5    D T9001     -12.119   4.282  -4.537  1.00 84.12     0.055 A 
HETATM    6  C6    D T9001     -13.534   3.976  -4.597  1.00 83.53     0.021 A 
HETATM    7  N7    D T9001      -9.872   3.833  -5.451  1.00 81.78    -0.224 NA
HETATM    8  C8    D T9001      -9.386   4.733  -4.558  1.00 83.59     0.200 A 
HETATM    9  N9    D T9001     -10.117   5.433  -3.659  1.00 84.30    -0.205 NA
HETATM   10  C10   D T9001     -11.492   5.216  -3.638  1.00 85.59     0.166 A 
HETATM   11  N13   D T9001     -15.440   2.751  -5.555  1.00 82.67    -0.099 NA
ENDROOT
BRANCH  10  12
HETATM   12  N14   D T9001     -12.301   5.944  -2.696  1.00 86.44    -0.227 NA
BRANCH  12  13
HETATM   13  C15   D T9001     -12.387   7.359  -2.567  1.00 87.38     0.084 A 
HETATM   14  C16   D T9001     -12.582   7.986  -1.293  1.00 88.13     0.033 A 
HETATM   15  C17   D T9001     -12.674   9.391  -1.173  1.00 88.88     0.087 A 
HETATM   16  C18   D T9001     -12.573  10.199  -2.337  1.00 88.55     0.151 A 
HETATM   17 CL     D T9001     -12.914  10.091   0.392  1.00 89.26    -0.080 Cl
HETATM   18  C19   D T9001     -12.376   9.607  -3.617  1.00 87.62     0.032 A 
HETATM   19  F21   D T9001     -12.661  11.536  -2.242  1.00 88.92    -0.203 F 
HETATM   20  C20   D T9001     -12.285   8.191  -3.733  1.00 87.82     0.021 A 
ENDBRANCH  12  13
ENDBRANCH  10  12
BRANCH   2  21
HETATM   21  O11   D T9001     -13.711   1.457  -7.292  1.00 85.44    -0.327 OA
HETATM   22  C12   D T9001     -13.196   0.120  -7.302  1.00 84.41     0.181 C 
ENDBRANCH   2  21
TORSDOF 3
ENDMDL
MODEL 9
REMARK VINA RESULT:      -6.9      2.004      2.398
REMARK  3 active torsions:
REMARK  status: ('A' for Active; 'I' for Inactive)
REMARK    1  A    between atoms: C2_2  and  O11_20 
REMARK    2  A    between atoms: C10_10  and  N14_11 
REMARK    3  A    between atoms: N14_11  and  C15_12 
ROOT
HETATM    1  C1    D T9001     -12.458   7.598  -3.243  1.00 83.47     0.092 A 
HETATM    2  C2    D T9001     -12.386   7.634  -1.812  1.00 83.68     0.109 A 
HETATM    3  C3    D T9001     -12.785   6.487  -1.048  1.00 82.47     0.044 A 
HETATM    4  C4    D T9001     -13.251   5.310  -1.649  1.00 82.50     0.088 A 
HETATM    5  C5    D T9001     -13.334   5.253  -3.092  1.00 84.12     0.055 A 
HETATM    6  C6    D T9001     -12.932   6.408  -3.867  1.00 83.53     0.021 A 
HETATM    7  N7    D T9001     -13.605   4.273  -0.843  1.00 81.78    -0.224 NA
HETATM    8  C8    D T9001     -14.048   3.141  -1.447  1.00 83.59     0.200 A 
HETATM    9  N9    D T9001     -14.176   2.952  -2.781  1.00 84.30    -0.205 NA
HETATM   10  C10   D T9001     -13.821   4.005  -3.619  1.00 85.59     0.166 A 
HETATM   11  N13   D T9001     -12.071   8.707  -4.032  1.00 82.67    -0.099 NA
ENDROOT
BRANCH  10  12
HETATM   12  N14   D T9001     -13.946   3.840  -5.044  1.00 86.44    -0.227 NA
BRANCH  12  13
HETATM   13  C15   D T9001     -13.084   3.086  -5.890  1.00 87.38     0.084 A 
HETATM   14  C16   D T9001     -13.588   2.058  -6.751  1.00 88.13     0.033 A 
HETATM   15  C17   D T9001     -12.726   1.309  -7.583  1.00 88.88     0.087 A 
HETATM   16  C18   D T9001     -11.331   1.580  -7.566  1.00 88.55     0.151 A 
HETATM   17 CL     D T9001     -13.393   0.076  -8.599  1.00 89.26    -0.080 Cl
HETATM   18  C19   D T9001     -10.799   2.597  -6.724  1.00 87.62     0.032 A 
HETATM   19  F21   D T9001     -10.496   0.876  -8.349  1.00 88.92    -0.203 F 
HETATM   20  C20   D T9001     -11.671   3.348  -5.887  1.00 87.82     0.021 A 
ENDBRANCH  12  13
ENDBRANCH  10  12
BRANCH   2  21
HETATM   21  O11   D T9001     -11.912   8.825  -1.268  1.00 85.44    -0.327 OA
HETATM   22  C12   D T9001     -12.820   9.625  -0.502  1.00 84.41     0.181 C 
ENDBRANCH   2  21
TORSDOF 3
ENDMDL
