MODEL 1
REMARK VINA RESULT:     -10.3      0.000      0.000
REMARK  7 active torsions:
REMARK  status: ('A' for Active; 'I' for Inactive)
REMARK    1  A    between atoms: N3_2  and  C20_12 
REMARK    2  A    between atoms: C4_3  and  C5_4 
REMARK    3  A    between atoms: C13_9  and  N2_29 
REMARK    4  A    between atoms: C17_11  and  C19_33 
REMARK    5  A    between atoms: C20_12  and  C16_31 
REMARK    6  A    between atoms: C2_23  and  C3_24 
REMARK    7  A    between atoms: C9_25  and  C12_27 
REMARK       I    between atoms: C12_27  and  N2_29 
ROOT
HETATM    1  C12   D T   1     -21.893   1.584  11.686  1.00  8.81     0.275 C 
HETATM    2  O1    D T   1     -21.212   0.976  10.853  1.00 13.93    -0.266 OA
HETATM    3  N2    D T   1     -23.001   1.068  12.291  1.00 10.31    -0.208 NA
ENDROOT
BRANCH   1   4
HETATM    4  C9    D T   1     -21.506   2.966  12.068  1.00 12.21     0.037 A 
HETATM    5  C8    D T   1     -20.219   3.298  12.651  1.00 10.40     0.036 A 
HETATM    6  C7    D T   1     -19.924   4.686  12.993  1.00  7.63     0.028 A 
HETATM    7  C6    D T   1     -20.888   5.703  12.756  1.00  7.91    -0.036 A 
HETATM    8  C5    D T   1     -22.170   5.354  12.172  1.00 10.18     0.034 A 
HETATM    9  C11   D T   1     -20.540   7.154  13.118  1.00  9.41     0.027 C 
HETATM   10  C10   D T   1     -22.462   4.012  11.840  1.00 11.17     0.008 A 
BRANCH   8  11
HETATM   11  C4    D T   1     -23.205   6.338  11.892  1.00 10.71    -0.059 C 
HETATM   12  C3    D T   1     -24.004   7.202  11.655  1.00 12.15    -0.039 C 
BRANCH  12  13
HETATM   13  C2    D T   1     -24.888   8.251  11.367  1.00 14.46     0.145 A 
HETATM   14  N82   D T   1     -25.307   9.209  12.244  1.00 14.03    -0.203 N 
HETATM   15  N81   D T   1     -24.951   9.333  13.562  1.00 15.71    -0.162 NA
HETATM   16  C84   D T   1     -26.192  10.036  11.483  1.00 14.58     0.165 A 
HETATM   17  C83   D T   1     -25.537  10.381  14.163  1.00 17.09     0.121 A 
HETATM   18  C82   D T   1     -26.443  11.300  13.536  1.00 16.91     0.026 A 
HETATM   19  C81   D T   1     -26.768  11.123  12.192  1.00 15.47     0.041 A 
HETATM   20  N1    D T   1     -26.294   9.599  10.234  1.00 17.79    -0.223 NA
HETATM   21  C1    D T   1     -25.481   8.479  10.165  1.00 15.62     0.128 A 
ENDBRANCH  12  13
ENDBRANCH   8  11
ENDBRANCH   1   4
BRANCH   3  22
HETATM   22  C13   D T   1     -23.346  -0.318  12.377  1.00  8.39     0.085 A 
HETATM   23  C14   D T   1     -22.868  -1.045  13.489  1.00 14.59     0.019 A 
HETATM   24  C15   D T   1     -23.179  -2.427  13.637  1.00 11.91    -0.001 A 
HETATM   25  C16   D T   1     -23.978  -3.112  12.680  1.00 12.96     0.015 A 
HETATM   26  C17   D T   1     -24.479  -2.379  11.526  1.00 14.62     0.071 A 
HETATM   27  C18   D T   1     -24.151  -0.990  11.401  1.00 11.52     0.023 A 
BRANCH  25  28
HETATM   28  C20   D T   1     -24.272  -4.600  12.927  1.00 11.54     0.277 C 
BRANCH  28  29
HETATM   29  N3    D T   1     -23.253  -5.482  12.394  1.00 12.77     0.146 N 
HETATM   30  C21   D T   1     -22.333  -6.040  13.415  1.00  9.68     0.286 C 
HETATM   31  C22   D T   1     -21.198  -6.845  12.731  1.00 12.27     0.286 C 
HETATM   32  N4    D T   1     -21.744  -7.917  11.856  1.00 14.63     0.143 N 
HETATM   33  C23   D T   1     -22.768  -7.397  10.900  1.00 13.23     0.286 C 
HETATM   34  C25   D T   1     -20.663  -8.611  11.147  1.00 14.49     0.285 C 
HETATM   35  C24   D T   1     -23.870  -6.595  11.622  1.00 15.42     0.286 C 
ENDBRANCH  28  29
ENDBRANCH  25  28
BRANCH  26  36
HETATM   36  C19   D T   1     -25.344  -3.024  10.454  1.00 14.58     0.419 C 
HETATM   37  F1    D T   1     -25.709  -2.110   9.570  1.00 18.20    -0.166 F 
HETATM   38  F2    D T   1     -24.697  -3.971   9.785  1.00 18.68    -0.166 F 
HETATM   39  F3    D T   1     -26.429  -3.589  11.032  1.00 14.12    -0.166 F 
ENDBRANCH  26  36
ENDBRANCH   3  22
TORSDOF 7
ENDMDL
MODEL 2
REMARK VINA RESULT:     -10.2      4.096     11.157
REMARK  7 active torsions:
REMARK  status: ('A' for Active; 'I' for Inactive)
REMARK    1  A    between atoms: N3_2  and  C20_12 
REMARK    2  A    between atoms: C4_3  and  C5_4 
REMARK    3  A    between atoms: C13_9  and  N2_29 
REMARK    4  A    between atoms: C17_11  and  C19_33 
REMARK    5  A    between atoms: C20_12  and  C16_31 
REMARK    6  A    between atoms: C2_23  and  C3_24 
REMARK    7  A    between atoms: C9_25  and  C12_27 
REMARK       I    between atoms: C12_27  and  N2_29 
ROOT
HETATM    1  C12   D T   1     -23.364  -0.976  13.101  1.00  8.81     0.275 C 
HETATM    2  O1    D T   1     -22.984  -0.844  14.270  1.00 13.93    -0.266 OA
HETATM    3  N2    D T   1     -23.681   0.066  12.278  1.00 10.31    -0.208 NA
ENDROOT
BRANCH   1   4
HETATM    4  C9    D T   1     -23.497  -2.340  12.530  1.00 12.21     0.037 A 
HETATM    5  C8    D T   1     -22.972  -3.527  13.180  1.00 10.40     0.036 A 
HETATM    6  C7    D T   1     -23.152  -4.830  12.547  1.00  7.63     0.028 A 
HETATM    7  C6    D T   1     -23.836  -4.934  11.306  1.00  7.91    -0.036 A 
HETATM    8  C5    D T   1     -24.356  -3.738  10.670  1.00 10.18     0.034 A 
HETATM    9  C11   D T   1     -24.017  -6.322  10.673  1.00  9.41     0.027 C 
HETATM   10  C10   D T   1     -24.184  -2.474  11.278  1.00 11.17     0.008 A 
BRANCH   8  11
HETATM   11  C4    D T   1     -25.074  -3.763   9.405  1.00 10.71    -0.059 C 
HETATM   12  C3    D T   1     -25.686  -3.712   8.373  1.00 12.15    -0.039 C 
BRANCH  12  13
HETATM   13  C2    D T   1     -26.407  -3.588   7.178  1.00 14.46     0.145 A 
HETATM   14  N82   D T   1     -27.019  -2.455   6.725  1.00 14.03    -0.203 N 
HETATM   15  N81   D T   1     -27.050  -1.232   7.341  1.00 15.71    -0.162 NA
HETATM   16  C84   D T   1     -27.616  -2.837   5.482  1.00 14.58     0.165 A 
HETATM   17  C83   D T   1     -27.740  -0.315   6.645  1.00 17.09     0.121 A 
HETATM   18  C82   D T   1     -28.391  -0.542   5.387  1.00 16.91     0.026 A 
HETATM   19  C81   D T   1     -28.326  -1.808   4.808  1.00 15.47     0.041 A 
HETATM   20  N1    D T   1     -27.375  -4.114   5.211  1.00 17.79    -0.223 NA
HETATM   21  C1    D T   1     -26.623  -4.583   6.276  1.00 15.62     0.128 A 
ENDBRANCH  12  13
ENDBRANCH   8  11
ENDBRANCH   1   4
BRANCH   3  22
HETATM   22  C13   D T   1     -23.288   1.430  12.457  1.00  8.39     0.085 A 
HETATM   23  C14   D T   1     -24.229   2.314  13.029  1.00 14.59     0.019 A 
HETATM   24  C15   D T   1     -23.899   3.684  13.240  1.00 11.91    -0.001 A 
HETATM   25  C16   D T   1     -22.621   4.200  12.888  1.00 12.96     0.015 A 
HETATM   26  C17   D T   1     -21.637   3.304  12.295  1.00 14.62     0.071 A 
HETATM   27  C18   D T   1     -21.995   1.931  12.094  1.00 11.52     0.023 A 
BRANCH  25  28
HETATM   28  C20   D T   1     -22.350   5.687  13.161  1.00 11.54     0.277 C 
BRANCH  28  29
HETATM   29  N3    D T   1     -23.295   6.571  12.508  1.00 12.77     0.146 N 
HETATM   30  C21   D T   1     -23.105   8.008  12.826  1.00  9.68     0.286 C 
HETATM   31  C22   D T   1     -24.248   8.850  12.202  1.00 12.27     0.286 C 
HETATM   32  N4    D T   1     -24.344   8.632  10.733  1.00 14.63     0.143 N 
HETATM   33  C23   D T   1     -24.409   7.180  10.383  1.00 13.23     0.286 C 
HETATM   34  C25   D T   1     -25.485   9.364  10.171  1.00 14.49     0.285 C 
HETATM   35  C24   D T   1     -23.261   6.382  11.032  1.00 15.42     0.286 C 
ENDBRANCH  28  29
ENDBRANCH  25  28
BRANCH  26  36
HETATM   36  C19   D T   1     -20.245   3.762  11.891  1.00 14.58     0.419 C 
HETATM   37  F1    D T   1     -19.637   2.794  11.224  1.00 18.20    -0.166 F 
HETATM   38  F2    D T   1     -20.274   4.822  11.091  1.00 18.68    -0.166 F 
HETATM   39  F3    D T   1     -19.542   4.094  12.998  1.00 14.12    -0.166 F 
ENDBRANCH  26  36
ENDBRANCH   3  22
TORSDOF 7
ENDMDL
MODEL 3
REMARK VINA RESULT:     -10.0      1.817      2.404
REMARK  7 active torsions:
REMARK  status: ('A' for Active; 'I' for Inactive)
REMARK    1  A    between atoms: N3_2  and  C20_12 
REMARK    2  A    between atoms: C4_3  and  C5_4 
REMARK    3  A    between atoms: C13_9  and  N2_29 
REMARK    4  A    between atoms: C17_11  and  C19_33 
REMARK    5  A    between atoms: C20_12  and  C16_31 
REMARK    6  A    between atoms: C2_23  and  C3_24 
REMARK    7  A    between atoms: C9_25  and  C12_27 
REMARK       I    between atoms: C12_27  and  N2_29 
ROOT
HETATM    1  C12   D T   1     -21.700   2.376  11.592  1.00  8.81     0.275 C 
HETATM    2  O1    D T   1     -20.754   1.617  11.355  1.00 13.93    -0.266 OA
HETATM    3  N2    D T   1     -23.012   2.031  11.449  1.00 10.31    -0.208 NA
ENDROOT
BRANCH   1   4
HETATM    4  C9    D T   1     -21.421   3.757  12.062  1.00 12.21     0.037 A 
HETATM    5  C8    D T   1     -20.198   4.130  12.749  1.00 10.40     0.036 A 
HETATM    6  C7    D T   1     -20.008   5.514  13.172  1.00  7.63     0.028 A 
HETATM    7  C6    D T   1     -21.010   6.487  12.913  1.00  7.91    -0.036 A 
HETATM    8  C5    D T   1     -22.227   6.097  12.225  1.00 10.18     0.034 A 
HETATM    9  C11   D T   1     -20.773   7.936  13.363  1.00  9.41     0.027 C 
HETATM   10  C10   D T   1     -22.417   4.759  11.813  1.00 11.17     0.008 A 
BRANCH   8  11
HETATM   11  C4    D T   1     -23.296   7.035  11.916  1.00 10.71    -0.059 C 
HETATM   12  C3    D T   1     -24.152   7.853  11.717  1.00 12.15    -0.039 C 
BRANCH  12  13
HETATM   13  C2    D T   1     -25.122   8.847  11.528  1.00 14.46     0.145 A 
HETATM   14  N82   D T   1     -25.504   9.780  12.448  1.00 14.03    -0.203 N 
HETATM   15  N81   D T   1     -25.022   9.926  13.722  1.00 15.71    -0.162 NA
HETATM   16  C84   D T   1     -26.511  10.551  11.787  1.00 14.58     0.165 A 
HETATM   17  C83   D T   1     -25.603  10.937  14.387  1.00 17.09     0.121 A 
HETATM   18  C82   D T   1     -26.623  11.800  13.862  1.00 16.91     0.026 A 
HETATM   19  C81   D T   1     -27.075  11.602  12.558  1.00 15.47     0.041 A 
HETATM   20  N1    D T   1     -26.717  10.107  10.553  1.00 17.79    -0.223 NA
HETATM   21  C1    D T   1     -25.849   9.038  10.395  1.00 15.62     0.128 A 
ENDBRANCH  12  13
ENDBRANCH   8  11
ENDBRANCH   1   4
BRANCH   3  22
HETATM   22  C13   D T   1     -23.530   0.699  11.380  1.00  8.39     0.085 A 
HETATM   23  C14   D T   1     -24.250   0.334  10.222  1.00 14.59     0.019 A 
HETATM   24  C15   D T   1     -24.787  -0.979  10.088  1.00 11.91    -0.001 A 
HETATM   25  C16   D T   1     -24.614  -1.956  11.107  1.00 12.96     0.015 A 
HETATM   26  C17   D T   1     -23.876  -1.597  12.311  1.00 14.62     0.071 A 
HETATM   27  C18   D T   1     -23.347  -0.271  12.420  1.00 11.52     0.023 A 
BRANCH  25  28
HETATM   28  C20   D T   1     -25.219  -3.349  10.873  1.00 11.54     0.277 C 
BRANCH  28  29
HETATM   29  N3    D T   1     -24.342  -4.240  10.141  1.00 12.77     0.146 N 
HETATM   30  C21   D T   1     -24.161  -5.571  10.770  1.00  9.68     0.286 C 
HETATM   31  C22   D T   1     -23.096  -6.390   9.995  1.00 12.27     0.286 C 
HETATM   32  N4    D T   1     -23.452  -6.519   8.556  1.00 14.63     0.143 N 
HETATM   33  C23   D T   1     -23.761  -5.197   7.932  1.00 13.23     0.286 C 
HETATM   34  C25   D T   1     -22.393  -7.217   7.818  1.00 14.49     0.285 C 
HETATM   35  C24   D T   1     -24.816  -4.414   8.741  1.00 15.42     0.286 C 
ENDBRANCH  28  29
ENDBRANCH  25  28
BRANCH  26  36
HETATM   36  C19   D T   1     -23.637  -2.575  13.450  1.00 14.58     0.419 C 
HETATM   37  F1    D T   1     -22.795  -3.518  13.055  1.00 18.20    -0.166 F 
HETATM   38  F2    D T   1     -23.091  -1.991  14.511  1.00 18.68    -0.166 F 
HETATM   39  F3    D T   1     -24.815  -3.117  13.833  1.00 14.12    -0.166 F 
ENDBRANCH  26  36
ENDBRANCH   3  22
TORSDOF 7
ENDMDL
MODEL 4
REMARK VINA RESULT:      -9.8      3.105      5.476
REMARK  7 active torsions:
REMARK  status: ('A' for Active; 'I' for Inactive)
REMARK    1  A    between atoms: N3_2  and  C20_12 
REMARK    2  A    between atoms: C4_3  and  C5_4 
REMARK    3  A    between atoms: C13_9  and  N2_29 
REMARK    4  A    between atoms: C17_11  and  C19_33 
REMARK    5  A    between atoms: C20_12  and  C16_31 
REMARK    6  A    between atoms: C2_23  and  C3_24 
REMARK    7  A    between atoms: C9_25  and  C12_27 
REMARK       I    between atoms: C12_27  and  N2_29 
ROOT
HETATM    1  C12   D T   1     -24.423  -2.452  11.401  1.00  8.81     0.275 C 
HETATM    2  O1    D T   1     -24.535  -2.568  12.627  1.00 13.93    -0.266 OA
HETATM    3  N2    D T   1     -23.864  -3.398  10.592  1.00 10.31    -0.208 NA
ENDROOT
BRANCH   1   4
HETATM    4  C9    D T   1     -24.916  -1.217  10.741  1.00 12.21     0.037 A 
HETATM    5  C8    D T   1     -25.914  -1.223   9.687  1.00 10.40     0.036 A 
HETATM    6  C7    D T   1     -26.342   0.042   9.098  1.00  7.63     0.028 A 
HETATM    7  C6    D T   1     -25.788   1.268   9.555  1.00  7.91    -0.036 A 
HETATM    8  C5    D T   1     -24.792   1.257  10.610  1.00 10.18     0.034 A 
HETATM    9  C11   D T   1     -26.269   2.582   8.920  1.00  9.41     0.027 C 
HETATM   10  C10   D T   1     -24.373   0.036  11.183  1.00 11.17     0.008 A 
BRANCH   8  11
HETATM   11  C4    D T   1     -24.185   2.470  11.136  1.00 10.71    -0.059 C 
HETATM   12  C3    D T   1     -23.647   3.427  11.622  1.00 12.15    -0.039 C 
BRANCH  12  13
HETATM   13  C2    D T   1     -22.985   4.505  12.225  1.00 14.46     0.145 A 
HETATM   14  N82   D T   1     -23.084   5.815  11.854  1.00 14.03    -0.203 N 
HETATM   15  N81   D T   1     -23.838   6.328  10.832  1.00 15.71    -0.162 NA
HETATM   16  C84   D T   1     -22.226   6.515  12.761  1.00 14.58     0.165 A 
HETATM   17  C83   D T   1     -23.720   7.660  10.714  1.00 17.09     0.121 A 
HETATM   18  C82   D T   1     -22.905   8.500  11.545  1.00 16.91     0.026 A 
HETATM   19  C81   D T   1     -22.158   7.921  12.570  1.00 15.47     0.041 A 
HETATM   20  N1    D T   1     -21.654   5.677  13.617  1.00 17.79    -0.223 NA
HETATM   21  C1    D T   1     -22.127   4.420  13.277  1.00 15.62     0.128 A 
ENDBRANCH  12  13
ENDBRANCH   8  11
ENDBRANCH   1   4
BRANCH   3  22
HETATM   22  C13   D T   1     -23.670  -4.778  10.919  1.00  8.39     0.085 A 
HETATM   23  C14   D T   1     -23.881  -5.729   9.897  1.00 14.59     0.019 A 
HETATM   24  C15   D T   1     -23.699  -7.119  10.154  1.00 11.91    -0.001 A 
HETATM   25  C16   D T   1     -23.299  -7.587  11.436  1.00 12.96     0.015 A 
HETATM   26  C17   D T   1     -23.078  -6.621  12.503  1.00 14.62     0.071 A 
HETATM   27  C18   D T   1     -23.268  -5.230  12.218  1.00 11.52     0.023 A 
BRANCH  25  28
HETATM   28  C20   D T   1     -23.117  -9.102  11.620  1.00 11.54     0.277 C 
BRANCH  28  29
HETATM   29  N3    D T   1     -21.900  -9.610  11.019  1.00 12.77     0.146 N 
HETATM   30  C21   D T   1     -20.827  -8.597  10.865  1.00  9.68     0.286 C 
HETATM   31  C22   D T   1     -19.630  -9.199  10.083  1.00 12.27     0.286 C 
HETATM   32  N4    D T   1     -19.117 -10.431  10.740  1.00 14.63     0.143 N 
HETATM   33  C23   D T   1     -20.206 -11.416  11.020  1.00 13.23     0.286 C 
HETATM   34  C25   D T   1     -18.046 -11.039   9.943  1.00 14.49     0.285 C 
HETATM   35  C24   D T   1     -21.378 -10.772  11.789  1.00 15.42     0.286 C 
ENDBRANCH  28  29
ENDBRANCH  25  28
BRANCH  26  36
HETATM   36  C19   D T   1     -22.644  -7.026  13.903  1.00 14.58     0.419 C 
HETATM   37  F1    D T   1     -21.582  -7.813  13.827  1.00 18.20    -0.166 F 
HETATM   38  F2    D T   1     -22.297  -5.982  14.647  1.00 18.68    -0.166 F 
HETATM   39  F3    D T   1     -23.664  -7.660  14.524  1.00 14.12    -0.166 F 
ENDBRANCH  26  36
ENDBRANCH   3  22
TORSDOF 7
ENDMDL
MODEL 5
REMARK VINA RESULT:      -9.8      4.159     11.908
REMARK  7 active torsions:
REMARK  status: ('A' for Active; 'I' for Inactive)
REMARK    1  A    between atoms: N3_2  and  C20_12 
REMARK    2  A    between atoms: C4_3  and  C5_4 
REMARK    3  A    between atoms: C13_9  and  N2_29 
REMARK    4  A    between atoms: C17_11  and  C19_33 
REMARK    5  A    between atoms: C20_12  and  C16_31 
REMARK    6  A    between atoms: C2_23  and  C3_24 
REMARK    7  A    between atoms: C9_25  and  C12_27 
REMARK       I    between atoms: C12_27  and  N2_29 
ROOT
HETATM    1  C12   D T   1     -23.396  -0.844  13.117  1.00  8.81     0.275 C 
HETATM    2  O1    D T   1     -23.020  -0.686  14.283  1.00 13.93    -0.266 OA
HETATM    3  N2    D T   1     -23.719   0.178  12.272  1.00 10.31    -0.208 NA
ENDROOT
BRANCH   1   4
HETATM    4  C9    D T   1     -23.517  -2.221  12.575  1.00 12.21     0.037 A 
HETATM    5  C8    D T   1     -23.014  -3.394  13.266  1.00 10.40     0.036 A 
HETATM    6  C7    D T   1     -23.181  -4.711  12.658  1.00  7.63     0.028 A 
HETATM    7  C6    D T   1     -23.831  -4.842  11.402  1.00  7.91    -0.036 A 
HETATM    8  C5    D T   1     -24.329  -3.660  10.724  1.00 10.18     0.034 A 
HETATM    9  C11   D T   1     -23.999  -6.243  10.796  1.00  9.41     0.027 C 
HETATM   10  C10   D T   1     -24.170  -2.383  11.307  1.00 11.17     0.008 A 
BRANCH   8  11
HETATM   11  C4    D T   1     -25.013  -3.713   9.441  1.00 10.71    -0.059 C 
HETATM   12  C3    D T   1     -25.512  -3.732   8.349  1.00 12.15    -0.039 C 
BRANCH  12  13
HETATM   13  C2    D T   1     -26.038  -3.743   7.050  1.00 14.46     0.145 A 
HETATM   14  N82   D T   1     -25.728  -4.638   6.067  1.00 14.03    -0.203 N 
HETATM   15  N81   D T   1     -24.853  -5.689   6.156  1.00 15.71    -0.162 NA
HETATM   16  C84   D T   1     -26.511  -4.229   4.943  1.00 14.58     0.165 A 
HETATM   17  C83   D T   1     -24.759  -6.387   5.013  1.00 17.09     0.121 A 
HETATM   18  C82   D T   1     -25.479  -6.104   3.804  1.00 16.91     0.026 A 
HETATM   19  C81   D T   1     -26.355  -5.020   3.774  1.00 15.47     0.041 A 
HETATM   20  N1    D T   1     -27.239  -3.158   5.235  1.00 17.79    -0.223 NA
HETATM   21  C1    D T   1     -26.938  -2.853   6.553  1.00 15.62     0.128 A 
ENDBRANCH  12  13
ENDBRANCH   8  11
ENDBRANCH   1   4
BRANCH   3  22
HETATM   22  C13   D T   1     -23.337   1.548  12.424  1.00  8.39     0.085 A 
HETATM   23  C14   D T   1     -24.290   2.439  12.963  1.00 14.59     0.019 A 
HETATM   24  C15   D T   1     -23.972   3.816  13.145  1.00 11.91    -0.001 A 
HETATM   25  C16   D T   1     -22.693   4.332  12.796  1.00 12.96     0.015 A 
HETATM   26  C17   D T   1     -21.697   3.428  12.237  1.00 14.62     0.071 A 
HETATM   27  C18   D T   1     -22.043   2.049  12.064  1.00 11.52     0.023 A 
BRANCH  25  28
HETATM   28  C20   D T   1     -22.435   5.827  13.037  1.00 11.54     0.277 C 
BRANCH  28  29
HETATM   29  N3    D T   1     -23.410   6.687  12.398  1.00 12.77     0.146 N 
HETATM   30  C21   D T   1     -23.285   8.122  12.756  1.00  9.68     0.286 C 
HETATM   31  C22   D T   1     -24.457   8.931  12.142  1.00 12.27     0.286 C 
HETATM   32  N4    D T   1     -24.528   8.749  10.667  1.00 14.63     0.143 N 
HETATM   33  C23   D T   1     -24.528   7.306  10.277  1.00 13.23     0.286 C 
HETATM   34  C25   D T   1     -25.694   9.447  10.111  1.00 14.49     0.285 C 
HETATM   35  C24   D T   1     -23.353   6.540  10.918  1.00 15.42     0.286 C 
ENDBRANCH  28  29
ENDBRANCH  25  28
BRANCH  26  36
HETATM   36  C19   D T   1     -20.303   3.886  11.839  1.00 14.58     0.419 C 
HETATM   37  F1    D T   1     -19.676   2.903  11.211  1.00 18.20    -0.166 F 
HETATM   38  F2    D T   1     -20.329   4.921  11.006  1.00 18.68    -0.166 F 
HETATM   39  F3    D T   1     -19.619   4.258  12.944  1.00 14.12    -0.166 F 
ENDBRANCH  26  36
ENDBRANCH   3  22
TORSDOF 7
ENDMDL
MODEL 6
REMARK VINA RESULT:      -9.6      4.950      7.572
REMARK  7 active torsions:
REMARK  status: ('A' for Active; 'I' for Inactive)
REMARK    1  A    between atoms: N3_2  and  C20_12 
REMARK    2  A    between atoms: C4_3  and  C5_4 
REMARK    3  A    between atoms: C13_9  and  N2_29 
REMARK    4  A    between atoms: C17_11  and  C19_33 
REMARK    5  A    between atoms: C20_12  and  C16_31 
REMARK    6  A    between atoms: C2_23  and  C3_24 
REMARK    7  A    between atoms: C9_25  and  C12_27 
REMARK       I    between atoms: C12_27  and  N2_29 
ROOT
HETATM    1  C12   D T   1     -25.239  -2.883  10.247  1.00  8.81     0.275 C 
HETATM    2  O1    D T   1     -25.895  -3.421   9.349  1.00 13.93    -0.266 OA
HETATM    3  N2    D T   1     -24.574  -3.566  11.223  1.00 10.31    -0.208 NA
ENDROOT
BRANCH   1   4
HETATM    4  C9    D T   1     -25.154  -1.401  10.294  1.00 12.21     0.037 A 
HETATM    5  C8    D T   1     -26.250  -0.530   9.912  1.00 10.40     0.036 A 
HETATM    6  C7    D T   1     -26.077   0.918   9.994  1.00  7.63     0.028 A 
HETATM    7  C6    D T   1     -24.847   1.467  10.445  1.00  7.91    -0.036 A 
HETATM    8  C5    D T   1     -23.761   0.582  10.824  1.00 10.18     0.034 A 
HETATM    9  C11   D T   1     -24.703   2.994  10.529  1.00  9.41     0.027 C 
HETATM   10  C10   D T   1     -23.922  -0.819  10.747  1.00 11.17     0.008 A 
BRANCH   8  11
HETATM   11  C4    D T   1     -22.476   1.068  11.303  1.00 10.71    -0.059 C 
HETATM   12  C3    D T   1     -21.401   1.398  11.724  1.00 12.15    -0.039 C 
BRANCH  12  13
HETATM   13  C2    D T   1     -20.134   1.722  12.228  1.00 14.46     0.145 A 
HETATM   14  N82   D T   1     -18.982   1.023  12.008  1.00 14.03    -0.203 N 
HETATM   15  N81   D T   1     -18.838  -0.117  11.263  1.00 15.71    -0.162 NA
HETATM   16  C84   D T   1     -17.978   1.743  12.730  1.00 14.58     0.165 A 
HETATM   17  C83   D T   1     -17.575  -0.571  11.241  1.00 17.09     0.121 A 
HETATM   18  C82   D T   1     -16.461   0.039  11.909  1.00 16.91     0.026 A 
HETATM   19  C81   D T   1     -16.668   1.199  12.655  1.00 15.47     0.041 A 
HETATM   20  N1    D T   1     -18.497   2.801  13.340  1.00 17.79    -0.223 NA
HETATM   21  C1    D T   1     -19.848   2.783  13.028  1.00 15.62     0.128 A 
ENDBRANCH  12  13
ENDBRANCH   8  11
ENDBRANCH   1   4
BRANCH   3  22
HETATM   22  C13   D T   1     -24.200  -4.947  11.179  1.00  8.39     0.085 A 
HETATM   23  C14   D T   1     -23.831  -5.486   9.927  1.00 14.59     0.019 A 
HETATM   24  C15   D T   1     -23.443  -6.853   9.815  1.00 11.91    -0.001 A 
HETATM   25  C16   D T   1     -23.411  -7.708  10.951  1.00 12.96     0.015 A 
HETATM   26  C17   D T   1     -23.791  -7.170  12.250  1.00 14.62     0.071 A 
HETATM   27  C18   D T   1     -24.177  -5.793  12.335  1.00 11.52     0.023 A 
BRANCH  25  28
HETATM   28  C20   D T   1     -22.970  -9.164  10.738  1.00 11.54     0.277 C 
BRANCH  28  29
HETATM   29  N3    D T   1     -21.785  -9.289   9.912  1.00 12.77     0.146 N 
HETATM   30  C21   D T   1     -20.522  -9.435  10.677  1.00  9.68     0.286 C 
HETATM   31  C22   D T   1     -19.307  -9.411   9.713  1.00 12.27     0.286 C 
HETATM   32  N4    D T   1     -19.425 -10.460   8.665  1.00 14.63     0.143 N 
HETATM   33  C23   D T   1     -20.745 -10.411   7.965  1.00 13.23     0.286 C 
HETATM   34  C25   D T   1     -18.316 -10.369   7.708  1.00 14.49     0.285 C 
HETATM   35  C24   D T   1     -21.923 -10.427   8.962  1.00 15.42     0.286 C 
ENDBRANCH  28  29
ENDBRANCH  25  28
BRANCH  26  36
HETATM   36  C19   D T   1     -23.784  -8.006  13.520  1.00 14.58     0.419 C 
HETATM   37  F1    D T   1     -22.537  -8.323  13.835  1.00 18.20    -0.166 F 
HETATM   38  F2    D T   1     -24.288  -7.351  14.560  1.00 18.68    -0.166 F 
HETATM   39  F3    D T   1     -24.526  -9.120  13.329  1.00 14.12    -0.166 F 
ENDBRANCH  26  36
ENDBRANCH   3  22
TORSDOF 7
ENDMDL
MODEL 7
REMARK VINA RESULT:      -9.6      2.787      4.712
REMARK  7 active torsions:
REMARK  status: ('A' for Active; 'I' for Inactive)
REMARK    1  A    between atoms: N3_2  and  C20_12 
REMARK    2  A    between atoms: C4_3  and  C5_4 
REMARK    3  A    between atoms: C13_9  and  N2_29 
REMARK    4  A    between atoms: C17_11  and  C19_33 
REMARK    5  A    between atoms: C20_12  and  C16_31 
REMARK    6  A    between atoms: C2_23  and  C3_24 
REMARK    7  A    between atoms: C9_25  and  C12_27 
REMARK       I    between atoms: C12_27  and  N2_29 
ROOT
HETATM    1  C12   D T   1     -23.813  -2.221  11.249  1.00  8.81     0.275 C 
HETATM    2  O1    D T   1     -23.795  -1.913  10.052  1.00 13.93    -0.266 OA
HETATM    3  N2    D T   1     -24.000  -3.492  11.709  1.00 10.31    -0.208 NA
ENDROOT
BRANCH   1   4
HETATM    4  C9    D T   1     -23.624  -1.162  12.273  1.00 12.21     0.037 A 
HETATM    5  C8    D T   1     -23.208  -1.440  13.635  1.00 10.40     0.036 A 
HETATM    6  C7    D T   1     -23.044  -0.334  14.574  1.00  7.63     0.028 A 
HETATM    7  C6    D T   1     -23.289   1.002  14.157  1.00  7.91    -0.036 A 
HETATM    8  C5    D T   1     -23.705   1.262  12.791  1.00 10.18     0.034 A 
HETATM    9  C11   D T   1     -23.098   2.142  15.167  1.00  9.41     0.027 C 
HETATM   10  C10   D T   1     -23.865   0.196  11.878  1.00 11.17     0.008 A 
BRANCH   8  11
HETATM   11  C4    D T   1     -23.967   2.602  12.286  1.00 10.71    -0.059 C 
HETATM   12  C3    D T   1     -24.107   3.717  11.866  1.00 12.15    -0.039 C 
BRANCH  12  13
HETATM   13  C2    D T   1     -24.208   5.023  11.366  1.00 14.46     0.145 A 
HETATM   14  N82   D T   1     -23.456   6.092  11.760  1.00 14.03    -0.203 N 
HETATM   15  N81   D T   1     -22.469   6.100  12.710  1.00 15.71    -0.162 NA
HETATM   16  C84   D T   1     -23.935   7.184  10.969  1.00 14.58     0.165 A 
HETATM   17  C83   D T   1     -21.915   7.312  12.876  1.00 17.09     0.121 A 
HETATM   18  C82   D T   1     -22.282   8.499  12.159  1.00 16.91     0.026 A 
HETATM   19  C81   D T   1     -23.296   8.430  11.204  1.00 15.47     0.041 A 
HETATM   20  N1    D T   1     -24.909   6.791  10.157  1.00 17.79    -0.223 NA
HETATM   21  C1    D T   1     -25.081   5.440  10.410  1.00 15.62     0.128 A 
ENDBRANCH  12  13
ENDBRANCH   8  11
ENDBRANCH   1   4
BRANCH   3  22
HETATM   22  C13   D T   1     -23.830  -4.695  10.952  1.00  8.39     0.085 A 
HETATM   23  C14   D T   1     -23.546  -5.882  11.663  1.00 14.59     0.019 A 
HETATM   24  C15   D T   1     -23.370  -7.114  10.971  1.00 11.91    -0.001 A 
HETATM   25  C16   D T   1     -23.479  -7.189   9.554  1.00 12.96     0.015 A 
HETATM   26  C17   D T   1     -23.769  -5.975   8.804  1.00 14.62     0.071 A 
HETATM   27  C18   D T   1     -23.941  -4.749   9.525  1.00 11.52     0.023 A 
BRANCH  25  28
HETATM   28  C20   D T   1     -23.285  -8.563   8.894  1.00 11.54     0.277 C 
BRANCH  28  29
HETATM   29  N3    D T   1     -21.990  -9.153   9.168  1.00 12.77     0.146 N 
HETATM   30  C21   D T   1     -22.015 -10.628   9.332  1.00  9.68     0.286 C 
HETATM   31  C22   D T   1     -20.618 -11.142   9.767  1.00 12.27     0.286 C 
HETATM   32  N4    D T   1     -19.562 -10.725   8.805  1.00 14.63     0.143 N 
HETATM   33  C23   D T   1     -19.600  -9.257   8.529  1.00 13.23     0.286 C 
HETATM   34  C25   D T   1     -18.236 -11.140   9.275  1.00 14.49     0.285 C 
HETATM   35  C24   D T   1     -21.009  -8.789   8.110  1.00 15.42     0.286 C 
ENDBRANCH  28  29
ENDBRANCH  25  28
BRANCH  26  36
HETATM   36  C19   D T   1     -23.908  -5.958   7.290  1.00 14.58     0.419 C 
HETATM   37  F1    D T   1     -22.770  -6.345   6.736  1.00 18.20    -0.166 F 
HETATM   38  F2    D T   1     -24.849  -6.790   6.859  1.00 18.68    -0.166 F 
HETATM   39  F3    D T   1     -24.236  -4.710   6.883  1.00 14.12    -0.166 F 
ENDBRANCH  26  36
ENDBRANCH   3  22
TORSDOF 7
ENDMDL
MODEL 8
REMARK VINA RESULT:      -9.5      4.016     12.698
REMARK  7 active torsions:
REMARK  status: ('A' for Active; 'I' for Inactive)
REMARK    1  A    between atoms: N3_2  and  C20_12 
REMARK    2  A    between atoms: C4_3  and  C5_4 
REMARK    3  A    between atoms: C13_9  and  N2_29 
REMARK    4  A    between atoms: C17_11  and  C19_33 
REMARK    5  A    between atoms: C20_12  and  C16_31 
REMARK    6  A    between atoms: C2_23  and  C3_24 
REMARK    7  A    between atoms: C9_25  and  C12_27 
REMARK       I    between atoms: C12_27  and  N2_29 
ROOT
HETATM    1  C12   D T   1     -23.502   0.083  11.493  1.00  8.81     0.275 C 
HETATM    2  O1    D T   1     -24.283   0.658  10.727  1.00 13.93    -0.266 OA
HETATM    3  N2    D T   1     -22.464   0.697  12.130  1.00 10.31    -0.208 NA
ENDROOT
BRANCH   1   4
HETATM    4  C9    D T   1     -23.680  -1.369  11.753  1.00 12.21     0.037 A 
HETATM    5  C8    D T   1     -23.691  -1.941  13.087  1.00 10.40     0.036 A 
HETATM    6  C7    D T   1     -23.875  -3.380  13.248  1.00  7.63     0.028 A 
HETATM    7  C6    D T   1     -24.044  -4.212  12.109  1.00  7.91    -0.036 A 
HETATM    8  C5    D T   1     -24.031  -3.624  10.783  1.00 10.18     0.034 A 
HETATM    9  C11   D T   1     -24.246  -5.720  12.316  1.00  9.41     0.027 C 
HETATM   10  C10   D T   1     -23.852  -2.232  10.620  1.00 11.17     0.008 A 
BRANCH   8  11
HETATM   11  C4    D T   1     -24.205  -4.408   9.569  1.00 10.71    -0.059 C 
HETATM   12  C3    D T   1     -24.308  -5.001   8.531  1.00 12.15    -0.039 C 
BRANCH  12  13
HETATM   13  C2    D T   1     -24.387  -5.653   7.292  1.00 14.46     0.145 A 
HETATM   14  N82   D T   1     -23.501  -6.575   6.814  1.00 14.03    -0.203 N 
HETATM   15  N81   D T   1     -22.373  -7.038   7.441  1.00 15.71    -0.162 NA
HETATM   16  C84   D T   1     -24.010  -6.934   5.526  1.00 14.58     0.165 A 
HETATM   17  C83   D T   1     -21.703  -7.940   6.708  1.00 17.09     0.121 A 
HETATM   18  C82   D T   1     -22.086  -8.404   5.405  1.00 16.91     0.026 A 
HETATM   19  C81   D T   1     -23.243  -7.896   4.817  1.00 15.47     0.041 A 
HETATM   20  N1    D T   1     -25.126  -6.270   5.254  1.00 17.79    -0.223 NA
HETATM   21  C1    D T   1     -25.358  -5.465   6.359  1.00 15.62     0.128 A 
ENDBRANCH  12  13
ENDBRANCH   8  11
ENDBRANCH   1   4
BRANCH   3  22
HETATM   22  C13   D T   1     -22.318   2.106  12.336  1.00  8.39     0.085 A 
HETATM   23  C14   D T   1     -23.397   2.798  12.927  1.00 14.59     0.019 A 
HETATM   24  C15   D T   1     -23.314   4.200  13.166  1.00 11.91    -0.001 A 
HETATM   25  C16   D T   1     -22.149   4.940  12.822  1.00 12.96     0.015 A 
HETATM   26  C17   D T   1     -21.026   4.245  12.210  1.00 14.62     0.071 A 
HETATM   27  C18   D T   1     -21.136   2.835  11.981  1.00 11.52     0.023 A 
BRANCH  25  28
HETATM   28  C20   D T   1     -22.144   6.447  13.125  1.00 11.54     0.277 C 
BRANCH  28  29
HETATM   29  N3    D T   1     -23.242   7.160  12.503  1.00 12.77     0.146 N 
HETATM   30  C21   D T   1     -23.332   8.592  12.883  1.00  9.68     0.286 C 
HETATM   31  C22   D T   1     -24.616   9.225  12.286  1.00 12.27     0.286 C 
HETATM   32  N4    D T   1     -24.668   9.056  10.809  1.00 14.63     0.143 N 
HETATM   33  C23   D T   1     -24.453   7.635  10.397  1.00 13.23     0.286 C 
HETATM   34  C25   D T   1     -25.928   9.578  10.269  1.00 14.49     0.285 C 
HETATM   35  C24   D T   1     -23.172   7.045  11.021  1.00 15.42     0.286 C 
ENDBRANCH  28  29
ENDBRANCH  25  28
BRANCH  26  36
HETATM   36  C19   D T   1     -19.739   4.950  11.813  1.00 14.58     0.419 C 
HETATM   37  F1    D T   1     -18.954   4.106  11.162  1.00 18.20    -0.166 F 
HETATM   38  F2    D T   1     -19.956   5.979  11.001  1.00 18.68    -0.166 F 
HETATM   39  F3    D T   1     -19.122   5.417  12.922  1.00 14.12    -0.166 F 
ENDBRANCH  26  36
ENDBRANCH   3  22
TORSDOF 7
ENDMDL
MODEL 9
REMARK VINA RESULT:      -9.5      3.183      5.223
REMARK  7 active torsions:
REMARK  status: ('A' for Active; 'I' for Inactive)
REMARK    1  A    between atoms: N3_2  and  C20_12 
REMARK    2  A    between atoms: C4_3  and  C5_4 
REMARK    3  A    between atoms: C13_9  and  N2_29 
REMARK    4  A    between atoms: C17_11  and  C19_33 
REMARK    5  A    between atoms: C20_12  and  C16_31 
REMARK    6  A    between atoms: C2_23  and  C3_24 
REMARK    7  A    between atoms: C9_25  and  C12_27 
REMARK       I    between atoms: C12_27  and  N2_29 
ROOT
HETATM    1  C12   D T   1     -23.724  -2.492  11.348  1.00  8.81     0.275 C 
HETATM    2  O1    D T   1     -23.632  -2.237  10.142  1.00 13.93    -0.266 OA
HETATM    3  N2    D T   1     -23.989  -3.733  11.849  1.00 10.31    -0.208 NA
ENDROOT
BRANCH   1   4
HETATM    4  C9    D T   1     -23.540  -1.399  12.336  1.00 12.21     0.037 A 
HETATM    5  C8    D T   1     -23.132  -1.630  13.710  1.00 10.40     0.036 A 
HETATM    6  C7    D T   1     -22.972  -0.493  14.611  1.00  7.63     0.028 A 
HETATM    7  C6    D T   1     -23.213   0.828  14.147  1.00  7.91    -0.036 A 
HETATM    8  C5    D T   1     -23.621   1.042  12.770  1.00 10.18     0.034 A 
HETATM    9  C11   D T   1     -23.026   2.002  15.118  1.00  9.41     0.027 C 
HETATM   10  C10   D T   1     -23.777  -0.055  11.894  1.00 11.17     0.008 A 
BRANCH   8  11
HETATM   11  C4    D T   1     -23.879   2.363  12.218  1.00 10.71    -0.059 C 
HETATM   12  C3    D T   1     -24.020   3.473  11.783  1.00 12.15    -0.039 C 
BRANCH  12  13
HETATM   13  C2    D T   1     -24.124   4.779  11.285  1.00 14.46     0.145 A 
HETATM   14  N82   D T   1     -23.388   5.853  11.695  1.00 14.03    -0.203 N 
HETATM   15  N81   D T   1     -22.417   5.867  12.662  1.00 15.71    -0.162 NA
HETATM   16  C84   D T   1     -23.861   6.943  10.899  1.00 14.58     0.165 A 
HETATM   17  C83   D T   1     -21.877   7.083  12.841  1.00 17.09     0.121 A 
HETATM   18  C82   D T   1     -22.241   8.269  12.121  1.00 16.91     0.026 A 
HETATM   19  C81   D T   1     -23.237   8.194  11.149  1.00 15.47     0.041 A 
HETATM   20  N1    D T   1     -24.818   6.545  10.068  1.00 17.79    -0.223 NA
HETATM   21  C1    D T   1     -24.983   5.191  10.315  1.00 15.62     0.128 A 
ENDBRANCH  12  13
ENDBRANCH   8  11
ENDBRANCH   1   4
BRANCH   3  22
HETATM   22  C13   D T   1     -23.835  -4.974  11.153  1.00  8.39     0.085 A 
HETATM   23  C14   D T   1     -23.904  -4.947   9.743  1.00 14.59     0.019 A 
HETATM   24  C15   D T   1     -23.753  -6.146   8.988  1.00 11.91    -0.001 A 
HETATM   25  C16   D T   1     -23.525  -7.397   9.626  1.00 12.96     0.015 A 
HETATM   26  C17   D T   1     -23.453  -7.445  11.080  1.00 14.62     0.071 A 
HETATM   27  C18   D T   1     -23.608  -6.225  11.814  1.00 11.52     0.023 A 
BRANCH  25  28
HETATM   28  C20   D T   1     -23.364  -8.636   8.732  1.00 11.54     0.277 C 
BRANCH  28  29
HETATM   29  N3    D T   1     -21.981  -9.002   8.503  1.00 12.77     0.146 N 
HETATM   30  C21   D T   1     -21.707 -10.456   8.615  1.00  9.68     0.286 C 
HETATM   31  C22   D T   1     -20.184 -10.725   8.501  1.00 12.27     0.286 C 
HETATM   32  N4    D T   1     -19.627 -10.168   7.239  1.00 14.63     0.143 N 
HETATM   33  C23   D T   1     -19.998  -8.734   7.044  1.00 13.23     0.286 C 
HETATM   34  C25   D T   1     -18.172 -10.350   7.185  1.00 14.49     0.285 C 
HETATM   35  C24   D T   1     -21.519  -8.512   7.175  1.00 15.42     0.286 C 
ENDBRANCH  28  29
ENDBRANCH  25  28
BRANCH  26  36
HETATM   36  C19   D T   1     -23.208  -8.734  11.849  1.00 14.58     0.419 C 
HETATM   37  F1    D T   1     -23.556  -8.566  13.115  1.00 18.20    -0.166 F 
HETATM   38  F2    D T   1     -23.930  -9.746  11.382  1.00 18.68    -0.166 F 
HETATM   39  F3    D T   1     -21.902  -9.073  11.754  1.00 14.12    -0.166 F 
ENDBRANCH  26  36
ENDBRANCH   3  22
TORSDOF 7
ENDMDL
