MODEL 1
REMARK VINA RESULT:    -9.928      0.000      0.000
REMARK INTER + INTRA:         -13.121
REMARK INTER:                 -12.249
REMARK INTRA:                  -0.872
REMARK UNBOUND:                -0.872
REMARK  4 active torsions:
REMARK  status: ('A' for Active; 'I' for Inactive)
REMARK    1  A    between atoms: C4_6  and  C5_7 
REMARK    2  A    between atoms: C5_7  and  C6_8 
REMARK    3  A    between atoms: C5_7  and  C12_16 
REMARK    4  A    between atoms: C21_27  and  C22_28 
ROOT
HETATM    1  C12   D T 602      -0.625   8.727  -7.129  0.93 11.20    -0.001 C 
HETATM    2  C13   D T 602       0.510   8.215  -7.150  0.93 13.45    -0.005 C 
HETATM    3  C14   D T 602       1.486   8.971  -6.533  0.93 13.80     0.011 C 
HETATM    4  C15   D T 602      -1.139   9.843  -6.501  0.93 11.22     0.031 C 
HETATM    5  C16   D T 602      -0.001  10.844  -5.962  0.93 16.07     0.048 C 
HETATM    6  C17   D T 602       1.363  10.151  -6.236  0.93 15.64     0.040 C 
HETATM    7  N4    D T 602       2.321  11.059  -5.592  0.93 18.36    -0.297 N 
HETATM    8  C18   D T 602       1.911  12.497  -5.110  0.93 18.78     0.133 C 
HETATM    9  C19   D T 602       3.630  10.759  -5.804  0.93 20.18     0.261 C 
HETATM   10  O1    D T 602       4.463  11.594  -5.370  0.93 23.41    -0.267 OA
HETATM   11  C20   D T 602       3.804   9.485  -6.316  0.93 18.07     0.061 C 
HETATM   12  C21   D T 602       2.883   8.528  -6.570  0.93 15.40     0.006 C 
ENDROOT
BRANCH   1  13
HETATM   13  C5    D T 602      -1.784   7.797  -7.512  0.93 11.75     0.334 C 
HETATM   14  N3    D T 602      -3.126   8.027  -7.084  0.93 12.53     0.628 N 
BRANCH  13  15
HETATM   15  C4    D T 602      -1.910   8.116  -9.141  0.93 10.99     0.082 C 
HETATM   16  N1    D T 602      -0.809   8.191 -10.054  0.93 12.88    -0.312 N 
HETATM   17  C1    D T 602       0.620   7.637 -10.009  0.93 11.29     0.132 C 
HETATM   18  C2    D T 602      -1.248   8.535 -11.231  0.93 12.15     0.174 C 
HETATM   19  N2    D T 602      -2.479   8.782 -11.144  0.93 12.12    -0.246 NA
HETATM   20  C3    D T 602      -3.058   8.745  -9.853  0.93 11.32     0.169 C 
ENDBRANCH  13  15
BRANCH  13  21
HETATM   21  C6    D T 602      -1.618   6.240  -7.455  0.93 12.23     0.016 C 
HETATM   22  C7    D T 602      -1.684   5.547  -8.612  0.93  8.55    -0.022 C 
HETATM   23  C8    D T 602      -1.309   4.201  -8.794  0.93 12.58     0.064 C 
HETATM   24  C9    D T 602      -0.677   3.939  -7.415  0.93 13.77     0.040 C 
HETATM   25 CL1    D T 602       0.028   2.146  -7.647  0.93 24.65    -0.087 Cl
HETATM   26  C10   D T 602      -0.582   4.513  -6.352  0.93 16.75     0.007 C 
HETATM   27  C11   D T 602      -1.124   5.850  -6.333  0.93 14.77    -0.001 C 
ENDBRANCH  13  21
ENDBRANCH   1  13
BRANCH  12  28
HETATM   28  C22   D T 602       3.235   7.221  -7.133  0.93 16.80     0.000 C 
HETATM   29  C23   D T 602       2.918   5.999  -6.385  0.93 14.45     0.007 C 
HETATM   30  C24   D T 602       3.334   4.916  -7.152  0.93 15.91     0.040 C 
HETATM   31 CL2    D T 602       3.031   3.353  -6.344  0.93 18.54    -0.087 Cl
HETATM   32  C25   D T 602       4.116   4.813  -8.423  0.93 19.85     0.064 C 
HETATM   33  C26   D T 602       4.130   6.108  -9.071  0.93 17.96    -0.021 C 
HETATM   34  C27   D T 602       3.794   7.153  -8.373  0.93 18.50    -0.004 C 
ENDBRANCH  12  28
TORSDOF 4
ENDMDL
MODEL 2
REMARK VINA RESULT:    -9.787      3.559      6.772
REMARK INTER + INTRA:         -12.948
REMARK INTER:                 -11.877
REMARK INTRA:                  -1.071
REMARK UNBOUND:                -0.872
REMARK  4 active torsions:
REMARK  status: ('A' for Active; 'I' for Inactive)
REMARK    1  A    between atoms: C4_6  and  C5_7 
REMARK    2  A    between atoms: C5_7  and  C6_8 
REMARK    3  A    between atoms: C5_7  and  C12_16 
REMARK    4  A    between atoms: C21_27  and  C22_28 
ROOT
HETATM    1  C12   D T 602       2.647   7.538  -6.942  0.93 11.20    -0.001 C 
HETATM    2  C13   D T 602       1.463   7.275  -7.223  0.93 13.45    -0.005 C 
HETATM    3  C14   D T 602       1.134   5.940  -7.102  0.93 13.80     0.011 C 
HETATM    4  C15   D T 602       3.674   6.787  -6.407  0.93 11.22     0.031 C 
HETATM    5  C16   D T 602       3.389   5.204  -6.456  0.93 16.07     0.048 C 
HETATM    6  C17   D T 602       1.947   5.031  -7.010  0.93 15.64     0.040 C 
HETATM    7  N4    D T 602       1.726   3.585  -6.887  0.93 18.36    -0.297 N 
HETATM    8  C18   D T 602       2.899   2.585  -6.581  0.93 18.78     0.133 C 
HETATM    9  C19   D T 602       0.571   3.130  -7.441  0.93 20.18     0.261 C 
HETATM   10  O1    D T 602       0.424   1.882  -7.459  0.93 23.41    -0.267 OA
HETATM   11  C20   D T 602      -0.315   4.153  -7.731  0.93 18.07     0.061 C 
HETATM   12  C21   D T 602      -0.202   5.480  -7.494  0.93 15.40     0.006 C 
ENDROOT
BRANCH   1  13
HETATM   13  C5    D T 602       2.974   9.026  -6.756  0.93 11.75     0.334 C 
HETATM   14  N3    D T 602       4.047   9.478  -5.931  0.93 12.53     0.628 N 
BRANCH  13  15
HETATM   15  C4    D T 602       3.552   9.406  -8.270  0.93 10.99     0.082 C 
HETATM   16  N1    D T 602       4.937   9.510  -8.622  0.93 12.88    -0.312 N 
HETATM   17  C1    D T 602       6.216   8.950  -7.990  0.93 11.29     0.132 C 
HETATM   18  C2    D T 602       5.038   9.899  -9.860  0.93 12.15     0.174 C 
HETATM   19  N2    D T 602       3.885  10.148 -10.299  0.93 12.12    -0.246 NA
HETATM   20  C3    D T 602       2.811  10.065  -9.381  0.93 11.32     0.169 C 
ENDBRANCH  13  15
BRANCH  13  21
HETATM   21  C6    D T 602       1.835  10.076  -6.523  0.93 12.23     0.016 C 
HETATM   22  C7    D T 602       0.555   9.679  -6.692  0.93  8.55    -0.022 C 
HETATM   23  C8    D T 602      -0.592  10.389  -6.287  0.93 12.58     0.064 C 
HETATM   24  C9    D T 602       0.090  11.518  -5.495  0.93 13.77     0.040 C 
HETATM   25 CL1    D T 602      -1.441  12.450  -4.751  0.93 24.65    -0.087 Cl
HETATM   26  C10   D T 602       1.218  11.921  -5.304  0.93 16.75     0.007 C 
HETATM   27  C11   D T 602       2.259  11.114  -5.892  0.93 14.77    -0.001 C 
ENDBRANCH  13  21
ENDBRANCH   1  13
BRANCH  12  28
HETATM   28  C22   D T 602      -1.237   6.443  -7.882  0.93 16.80     0.000 C 
HETATM   29  C23   D T 602      -1.507   6.685  -9.304  0.93 14.45     0.007 C 
HETATM   30  C24   D T 602      -2.539   7.614  -9.385  0.93 15.91     0.040 C 
HETATM   31 CL2    D T 602      -2.956   8.025 -11.072  0.93 18.54    -0.087 Cl
HETATM   32  C25   D T 602      -3.244   8.440  -8.356  0.93 19.85     0.064 C 
HETATM   33  C26   D T 602      -2.969   7.891  -7.045  0.93 17.96    -0.021 C 
HETATM   34  C27   D T 602      -1.980   7.054  -6.919  0.93 18.50    -0.004 C 
ENDBRANCH  12  28
TORSDOF 4
ENDMDL
MODEL 3
REMARK VINA RESULT:    -8.870      2.218      4.421
REMARK INTER + INTRA:         -11.817
REMARK INTER:                 -11.609
REMARK INTRA:                  -0.208
REMARK UNBOUND:                -0.872
REMARK  4 active torsions:
REMARK  status: ('A' for Active; 'I' for Inactive)
REMARK    1  A    between atoms: C4_6  and  C5_7 
REMARK    2  A    between atoms: C5_7  and  C6_8 
REMARK    3  A    between atoms: C5_7  and  C12_16 
REMARK    4  A    between atoms: C21_27  and  C22_28 
ROOT
HETATM    1  C12   D T 602       0.791   7.110  -6.544  0.93 11.20    -0.001 C 
HETATM    2  C13   D T 602       0.534   8.326  -6.480  0.93 13.45    -0.005 C 
HETATM    3  C14   D T 602       1.643   9.146  -6.533  0.93 13.80     0.011 C 
HETATM    4  C15   D T 602       1.955   6.409  -6.787  0.93 11.22     0.031 C 
HETATM    5  C16   D T 602       3.277   7.312  -6.641  0.93 16.07     0.048 C 
HETATM    6  C17   D T 602       2.794   8.764  -6.370  0.93 15.64     0.040 C 
HETATM    7  N4    D T 602       4.047   9.531  -6.392  0.93 18.36    -0.297 N 
HETATM    8  C18   D T 602       5.452   8.830  -6.358  0.93 18.78     0.133 C 
HETATM    9  C19   D T 602       3.928  10.837  -6.037  0.93 20.18     0.261 C 
HETATM   10  O1    D T 602       5.004  11.477  -5.926  0.93 23.41    -0.267 OA
HETATM   11  C20   D T 602       2.612  11.266  -6.033  0.93 18.07     0.061 C 
HETATM   12  C21   D T 602       1.488  10.594  -6.371  0.93 15.40     0.006 C 
ENDROOT
BRANCH   1  13
HETATM   13  C5    D T 602      -0.407   6.187  -6.808  0.93 11.75     0.334 C 
HETATM   14  N3    D T 602      -1.471   6.025  -5.871  0.93 12.53     0.628 N 
BRANCH  13  15
HETATM   15  C4    D T 602      -1.177   7.022  -8.024  0.93 10.99     0.082 C 
HETATM   16  N1    D T 602      -0.541   7.547  -9.196  0.93 12.88    -0.312 N 
HETATM   17  C1    D T 602       0.773   7.204  -9.908  0.93 11.29     0.132 C 
HETATM   18  C2    D T 602      -1.413   8.209  -9.899  0.93 12.15     0.174 C 
HETATM   19  N2    D T 602      -2.498   8.247  -9.262  0.93 12.12    -0.246 NA
HETATM   20  C3    D T 602      -2.503   7.698  -7.958  0.93 11.32     0.169 C 
ENDBRANCH  13  15
BRANCH  13  21
HETATM   21  C6    D T 602      -0.201   4.758  -7.416  0.93 12.23     0.016 C 
HETATM   22  C7    D T 602       0.734   3.956  -6.863  0.93  8.55    -0.022 C 
HETATM   23  C8    D T 602       0.883   2.575  -7.096  0.93 12.58     0.064 C 
HETATM   24  C9    D T 602      -0.388   2.333  -7.930  0.93 13.77     0.040 C 
HETATM   25 CL1    D T 602      -0.348   0.405  -8.146  0.93 24.65    -0.087 Cl
HETATM   26  C10   D T 602      -1.258   3.000  -8.447  0.93 16.75     0.007 C 
HETATM   27  C11   D T 602      -1.180   4.415  -8.178  0.93 14.77    -0.001 C 
ENDBRANCH  13  21
ENDBRANCH   1  13
BRANCH  12  28
HETATM   28  C22   D T 602       0.154  11.196  -6.294  0.93 16.80     0.000 C 
HETATM   29  C23   D T 602      -0.817  10.947  -7.366  0.93 14.45     0.007 C 
HETATM   30  C24   D T 602      -1.994  11.610  -7.032  0.93 15.91     0.040 C 
HETATM   31 CL2    D T 602      -3.263  11.413  -8.272  0.93 18.54    -0.087 Cl
HETATM   32  C25   D T 602      -2.343  12.567  -5.936  0.93 19.85     0.064 C 
HETATM   33  C26   D T 602      -1.325  12.495  -4.908  0.93 17.96    -0.021 C 
HETATM   34  C27   D T 602      -0.192  11.926  -5.198  0.93 18.50    -0.004 C 
ENDBRANCH  12  28
TORSDOF 4
ENDMDL
MODEL 4
REMARK VINA RESULT:    -8.807      1.594      2.192
REMARK INTER + INTRA:         -11.739
REMARK INTER:                 -10.931
REMARK INTRA:                  -0.808
REMARK UNBOUND:                -0.872
REMARK  4 active torsions:
REMARK  status: ('A' for Active; 'I' for Inactive)
REMARK    1  A    between atoms: C4_6  and  C5_7 
REMARK    2  A    between atoms: C5_7  and  C6_8 
REMARK    3  A    between atoms: C5_7  and  C12_16 
REMARK    4  A    between atoms: C21_27  and  C22_28 
ROOT
HETATM    1  C12   D T 602       1.021   9.894  -6.565  0.93 11.20    -0.001 C 
HETATM    2  C13   D T 602       1.968   9.095  -6.682  0.93 13.45    -0.005 C 
HETATM    3  C14   D T 602       3.142   9.513  -6.088  0.93 13.80     0.011 C 
HETATM    4  C15   D T 602       0.863  11.064  -5.849  0.93 11.22     0.031 C 
HETATM    5  C16   D T 602       2.256  11.677  -5.330  0.93 16.07     0.048 C 
HETATM    6  C17   D T 602       3.363  10.659  -5.722  0.93 15.64     0.040 C 
HETATM    7  N4    D T 602       4.562  11.226  -5.092  0.93 18.36    -0.297 N 
HETATM    8  C18   D T 602       4.586  12.686  -4.511  0.93 18.78     0.133 C 
HETATM    9  C19   D T 602       5.726  10.596  -5.399  0.93 20.18     0.261 C 
HETATM   10  O1    D T 602       6.775  11.141  -4.974  0.93 23.41    -0.267 OA
HETATM   11  C20   D T 602       5.519   9.359  -5.986  0.93 18.07     0.061 C 
HETATM   12  C21   D T 602       4.359   8.710  -6.233  0.93 15.40     0.006 C 
ENDROOT
BRANCH   1  13
HETATM   13  C5    D T 602      -0.366   9.344  -6.925  0.93 11.75     0.334 C 
HETATM   14  N3    D T 602      -1.565   9.834  -6.325  0.93 12.53     0.628 N 
BRANCH  13  15
HETATM   15  C4    D T 602      -0.530   9.914  -8.480  0.93 10.99     0.082 C 
HETATM   16  N1    D T 602      -1.689  10.579  -8.997  0.93 12.88    -0.312 N 
HETATM   17  C1    D T 602      -2.848  11.324  -8.325  0.93 11.29     0.132 C 
HETATM   18  C2    D T 602      -1.516  10.821 -10.265  0.93 12.15     0.174 C 
HETATM   19  N2    D T 602      -0.429  10.301 -10.629  0.93 12.12    -0.246 NA
HETATM   20  C3    D T 602       0.267   9.522  -9.676  0.93 11.32     0.169 C 
ENDBRANCH  13  15
BRANCH  13  21
HETATM   21  C6    D T 602      -0.605   7.802  -7.072  0.93 12.23     0.016 C 
HETATM   22  C7    D T 602       0.233   7.098  -7.862  0.93  8.55    -0.022 C 
HETATM   23  C8    D T 602       0.337   5.694  -7.915  0.93 12.58     0.064 C 
HETATM   24  C9    D T 602      -0.583   5.340  -6.733  0.93 13.77     0.040 C 
HETATM   25 CL1    D T 602      -0.354   3.416  -6.627  0.93 24.65    -0.087 Cl
HETATM   26  C10   D T 602      -1.348   5.918  -5.992  0.93 16.75     0.007 C 
HETATM   27  C11   D T 602      -1.395   7.350  -6.163  0.93 14.77    -0.001 C 
ENDBRANCH  13  21
ENDBRANCH   1  13
BRANCH  12  28
HETATM   28  C22   D T 602       4.311   7.397  -6.884  0.93 16.80     0.000 C 
HETATM   29  C23   D T 602       3.763   6.246  -6.158  0.93 14.45     0.007 C 
HETATM   30  C24   D T 602       3.815   5.146  -7.008  0.93 15.91     0.040 C 
HETATM   31 CL2    D T 602       3.198   3.658  -6.238  0.93 18.54    -0.087 Cl
HETATM   32  C25   D T 602       4.423   4.936  -8.359  0.93 19.85     0.064 C 
HETATM   33  C26   D T 602       4.708   6.227  -8.951  0.93 17.96    -0.021 C 
HETATM   34  C27   D T 602       4.716   7.274  -8.178  0.93 18.50    -0.004 C 
ENDBRANCH  12  28
TORSDOF 4
ENDMDL
MODEL 5
REMARK VINA RESULT:    -8.757      2.656      4.589
REMARK INTER + INTRA:         -11.677
REMARK INTER:                 -10.182
REMARK INTRA:                  -1.496
REMARK UNBOUND:                -0.872
REMARK  4 active torsions:
REMARK  status: ('A' for Active; 'I' for Inactive)
REMARK    1  A    between atoms: C4_6  and  C5_7 
REMARK    2  A    between atoms: C5_7  and  C6_8 
REMARK    3  A    between atoms: C5_7  and  C12_16 
REMARK    4  A    between atoms: C21_27  and  C22_28 
ROOT
HETATM    1  C12   D T 602       0.129  10.296  -6.281  0.93 11.20    -0.001 C 
HETATM    2  C13   D T 602       1.251  10.756  -5.998  0.93 13.45    -0.005 C 
HETATM    3  C14   D T 602       1.219  11.899  -5.225  0.93 13.80     0.011 C 
HETATM    4  C15   D T 602      -1.149  10.622  -5.874  0.93 11.22     0.031 C 
HETATM    5  C16   D T 602      -1.234  12.059  -5.156  0.93 16.07     0.048 C 
HETATM    6  C17   D T 602       0.224  12.588  -5.051  0.93 15.64     0.040 C 
HETATM    7  N4    D T 602       0.064  13.820  -4.267  0.93 18.36    -0.297 N 
HETATM    8  C18   D T 602      -1.346  14.460  -3.999  0.93 18.78     0.133 C 
HETATM    9  C19   D T 602       1.188  14.573  -4.143  0.93 20.18     0.261 C 
HETATM   10  O1    D T 602       1.044  15.691  -3.587  0.93 23.41    -0.267 OA
HETATM   11  C20   D T 602       2.331  13.881  -4.506  0.93 18.07     0.061 C 
HETATM   12  C21   D T 602       2.467  12.595  -4.901  0.93 15.40     0.006 C 
ENDROOT
BRANCH   1  13
HETATM   13  C5    D T 602       0.116   8.874  -6.858  0.93 11.75     0.334 C 
HETATM   14  N3    D T 602      -0.962   7.966  -6.636  0.93 12.53     0.628 N 
BRANCH  13  15
HETATM   15  C4    D T 602      -0.072   9.201  -8.480  0.93 10.99     0.082 C 
HETATM   16  N1    D T 602      -0.114   8.218  -9.521  0.93 12.88    -0.312 N 
HETATM   17  C1    D T 602      -0.426   6.717  -9.522  0.93 11.29     0.132 C 
HETATM   18  C2    D T 602      -0.191   8.816 -10.675  0.93 12.15     0.174 C 
HETATM   19  N2    D T 602      -0.102  10.058 -10.491  0.93 12.12    -0.246 NA
HETATM   20  C3    D T 602       0.157  10.501  -9.172  0.93 11.32     0.169 C 
ENDBRANCH  13  15
BRANCH  13  21
HETATM   21  C6    D T 602       1.399   7.976  -6.811  0.93 12.23     0.016 C 
HETATM   22  C7    D T 602       2.593   8.554  -7.061  0.93  8.55    -0.022 C 
HETATM   23  C8    D T 602       3.857   7.982  -6.816  0.93 12.58     0.064 C 
HETATM   24  C9    D T 602       3.408   6.720  -6.058  0.93 13.77     0.040 C 
HETATM   25 CL1    D T 602       5.112   5.959  -5.528  0.93 24.65    -0.087 Cl
HETATM   26  C10   D T 602       2.366   6.156  -5.800  0.93 16.75     0.007 C 
HETATM   27  C11   D T 602       1.176   6.851  -6.228  0.93 14.77    -0.001 C 
ENDBRANCH  13  21
ENDBRANCH   1  13
BRANCH  12  28
HETATM   28  C22   D T 602       3.761  12.014  -5.270  0.93 16.80     0.000 C 
HETATM   29  C23   D T 602       4.386  12.384  -6.545  0.93 14.45     0.007 C 
HETATM   30  C24   D T 602       5.602  11.715  -6.629  0.93 15.91     0.040 C 
HETATM   31 CL2    D T 602       6.464  12.055  -8.156  0.93 18.54    -0.087 Cl
HETATM   32  C25   D T 602       6.241  10.661  -5.781  0.93 19.85     0.064 C 
HETATM   33  C26   D T 602       5.563  10.614  -4.502  0.93 17.96    -0.021 C 
HETATM   34  C27   D T 602       4.400  11.187  -4.396  0.93 18.50    -0.004 C 
ENDBRANCH  12  28
TORSDOF 4
ENDMDL
MODEL 6
REMARK VINA RESULT:    -8.699      2.580      6.025
REMARK INTER + INTRA:         -11.606
REMARK INTER:                  -9.920
REMARK INTRA:                  -1.685
REMARK UNBOUND:                -0.872
REMARK  4 active torsions:
REMARK  status: ('A' for Active; 'I' for Inactive)
REMARK    1  A    between atoms: C4_6  and  C5_7 
REMARK    2  A    between atoms: C5_7  and  C6_8 
REMARK    3  A    between atoms: C5_7  and  C12_16 
REMARK    4  A    between atoms: C21_27  and  C22_28 
ROOT
HETATM    1  C12   D T 602       1.520   8.304  -9.950  0.93 11.20    -0.001 C 
HETATM    2  C13   D T 602       0.662   7.688  -9.291  0.93 13.45    -0.005 C 
HETATM    3  C14   D T 602      -0.615   7.762  -9.810  0.93 13.80     0.011 C 
HETATM    4  C15   D T 602       1.482   8.945 -11.172  0.93 11.22     0.031 C 
HETATM    5  C16   D T 602      -0.014   9.229 -11.689  0.93 16.07     0.048 C 
HETATM    6  C17   D T 602      -0.971   8.567 -10.659  0.93 15.64     0.040 C 
HETATM    7  N4    D T 602      -2.290   8.752 -11.280  0.93 18.36    -0.297 N 
HETATM    8  C18   D T 602      -2.508   9.713 -12.503  0.93 18.78     0.133 C 
HETATM    9  C19   D T 602      -3.345   8.381 -10.508  0.93 20.18     0.261 C 
HETATM   10  O1    D T 602      -4.484   8.649 -10.968  0.93 23.41    -0.267 OA
HETATM   11  C20   D T 602      -2.963   7.612  -9.423  0.93 18.07     0.061 C 
HETATM   12  C21   D T 602      -1.735   7.162  -9.079  0.93 15.40     0.006 C 
ENDROOT
BRANCH   1  13
HETATM   13  C5    D T 602       2.981   7.993  -9.599  0.93 11.75     0.334 C 
HETATM   14  N3    D T 602       4.015   7.956 -10.582  0.93 12.53     0.628 N 
BRANCH  13  15
HETATM   15  C4    D T 602       3.394   9.366  -8.754  0.93 10.99     0.082 C 
HETATM   16  N1    D T 602       4.643   9.581  -8.086  0.93 12.88    -0.312 N 
HETATM   17  C1    D T 602       6.031   8.951  -8.250  0.93 11.29     0.132 C 
HETATM   18  C2    D T 602       4.606  10.721  -7.459  0.93 12.15     0.174 C 
HETATM   19  N2    D T 602       3.449  11.204  -7.571  0.93 12.12    -0.246 NA
HETATM   20  C3    D T 602       2.473  10.405  -8.213  0.93 11.32     0.169 C 
ENDBRANCH  13  15
BRANCH  13  21
HETATM   21  C6    D T 602       3.341   6.831  -8.611  0.93 12.23     0.016 C 
HETATM   22  C7    D T 602       2.701   6.782  -7.423  0.93  8.55    -0.022 C 
HETATM   23  C8    D T 602       2.698   5.692  -6.530  0.93 12.58     0.064 C 
HETATM   24  C9    D T 602       3.418   4.655  -7.411  0.93 13.77     0.040 C 
HETATM   25 CL1    D T 602       3.298   3.062  -6.311  0.93 24.65    -0.087 Cl
HETATM   26  C10   D T 602       4.002   4.637  -8.473  0.93 16.75     0.007 C 
HETATM   27  C11   D T 602       3.986   5.885  -9.197  0.93 14.77    -0.001 C 
ENDBRANCH  13  21
ENDBRANCH   1  13
BRANCH  12  28
HETATM   28  C22   D T 602      -1.495   6.362  -7.874  0.93 16.80     0.000 C 
HETATM   29  C23   D T 602      -0.952   5.004  -8.001  0.93 14.45     0.007 C 
HETATM   30  C24   D T 602      -0.802   4.489  -6.718  0.93 15.91     0.040 C 
HETATM   31 CL2    D T 602      -0.170   2.818  -6.724  0.93 18.54    -0.087 Cl
HETATM   32  C25   D T 602      -1.209   4.991  -5.369  0.93 19.85     0.064 C 
HETATM   33  C26   D T 602      -1.520   6.401  -5.467  0.93 17.96    -0.021 C 
HETATM   34  C27   D T 602      -1.716   6.911  -6.649  0.93 18.50    -0.004 C 
ENDBRANCH  12  28
TORSDOF 4
ENDMDL
MODEL 7
REMARK VINA RESULT:    -8.467      3.717      7.248
REMARK INTER + INTRA:         -11.319
REMARK INTER:                 -10.111
REMARK INTRA:                  -1.207
REMARK UNBOUND:                -0.872
REMARK  4 active torsions:
REMARK  status: ('A' for Active; 'I' for Inactive)
REMARK    1  A    between atoms: C4_6  and  C5_7 
REMARK    2  A    between atoms: C5_7  and  C6_8 
REMARK    3  A    between atoms: C5_7  and  C12_16 
REMARK    4  A    between atoms: C21_27  and  C22_28 
ROOT
HETATM    1  C12   D T 602       3.830   8.152  -6.321  0.93 11.20    -0.001 C 
HETATM    2  C13   D T 602       2.636   8.150  -6.675  0.93 13.45    -0.005 C 
HETATM    3  C14   D T 602       2.055   6.899  -6.713  0.93 13.80     0.011 C 
HETATM    4  C15   D T 602       4.664   7.168  -5.832  0.93 11.22     0.031 C 
HETATM    5  C16   D T 602       4.091   5.683  -6.064  0.93 16.07     0.048 C 
HETATM    6  C17   D T 602       2.678   5.846  -6.689  0.93 15.64     0.040 C 
HETATM    7  N4    D T 602       2.183   4.464  -6.733  0.93 18.36    -0.297 N 
HETATM    8  C18   D T 602       3.129   3.233  -6.493  0.93 18.78     0.133 C 
HETATM    9  C19   D T 602       0.999   4.298  -7.378  0.93 20.18     0.261 C 
HETATM   10  O1    D T 602       0.621   3.109  -7.538  0.93 23.41    -0.267 OA
HETATM   11  C20   D T 602       0.338   5.495  -7.588  0.93 18.07     0.061 C 
HETATM   12  C21   D T 602       0.683   6.745  -7.205  0.93 15.40     0.006 C 
ENDROOT
BRANCH   1  13
HETATM   13  C5    D T 602       4.417   9.523  -5.961  0.93 11.75     0.334 C 
HETATM   14  N3    D T 602       5.444   9.685  -4.983  0.93 12.53     0.628 N 
BRANCH  13  15
HETATM   15  C4    D T 602       5.249   9.878  -7.359  0.93 10.99     0.082 C 
HETATM   16  N1    D T 602       4.655  10.061  -8.649  0.93 12.88    -0.312 N 
HETATM   17  C1    D T 602       3.232  10.413  -9.099  0.93 11.29     0.132 C 
HETATM   18  C2    D T 602       5.592  10.247  -9.533  0.93 12.15     0.174 C 
HETATM   19  N2    D T 602       6.709  10.105  -8.970  0.93 12.12    -0.246 NA
HETATM   20  C3    D T 602       6.704   9.691  -7.617  0.93 11.32     0.169 C 
ENDBRANCH  13  15
BRANCH  13  21
HETATM   21  C6    D T 602       3.488  10.769  -5.761  0.93 12.23     0.016 C 
HETATM   22  C7    D T 602       2.152  10.588  -5.837  0.93  8.55    -0.022 C 
HETATM   23  C8    D T 602       1.167  11.513  -5.437  0.93 12.58     0.064 C 
HETATM   24  C9    D T 602       2.078  12.561  -4.770  0.93 13.77     0.040 C 
HETATM   25 CL1    D T 602       0.773  13.793  -4.033  0.93 24.65    -0.087 Cl
HETATM   26  C10   D T 602       3.266  12.774  -4.666  0.93 16.75     0.007 C 
HETATM   27  C11   D T 602       4.119  11.759  -5.235  0.93 14.77    -0.001 C 
ENDBRANCH  13  21
ENDBRANCH   1  13
BRANCH  12  28
HETATM   28  C22   D T 602      -0.129   7.924  -7.525  0.93 16.80     0.000 C 
HETATM   29  C23   D T 602      -0.185   8.412  -8.907  0.93 14.45     0.007 C 
HETATM   30  C24   D T 602      -1.036   9.512  -8.932  0.93 15.91     0.040 C 
HETATM   31 CL2    D T 602      -1.177  10.230 -10.560  0.93 18.54    -0.087 Cl
HETATM   32  C25   D T 602      -1.716  10.293  -7.852  0.93 19.85     0.064 C 
HETATM   33  C26   D T 602      -1.691   9.520  -6.627  0.93 17.96    -0.021 C 
HETATM   34  C27   D T 602      -0.873   8.511  -6.548  0.93 18.50    -0.004 C 
ENDBRANCH  12  28
TORSDOF 4
ENDMDL
MODEL 8
REMARK VINA RESULT:    -8.193      2.953      5.930
REMARK INTER + INTRA:         -10.981
REMARK INTER:                 -10.231
REMARK INTRA:                  -0.750
REMARK UNBOUND:                -0.872
REMARK  4 active torsions:
REMARK  status: ('A' for Active; 'I' for Inactive)
REMARK    1  A    between atoms: C4_6  and  C5_7 
REMARK    2  A    between atoms: C5_7  and  C6_8 
REMARK    3  A    between atoms: C5_7  and  C12_16 
REMARK    4  A    between atoms: C21_27  and  C22_28 
ROOT
HETATM    1  C12   D T 602       3.058   9.266  -6.344  0.93 11.20    -0.001 C 
HETATM    2  C13   D T 602       1.852   9.122  -6.618  0.93 13.45    -0.005 C 
HETATM    3  C14   D T 602       1.065  10.214  -6.312  0.93 13.80     0.011 C 
HETATM    4  C15   D T 602       3.800  10.347  -5.911  0.93 11.22     0.031 C 
HETATM    5  C16   D T 602       2.892  11.550  -5.350  0.93 16.07     0.048 C 
HETATM    6  C17   D T 602       1.412  11.136  -5.587  0.93 15.64     0.040 C 
HETATM    7  N4    D T 602       0.673  12.338  -5.181  0.93 18.36    -0.297 N 
HETATM    8  C18   D T 602       1.359  13.514  -4.397  0.93 18.78     0.133 C 
HETATM    9  C19   D T 602      -0.679  12.199  -5.154  0.93 20.18     0.261 C 
HETATM   10  O1    D T 602      -1.323  13.173  -4.688  0.93 23.41    -0.267 OA
HETATM   11  C20   D T 602      -1.108  11.061  -5.815  0.93 18.07     0.061 C 
HETATM   12  C21   D T 602      -0.387  10.142  -6.496  0.93 15.40     0.006 C 
ENDROOT
BRANCH   1  13
HETATM   13  C5    D T 602       4.009   8.223  -6.948  0.93 11.75     0.334 C 
HETATM   14  N3    D T 602       5.102   7.668  -6.218  0.93 12.53     0.628 N 
BRANCH  13  15
HETATM   15  C4    D T 602       2.995   6.907  -7.055  0.93 10.99     0.082 C 
HETATM   16  N1    D T 602       2.054   6.674  -8.110  0.93 12.88    -0.312 N 
HETATM   17  C1    D T 602       1.954   7.196  -9.548  0.93 11.29     0.132 C 
HETATM   18  C2    D T 602       1.369   5.599  -7.847  0.93 12.15     0.174 C 
HETATM   19  N2    D T 602       1.697   5.183  -6.705  0.93 12.12    -0.246 NA
HETATM   20  C3    D T 602       2.595   5.982  -5.958  0.93 11.32     0.169 C 
ENDBRANCH  13  15
BRANCH  13  21
HETATM   21  C6    D T 602       4.556   8.385  -8.407  0.93 12.23     0.016 C 
HETATM   22  C7    D T 602       4.327   9.550  -9.050  0.93  8.55    -0.022 C 
HETATM   23  C8    D T 602       4.947   9.973 -10.242  0.93 12.58     0.064 C 
HETATM   24  C9    D T 602       5.996   8.855 -10.378  0.93 13.77     0.040 C 
HETATM   25 CL1    D T 602       7.016   9.465 -11.912  0.93 24.65    -0.087 Cl
HETATM   26  C10   D T 602       6.254   7.801  -9.838  0.93 16.75     0.007 C 
HETATM   27  C11   D T 602       5.434   7.488  -8.693  0.93 14.77    -0.001 C 
ENDBRANCH  13  21
ENDBRANCH   1  13
BRANCH  12  28
HETATM   28  C22   D T 602      -0.999   8.972  -7.134  0.93 16.80     0.000 C 
HETATM   29  C23   D T 602      -1.121   8.923  -8.595  0.93 14.45     0.007 C 
HETATM   30  C24   D T 602      -1.707   7.706  -8.929  0.93 15.91     0.040 C 
HETATM   31 CL2    D T 602      -1.943   7.522 -10.689  0.93 18.54    -0.087 Cl
HETATM   32  C25   D T 602      -2.314   6.613  -8.107  0.93 19.85     0.064 C 
HETATM   33  C26   D T 602      -1.896   6.775  -6.730  0.93 17.96    -0.021 C 
HETATM   34  C27   D T 602      -1.387   7.916  -6.367  0.93 18.50    -0.004 C 
ENDBRANCH  12  28
TORSDOF 4
ENDMDL
MODEL 9
REMARK VINA RESULT:    -8.057      2.702      5.749
REMARK INTER + INTRA:         -10.813
REMARK INTER:                 -10.487
REMARK INTRA:                  -0.325
REMARK UNBOUND:                -0.872
REMARK  4 active torsions:
REMARK  status: ('A' for Active; 'I' for Inactive)
REMARK    1  A    between atoms: C4_6  and  C5_7 
REMARK    2  A    between atoms: C5_7  and  C6_8 
REMARK    3  A    between atoms: C5_7  and  C12_16 
REMARK    4  A    between atoms: C21_27  and  C22_28 
ROOT
HETATM    1  C12   D T 602       2.871   9.968  -7.021  0.93 11.20    -0.001 C 
HETATM    2  C13   D T 602       1.641   9.780  -6.966  0.93 13.45    -0.005 C 
HETATM    3  C14   D T 602       0.931  10.818  -6.397  0.93 13.80     0.011 C 
HETATM    4  C15   D T 602       3.665  11.063  -6.746  0.93 11.22     0.031 C 
HETATM    5  C16   D T 602       2.905  12.195  -5.892  0.93 16.07     0.048 C 
HETATM    6  C17   D T 602       1.432  11.722  -5.742  0.93 15.64     0.040 C 
HETATM    7  N4    D T 602       0.791  12.867  -5.083  0.93 18.36    -0.297 N 
HETATM    8  C18   D T 602       1.625  14.038  -4.450  0.93 18.78     0.133 C 
HETATM    9  C19   D T 602      -0.496  12.663  -4.699  0.93 20.18     0.261 C 
HETATM   10  O1    D T 602      -1.021  13.582  -4.022  0.93 23.41    -0.267 OA
HETATM   11  C20   D T 602      -1.050  11.537  -5.283  0.93 18.07     0.061 C 
HETATM   12  C21   D T 602      -0.512  10.684  -6.184  0.93 15.40     0.006 C 
ENDROOT
BRANCH   1  13
HETATM   13  C5    D T 602       3.655   9.001  -7.918  0.93 11.75     0.334 C 
HETATM   14  N3    D T 602       3.510   8.983  -9.338  0.93 12.53     0.628 N 
BRANCH  13  15
HETATM   15  C4    D T 602       5.194   9.616  -7.762  0.93 10.99     0.082 C 
HETATM   16  N1    D T 602       5.900  10.341  -8.776  0.93 12.88    -0.312 N 
HETATM   17  C1    D T 602       5.435  11.118 -10.014  0.93 11.29     0.132 C 
HETATM   18  C2    D T 602       7.103  10.608  -8.357  0.93 12.15     0.174 C 
HETATM   19  N2    D T 602       7.272  10.051  -7.241  0.93 12.12    -0.246 NA
HETATM   20  C3    D T 602       6.230   9.220  -6.767  0.93 11.32     0.169 C 
ENDBRANCH  13  15
BRANCH  13  21
HETATM   21  C6    D T 602       3.820   7.494  -7.523  0.93 12.23     0.016 C 
HETATM   22  C7    D T 602       3.250   7.068  -6.376  0.93  8.55    -0.022 C 
HETATM   23  C8    D T 602       3.071   5.724  -5.990  0.93 12.58     0.064 C 
HETATM   24  C9    D T 602       3.511   5.038  -7.296  0.93 13.77     0.040 C 
HETATM   25 CL1    D T 602       3.125   3.177  -6.904  0.93 24.65    -0.087 Cl
HETATM   26  C10   D T 602       4.020   5.360  -8.348  0.93 16.75     0.007 C 
HETATM   27  C11   D T 602       4.223   6.779  -8.515  0.93 14.77    -0.001 C 
ENDBRANCH  13  21
ENDBRANCH   1  13
BRANCH  12  28
HETATM   28  C22   D T 602      -1.235   9.516  -6.697  0.93 16.80     0.000 C 
HETATM   29  C23   D T 602      -0.818   8.169  -6.291  0.93 14.45     0.007 C 
HETATM   30  C24   D T 602      -1.679   7.260  -6.897  0.93 15.91     0.040 C 
HETATM   31 CL2    D T 602      -1.267   5.567  -6.508  0.93 18.54    -0.087 Cl
HETATM   32  C25   D T 602      -2.761   7.414  -7.918  0.93 19.85     0.064 C 
HETATM   33  C26   D T 602      -3.130   8.811  -8.005  0.93 17.96    -0.021 C 
HETATM   34  C27   D T 602      -2.326   9.697  -7.492  0.93 18.50    -0.004 C 
ENDBRANCH  12  28
TORSDOF 4
ENDMDL
