MODEL 1
REMARK VINA RESULT:      -7.5      0.000      0.000
REMARK  2 active torsions:
REMARK  status: ('A' for Active; 'I' for Inactive)
REMARK    1  A    between atoms: C5_4  and  O7_13 
REMARK    2  A    between atoms: C8_10  and  O7_13 
ROOT
HETATM    1  O7    D T 600      26.513  -4.598 -26.586  1.00 18.03    -0.309 OA
ENDROOT
BRANCH   1   2
HETATM    2  C5    D T 600      26.006  -4.914 -25.314  1.00 18.33     0.099 A 
HETATM    3  C6    D T 600      26.511  -4.293 -24.068  1.00 17.53     0.132 A 
HETATM    4  C1    D T 600      25.956  -4.658 -22.766  1.00 16.53     0.089 A 
HETATM    5  O17   D T 600      27.521  -3.355 -24.105  1.00 20.49    -0.193 OA
HETATM    6  C2    D T 600      24.898  -5.645 -22.722  1.00 14.58     0.020 A 
HETATM    7  C3    D T 600      24.395  -6.261 -23.947  1.00 14.14     0.041 A 
HETATM    8 CL14   D T 600      24.213  -6.105 -21.277  1.00  1.00    -0.091 Cl
HETATM    9  C4    D T 600      24.951  -5.892 -25.240  1.00 16.13     0.059 A 
ENDBRANCH   1   2
BRANCH   1  10
HETATM   10  C8    D T 600      25.812  -3.748 -27.520  1.00 16.10     0.106 A 
HETATM   11  C9    D T 600      26.498  -2.395 -27.846  1.00 14.15     0.063 A 
HETATM   12  C10   D T 600      25.854  -1.473 -28.765  1.00 14.71     0.078 A 
HETATM   13 CL16   D T 600      27.959  -1.971 -27.153  1.00  1.00    -0.085 Cl
HETATM   14  C11   D T 600      24.529  -1.899 -29.360  1.00 14.35     0.041 A 
HETATM   15  C12   D T 600      23.968  -3.143 -29.025  1.00 18.52     0.009 A 
HETATM   16 CL15   D T 600      23.793  -0.808 -30.411  1.00  1.63    -0.087 Cl
HETATM   17  C13   D T 600      24.517  -4.047 -28.174  1.00 15.99     0.026 A 
ENDBRANCH   1  10
TORSDOF 2
ENDMDL
MODEL 2
REMARK VINA RESULT:      -7.4      1.073      5.924
REMARK  2 active torsions:
REMARK  status: ('A' for Active; 'I' for Inactive)
REMARK    1  A    between atoms: C5_4  and  O7_13 
REMARK    2  A    between atoms: C8_10  and  O7_13 
ROOT
HETATM    1  O7    D T 600      26.506  -4.705 -26.657  1.00 18.03    -0.309 OA
ENDROOT
BRANCH   1   2
HETATM    2  C5    D T 600      25.912  -3.781 -27.535  1.00 18.33     0.099 A 
HETATM    3  C6    D T 600      26.539  -2.487 -27.887  1.00 17.53     0.132 A 
HETATM    4  C1    D T 600      25.879  -1.555 -28.800  1.00 16.53     0.089 A 
HETATM    5  O17   D T 600      27.761  -2.127 -27.360  1.00 20.49    -0.193 OA
HETATM    6  C2    D T 600      24.595  -1.927 -29.353  1.00 14.58     0.020 A 
HETATM    7  C3    D T 600      23.971  -3.201 -29.009  1.00 14.14     0.041 A 
HETATM    8 CL14   D T 600      23.788  -0.920 -30.403  1.00  1.00    -0.091 Cl
HETATM    9  C4    D T 600      24.633  -4.126 -28.101  1.00 16.13     0.059 A 
ENDBRANCH   1   2
BRANCH   1  10
HETATM   10  C8    D T 600      25.915  -5.073 -25.392  1.00 16.10     0.106 A 
HETATM   11  C9    D T 600      26.511  -4.372 -24.141  1.00 14.15     0.063 A 
HETATM   12  C10   D T 600      25.986  -4.694 -22.826  1.00 14.71     0.078 A 
HETATM   13 CL16   D T 600      27.754  -3.262 -24.275  1.00  1.00    -0.085 Cl
HETATM   14  C11   D T 600      24.867  -5.711 -22.756  1.00 14.35     0.041 A 
HETATM   15  C12   D T 600      24.370  -6.302 -23.931  1.00 18.52     0.009 A 
HETATM   16 CL15   D T 600      24.283  -6.080 -21.220  1.00  1.63    -0.087 Cl
HETATM   17  C13   D T 600      24.818  -6.046 -25.187  1.00 15.99     0.026 A 
ENDBRANCH   1  10
TORSDOF 2
ENDMDL
MODEL 3
REMARK VINA RESULT:      -7.3      3.173      3.801
REMARK  2 active torsions:
REMARK  status: ('A' for Active; 'I' for Inactive)
REMARK    1  A    between atoms: C5_4  and  O7_13 
REMARK    2  A    between atoms: C8_10  and  O7_13 
ROOT
HETATM    1  O7    D T 600      28.172  -3.297 -24.818  1.00 18.03    -0.309 OA
ENDROOT
BRANCH   1   2
HETATM    2  C5    D T 600      27.587  -4.541 -25.109  1.00 18.33     0.099 A 
HETATM    3  C6    D T 600      26.517  -5.143 -24.281  1.00 17.53     0.132 A 
HETATM    4  C1    D T 600      25.944  -6.444 -24.621  1.00 16.53     0.089 A 
HETATM    5  O17   D T 600      26.035  -4.491 -23.165  1.00 20.49    -0.193 OA
HETATM    6  C2    D T 600      26.448  -7.134 -25.789  1.00 14.58     0.020 A 
HETATM    7  C3    D T 600      27.503  -6.546 -26.609  1.00 14.14     0.041 A 
HETATM    8 CL14   D T 600      25.839  -8.615 -26.241  1.00  1.00    -0.091 Cl
HETATM    9  C4    D T 600      28.069  -5.250 -26.267  1.00 16.13     0.059 A 
ENDBRANCH   1   2
BRANCH   1  10
HETATM   10  C8    D T 600      28.281  -2.236 -25.791  1.00 16.10     0.106 A 
HETATM   11  C9    D T 600      27.057  -1.286 -25.893  1.00 14.15     0.063 A 
HETATM   12  C10   D T 600      27.076  -0.200 -26.857  1.00 14.71     0.078 A 
HETATM   13 CL16   D T 600      25.712  -1.493 -24.923  1.00  1.00    -0.085 Cl
HETATM   14  C11   D T 600      28.314  -0.058 -27.718  1.00 14.35     0.041 A 
HETATM   15  C12   D T 600      29.389  -0.952 -27.568  1.00 18.52     0.009 A 
HETATM   16 CL15   D T 600      28.309   1.198 -28.838  1.00  1.63    -0.087 Cl
HETATM   17  C13   D T 600      29.432  -1.986 -26.689  1.00 15.99     0.026 A 
ENDBRANCH   1  10
TORSDOF 2
ENDMDL
MODEL 4
REMARK VINA RESULT:      -7.2      2.667      3.347
REMARK  2 active torsions:
REMARK  status: ('A' for Active; 'I' for Inactive)
REMARK    1  A    between atoms: C5_4  and  O7_13 
REMARK    2  A    between atoms: C8_10  and  O7_13 
ROOT
HETATM    1  O7    D T 600      26.491  -3.117 -25.683  1.00 18.03    -0.309 OA
ENDROOT
BRANCH   1   2
HETATM    2  C5    D T 600      26.481  -4.487 -25.996  1.00 18.33     0.099 A 
HETATM    3  C6    D T 600      25.845  -5.507 -25.131  1.00 17.53     0.132 A 
HETATM    4  C1    D T 600      25.866  -6.922 -25.493  1.00 16.53     0.089 A 
HETATM    5  O17   D T 600      25.217  -5.145 -23.957  1.00 20.49    -0.193 OA
HETATM    6  C2    D T 600      26.526  -7.307 -26.723  1.00 14.58     0.020 A 
HETATM    7  C3    D T 600      27.155  -6.307 -27.580  1.00 14.14     0.041 A 
HETATM    8 CL14   D T 600      26.584  -8.898 -27.205  1.00  1.00    -0.091 Cl
HETATM    9  C4    D T 600      27.130  -4.899 -27.214  1.00 16.13     0.059 A 
ENDBRANCH   1   2
BRANCH   1  10
HETATM   10  C8    D T 600      26.583  -2.086 -26.690  1.00 16.10     0.106 A 
HETATM   11  C9    D T 600      28.012  -1.556 -26.984  1.00 14.15     0.063 A 
HETATM   12  C10   D T 600      28.195  -0.508 -27.972  1.00 14.71     0.078 A 
HETATM   13 CL16   D T 600      29.346  -2.159 -26.176  1.00  1.00    -0.085 Cl
HETATM   14  C11   D T 600      26.955   0.011 -28.670  1.00 14.35     0.041 A 
HETATM   15  C12   D T 600      25.691  -0.520 -28.360  1.00 18.52     0.009 A 
HETATM   16 CL15   D T 600      27.188   1.235 -29.802  1.00  1.63    -0.087 Cl
HETATM   17  C13   D T 600      25.454  -1.497 -27.447  1.00 15.99     0.026 A 
ENDBRANCH   1  10
TORSDOF 2
ENDMDL
MODEL 5
REMARK VINA RESULT:      -7.2      2.944      6.147
REMARK  2 active torsions:
REMARK  status: ('A' for Active; 'I' for Inactive)
REMARK    1  A    between atoms: C5_4  and  O7_13 
REMARK    2  A    between atoms: C8_10  and  O7_13 
ROOT
HETATM    1  O7    D T 600      28.096  -3.299 -24.908  1.00 18.03    -0.309 OA
ENDROOT
BRANCH   1   2
HETATM    2  C5    D T 600      28.082  -2.198 -25.783  1.00 18.33     0.099 A 
HETATM    3  C6    D T 600      26.943  -1.257 -25.876  1.00 17.53     0.132 A 
HETATM    4  C1    D T 600      26.970  -0.131 -26.806  1.00 16.53     0.089 A 
HETATM    5  O17   D T 600      25.823  -1.423 -25.087  1.00 20.49    -0.193 OA
HETATM    6  C2    D T 600      28.142   0.045 -27.638  1.00 14.58     0.020 A 
HETATM    7  C3    D T 600      29.268  -0.879 -27.551  1.00 14.14     0.041 A 
HETATM    8 CL14   D T 600      28.248   1.309 -28.715  1.00  1.00    -0.091 Cl
HETATM    9  C4    D T 600      29.235  -1.998 -26.622  1.00 16.13     0.059 A 
ENDBRANCH   1   2
BRANCH   1  10
HETATM   10  C8    D T 600      27.544  -4.586 -25.261  1.00 16.10     0.106 A 
HETATM   11  C9    D T 600      26.411  -5.109 -24.338  1.00 14.15     0.063 A 
HETATM   12  C10   D T 600      25.809  -6.402 -24.612  1.00 14.71     0.078 A 
HETATM   13 CL16   D T 600      25.877  -4.220 -23.027  1.00  1.00    -0.085 Cl
HETATM   14  C11   D T 600      26.333  -7.173 -25.805  1.00 14.35     0.041 A 
HETATM   15  C12   D T 600      27.358  -6.634 -26.603  1.00 18.52     0.009 A 
HETATM   16 CL15   D T 600      25.631  -8.675 -26.096  1.00  1.63    -0.087 Cl
HETATM   17  C13   D T 600      27.962  -5.435 -26.400  1.00 15.99     0.026 A 
ENDBRANCH   1  10
TORSDOF 2
ENDMDL
MODEL 6
REMARK VINA RESULT:      -7.2      2.838      6.119
REMARK  2 active torsions:
REMARK  status: ('A' for Active; 'I' for Inactive)
REMARK    1  A    between atoms: C5_4  and  O7_13 
REMARK    2  A    between atoms: C8_10  and  O7_13 
ROOT
HETATM    1  O7    D T 600      26.976  -2.976 -25.677  1.00 18.03    -0.309 OA
ENDROOT
BRANCH   1   2
HETATM    2  C5    D T 600      27.159  -1.932 -26.601  1.00 18.33     0.099 A 
HETATM    3  C6    D T 600      28.493  -1.410 -26.973  1.00 17.53     0.132 A 
HETATM    4  C1    D T 600      28.633  -0.318 -27.934  1.00 16.53     0.089 A 
HETATM    5  O17   D T 600      29.639  -1.941 -26.420  1.00 20.49    -0.193 OA
HETATM    6  C2    D T 600      27.433   0.245 -28.515  1.00 14.58     0.020 A 
HETATM    7  C3    D T 600      26.114  -0.265 -28.152  1.00 14.14     0.041 A 
HETATM    8 CL14   D T 600      27.515   1.486 -29.621  1.00  1.00    -0.091 Cl
HETATM    9  C4    D T 600      25.981  -1.354 -27.196  1.00 16.13     0.059 A 
ENDBRANCH   1   2
BRANCH   1  10
HETATM   10  C8    D T 600      26.889  -4.363 -26.071  1.00 16.10     0.106 A 
HETATM   11  C9    D T 600      26.216  -5.314 -25.046  1.00 14.15     0.063 A 
HETATM   12  C10   D T 600      26.100  -6.728 -25.355  1.00 14.71     0.078 A 
HETATM   13 CL16   D T 600      25.632  -4.747 -23.586  1.00  1.00    -0.085 Cl
HETATM   14  C11   D T 600      26.651  -7.195 -26.686  1.00 14.35     0.041 A 
HETATM   15  C12   D T 600      27.243  -6.276 -27.570  1.00 18.52     0.009 A 
HETATM   16 CL15   D T 600      26.519  -8.840 -27.018  1.00  1.63    -0.087 Cl
HETATM   17  C13   D T 600      27.383  -4.946 -27.340  1.00 15.99     0.026 A 
ENDBRANCH   1  10
TORSDOF 2
ENDMDL
MODEL 7
REMARK VINA RESULT:      -7.1      1.445      1.943
REMARK  2 active torsions:
REMARK  status: ('A' for Active; 'I' for Inactive)
REMARK    1  A    between atoms: C5_4  and  O7_13 
REMARK    2  A    between atoms: C8_10  and  O7_13 
ROOT
HETATM    1  O7    D T 600      26.427  -4.075 -26.466  1.00 18.03    -0.309 OA
ENDROOT
BRANCH   1   2
HETATM    2  C5    D T 600      25.939  -4.600 -25.257  1.00 18.33     0.099 A 
HETATM    3  C6    D T 600      26.427  -4.159 -23.931  1.00 17.53     0.132 A 
HETATM    4  C1    D T 600      25.893  -4.740 -22.701  1.00 16.53     0.089 A 
HETATM    5  O17   D T 600      27.401  -3.189 -23.823  1.00 20.49    -0.193 OA
HETATM    6  C2    D T 600      24.872  -5.761 -22.809  1.00 14.58     0.020 A 
HETATM    7  C3    D T 600      24.387  -6.200 -24.113  1.00 14.14     0.041 A 
HETATM    8 CL14   D T 600      24.213  -6.462 -21.452  1.00  1.00    -0.091 Cl
HETATM    9  C4    D T 600      24.921  -5.617 -25.335  1.00 16.13     0.059 A 
ENDBRANCH   1   2
BRANCH   1  10
HETATM   10  C8    D T 600      25.943  -2.839 -27.034  1.00 16.10     0.106 A 
HETATM   11  C9    D T 600      24.852  -2.982 -28.129  1.00 14.15     0.063 A 
HETATM   12  C10   D T 600      24.319  -1.790 -28.765  1.00 14.71     0.078 A 
HETATM   13 CL16   D T 600      24.285  -4.482 -28.601  1.00  1.00    -0.085 Cl
HETATM   14  C11   D T 600      24.870  -0.455 -28.308  1.00 14.35     0.041 A 
HETATM   15  C12   D T 600      25.853  -0.399 -27.306  1.00 18.52     0.009 A 
HETATM   16 CL15   D T 600      24.248   0.912 -29.068  1.00  1.63    -0.087 Cl
HETATM   17  C13   D T 600      26.393  -1.474 -26.675  1.00 15.99     0.026 A 
ENDBRANCH   1  10
TORSDOF 2
ENDMDL
MODEL 8
REMARK VINA RESULT:      -7.1      2.405      5.790
REMARK  2 active torsions:
REMARK  status: ('A' for Active; 'I' for Inactive)
REMARK    1  A    between atoms: C5_4  and  O7_13 
REMARK    2  A    between atoms: C8_10  and  O7_13 
ROOT
HETATM    1  O7    D T 600      26.077  -3.157 -26.074  1.00 18.03    -0.309 OA
ENDROOT
BRANCH   1   2
HETATM    2  C5    D T 600      25.438  -2.422 -27.087  1.00 18.33     0.099 A 
HETATM    3  C6    D T 600      25.559  -0.952 -27.214  1.00 17.53     0.132 A 
HETATM    4  C1    D T 600      24.870  -0.229 -28.282  1.00 16.53     0.089 A 
HETATM    5  O17   D T 600      26.323  -0.226 -26.325  1.00 20.49    -0.193 OA
HETATM    6  C2    D T 600      24.064  -0.986 -29.215  1.00 14.58     0.020 A 
HETATM    7  C3    D T 600      23.941  -2.436 -29.096  1.00 14.14     0.041 A 
HETATM    8 CL14   D T 600      23.257  -0.232 -30.460  1.00  1.00    -0.091 Cl
HETATM    9  C4    D T 600      24.630  -3.150 -28.032  1.00 16.13     0.059 A 
ENDBRANCH   1   2
BRANCH   1  10
HETATM   10  C8    D T 600      26.189  -4.597 -26.104  1.00 16.10     0.106 A 
HETATM   11  C9    D T 600      27.286  -5.168 -27.042  1.00 14.15     0.063 A 
HETATM   12  C10   D T 600      27.458  -6.607 -27.145  1.00 14.71     0.078 A 
HETATM   13 CL16   D T 600      28.267  -4.162 -27.948  1.00  1.00    -0.085 Cl
HETATM   14  C11   D T 600      26.540  -7.476 -26.311  1.00 14.35     0.041 A 
HETATM   15  C12   D T 600      25.572  -6.890 -25.477  1.00 18.52     0.009 A 
HETATM   16 CL15   D T 600      26.748  -9.140 -26.456  1.00  1.63    -0.087 Cl
HETATM   17  C13   D T 600      25.360  -5.556 -25.338  1.00 15.99     0.026 A 
ENDBRANCH   1  10
TORSDOF 2
ENDMDL
MODEL 9
REMARK VINA RESULT:      -7.0      2.414      2.933
REMARK  2 active torsions:
REMARK  status: ('A' for Active; 'I' for Inactive)
REMARK    1  A    between atoms: C5_4  and  O7_13 
REMARK    2  A    between atoms: C8_10  and  O7_13 
ROOT
HETATM    1  O7    D T 600      25.947  -3.534 -26.128  1.00 18.03    -0.309 OA
ENDROOT
BRANCH   1   2
HETATM    2  C5    D T 600      26.175  -4.920 -26.198  1.00 18.33     0.099 A 
HETATM    3  C6    D T 600      25.555  -5.886 -25.263  1.00 17.53     0.132 A 
HETATM    4  C1    D T 600      25.827  -7.318 -25.371  1.00 16.53     0.089 A 
HETATM    5  O17   D T 600      24.707  -5.459 -24.263  1.00 20.49    -0.193 OA
HETATM    6  C2    D T 600      26.720  -7.772 -26.416  1.00 14.58     0.020 A 
HETATM    7  C3    D T 600      27.334  -6.824 -27.341  1.00 14.14     0.041 A 
HETATM    8 CL14   D T 600      27.071  -9.387 -26.604  1.00  1.00    -0.091 Cl
HETATM    9  C4    D T 600      27.058  -5.399 -27.230  1.00 16.13     0.059 A 
ENDBRANCH   1   2
BRANCH   1  10
HETATM   10  C8    D T 600      25.296  -2.794 -27.184  1.00 16.10     0.106 A 
HETATM   11  C9    D T 600      25.497  -1.255 -27.150  1.00 14.15     0.063 A 
HETATM   12  C10   D T 600      24.865  -0.432 -28.167  1.00 14.71     0.078 A 
HETATM   13 CL16   D T 600      26.416  -0.523 -25.961  1.00  1.00    -0.085 Cl
HETATM   14  C11   D T 600      24.037  -1.141 -29.217  1.00 14.35     0.041 A 
HETATM   15  C12   D T 600      23.904  -2.540 -29.191  1.00 18.52     0.009 A 
HETATM   16 CL15   D T 600      23.303  -0.167 -30.378  1.00  1.63    -0.087 Cl
HETATM   17  C13   D T 600      24.465  -3.364 -28.269  1.00 15.99     0.026 A 
ENDBRANCH   1  10
TORSDOF 2
ENDMDL
