MODEL 1
REMARK VINA RESULT:      -7.0      0.000      0.000
REMARK  9 active torsions:
REMARK  status: ('A' for Active; 'I' for Inactive)
REMARK    1  A    between atoms: C02_2  and  N03_3 
REMARK    2  A    between atoms: N03_3  and  C04_4 
REMARK    3  A    between atoms: N03_3  and  C06_6 
REMARK    4  A    between atoms: C06_6  and  C07_7 
REMARK    5  A    between atoms: C07_7  and  O08_8 
REMARK    6  A    between atoms: O08_8  and  C09_9 
REMARK    7  A    between atoms: C12_12  and  N13_13 
REMARK    8  A    between atoms: N13_13  and  C14_14 
REMARK    9  A    between atoms: C21_21  and  C26_26 
ROOT
HETATM    1  C14   D T 601     -14.565   3.223  -3.909  1.00 17.92     0.728 A 
HETATM    2  N15   D T 601     -15.576   2.671  -4.610  1.00 19.07    -0.044 NA
HETATM    3  C16   D T 601     -15.480   1.530  -5.306  1.00 18.16     0.163 A 
HETATM    4  C17   D T 601     -14.242   0.882  -5.328  1.00 16.80     0.030 A 
HETATM    5  C18   D T 601     -13.179   1.471  -4.639  1.00 18.08     0.151 A 
HETATM    6  N19   D T 601     -13.366   2.617  -3.953  1.00 16.91    -0.074 NA
HETATM    7  C20   D T 601     -14.092  -0.310  -6.063  1.00 17.65     0.034 A 
HETATM    8  C21   D T 601     -15.189  -0.855  -6.751  1.00 18.53     0.047 A 
HETATM    9  C22   D T 601     -16.417  -0.153  -6.697  1.00 19.48     0.260 A 
HETATM   10  O23   D T 601     -17.344  -0.669  -7.357  1.00 21.52    -0.267 OA
HETATM   11  N24   D T 601     -16.563   1.015  -5.974  1.00 19.49    -0.301 N 
HETATM   12  C25   D T 601     -17.821   1.739  -5.880  1.00 20.07     0.161 C 
ENDROOT
BRANCH   1  13
HETATM   13  N13   D T 601     -14.764   4.363  -3.228  1.00 20.14    -0.188 N 
HETATM   14 1H13   D T 601     -14.585   5.127  -3.702  1.00 24.16     0.184 HD
BRANCH  13  15
HETATM   15  C12   D T 601     -15.193   4.572  -1.935  1.00 24.69     0.049 A 
HETATM   16  C11   D T 601     -14.624   3.741  -0.934  1.00 26.89     0.033 A 
HETATM   17  C10   D T 601     -14.989   3.899   0.421  1.00 28.95     0.039 A 
HETATM   18  C09   D T 601     -15.914   4.901   0.786  1.00 30.95     0.069 A 
HETATM   19  C35   D T 601     -16.457   5.742  -0.202  1.00 28.80     0.039 A 
HETATM   20  C34   D T 601     -16.102   5.567  -1.543  1.00 26.81     0.033 A 
BRANCH  18  21
HETATM   21  O08   D T 601     -16.249   5.104   2.080  1.00 36.09    -0.350 OA
BRANCH  21  22
HETATM   22  C07   D T 601     -17.668   5.303   2.329  1.00 42.63     0.195 C 
BRANCH  22  23
HETATM   23  C06   D T 601     -18.393   3.923   2.268  1.00 46.85     0.143 C 
BRANCH  23  24
HETATM   24  N03   D T 601     -19.430   3.821   1.171  1.00 51.06    -0.411 N 
BRANCH  24  25
HETATM   25  C02   D T 601     -20.296   5.010   0.767  1.00 53.85     0.112 C 
HETATM   26  C01   D T 601     -20.226   5.528  -0.707  1.00 52.69     0.026 C 
ENDBRANCH  24  25
BRANCH  24  27
HETATM   27  C04   D T 601     -19.473   2.523   0.408  1.00 47.80     0.112 C 
HETATM   28  C05   D T 601     -18.214   2.094  -0.397  1.00 44.89     0.026 C 
ENDBRANCH  24  27
ENDBRANCH  23  24
ENDBRANCH  22  23
ENDBRANCH  21  22
ENDBRANCH  18  21
ENDBRANCH  13  15
ENDBRANCH   1  13
BRANCH   8  29
HETATM   29  C26   D T 601     -15.065  -2.077  -7.488  1.00 21.63     0.023 A 
HETATM   30  C27   D T 601     -14.512  -2.072  -8.799  1.00 22.75     0.046 A 
HETATM   31 CL28   D T 601     -14.044  -0.618  -9.520  1.00 22.59    -0.083 Cl
HETATM   32  C29   D T 601     -14.370  -3.265  -9.555  1.00 24.08     0.025 A 
HETATM   33  C30   D T 601     -14.743  -4.501  -8.984  1.00 25.63     0.003 A 
HETATM   34  C31   D T 601     -15.268  -4.529  -7.684  1.00 25.41     0.025 A 
HETATM   35  C32   D T 601     -15.428  -3.330  -6.943  1.00 23.77     0.046 A 
HETATM   36 CL33   D T 601     -16.074  -3.431  -5.383  1.00 25.94    -0.083 Cl
ENDBRANCH   8  29
TORSDOF 9
ENDMDL
MODEL 2
REMARK VINA RESULT:      -7.0      4.208      6.146
REMARK  9 active torsions:
REMARK  status: ('A' for Active; 'I' for Inactive)
REMARK    1  A    between atoms: C02_2  and  N03_3 
REMARK    2  A    between atoms: N03_3  and  C04_4 
REMARK    3  A    between atoms: N03_3  and  C06_6 
REMARK    4  A    between atoms: C06_6  and  C07_7 
REMARK    5  A    between atoms: C07_7  and  O08_8 
REMARK    6  A    between atoms: O08_8  and  C09_9 
REMARK    7  A    between atoms: C12_12  and  N13_13 
REMARK    8  A    between atoms: N13_13  and  C14_14 
REMARK    9  A    between atoms: C21_21  and  C26_26 
ROOT
HETATM    1  C14   D T 601     -13.475   0.692  -7.176  1.00 17.92     0.728 A 
HETATM    2  N15   D T 601     -14.102   0.079  -8.200  1.00 19.07    -0.044 NA
HETATM    3  C16   D T 601     -14.800  -1.059  -8.088  1.00 18.16     0.163 A 
HETATM    4  C17   D T 601     -14.860  -1.665  -6.831  1.00 16.80     0.030 A 
HETATM    5  C18   D T 601     -14.177  -1.058  -5.774  1.00 18.08     0.151 A 
HETATM    6  N19   D T 601     -13.508   0.096  -5.972  1.00 16.91    -0.074 NA
HETATM    7  C20   D T 601     -15.568  -2.873  -6.672  1.00 17.65     0.034 A 
HETATM    8  C21   D T 601     -16.227  -3.451  -7.769  1.00 18.53     0.047 A 
HETATM    9  C22   D T 601     -16.128  -2.795  -9.020  1.00 19.48     0.260 A 
HETATM   10  O23   D T 601     -16.705  -3.376  -9.963  1.00 21.52    -0.267 OA
HETATM   11  N24   D T 601     -15.434  -1.610  -9.173  1.00 19.49    -0.301 N 
HETATM   12  C25   D T 601     -15.343  -0.902 -10.440  1.00 20.07     0.161 C 
ENDROOT
BRANCH   1  13
HETATM   13  N13   D T 601     -12.813   1.842  -7.385  1.00 20.14    -0.188 N 
HETATM   14 1H13   D T 601     -12.901   2.185  -8.230  1.00 24.16     0.184 HD
BRANCH  13  15
HETATM   15  C12   D T 601     -12.024   2.589  -6.537  1.00 24.69     0.049 A 
HETATM   16  C11   D T 601     -10.622   2.523  -6.750  1.00 26.89     0.033 A 
HETATM   17  C10   D T 601      -9.738   3.271  -5.943  1.00 28.95     0.039 A 
HETATM   18  C09   D T 601     -10.252   4.106  -4.927  1.00 30.95     0.069 A 
HETATM   19  C35   D T 601     -11.642   4.193  -4.734  1.00 28.80     0.039 A 
HETATM   20  C34   D T 601     -12.509   3.435  -5.528  1.00 26.81     0.033 A 
BRANCH  18  21
HETATM   21  O08   D T 601      -9.433   4.867  -4.168  1.00 36.09    -0.350 OA
BRANCH  21  22
HETATM   22  C07   D T 601      -9.819   6.264  -4.049  1.00 42.63     0.195 C 
BRANCH  22  23
HETATM   23  C06   D T 601      -9.996   6.615  -2.539  1.00 46.85     0.143 C 
BRANCH  23  24
HETATM   24  N03   D T 601     -11.440   6.713  -2.097  1.00 51.06    -0.411 N 
BRANCH  24  25
HETATM   25  C02   D T 601     -12.105   5.617  -1.269  1.00 53.85     0.112 C 
HETATM   26  C01   D T 601     -13.596   5.802  -0.831  1.00 52.69     0.026 C 
ENDBRANCH  24  25
BRANCH  24  27
HETATM   27  C04   D T 601     -12.148   8.006  -2.401  1.00 47.80     0.112 C 
HETATM   28  C05   D T 601     -12.103   9.144  -1.343  1.00 44.89     0.026 C 
ENDBRANCH  24  27
ENDBRANCH  23  24
ENDBRANCH  22  23
ENDBRANCH  21  22
ENDBRANCH  18  21
ENDBRANCH  13  15
ENDBRANCH   1  13
BRANCH   8  29
HETATM   29  C26   D T 601     -16.969  -4.668  -7.627  1.00 21.63     0.023 A 
HETATM   30  C27   D T 601     -16.346  -5.922  -7.878  1.00 22.75     0.046 A 
HETATM   31 CL28   D T 601     -14.740  -5.987  -8.396  1.00 22.59    -0.083 Cl
HETATM   32  C29   D T 601     -17.050  -7.147  -7.743  1.00 24.08     0.025 A 
HETATM   33  C30   D T 601     -18.392  -7.135  -7.304  1.00 25.63     0.003 A 
HETATM   34  C31   D T 601     -19.016  -5.910  -7.029  1.00 25.41     0.025 A 
HETATM   35  C32   D T 601     -18.313  -4.689  -7.189  1.00 23.77     0.046 A 
HETATM   36 CL33   D T 601     -19.125  -3.244  -6.848  1.00 25.94    -0.083 Cl
ENDBRANCH   8  29
TORSDOF 9
ENDMDL
MODEL 3
REMARK VINA RESULT:      -6.9      3.634     10.370
REMARK  9 active torsions:
REMARK  status: ('A' for Active; 'I' for Inactive)
REMARK    1  A    between atoms: C02_2  and  N03_3 
REMARK    2  A    between atoms: N03_3  and  C04_4 
REMARK    3  A    between atoms: N03_3  and  C06_6 
REMARK    4  A    between atoms: C06_6  and  C07_7 
REMARK    5  A    between atoms: C07_7  and  O08_8 
REMARK    6  A    between atoms: O08_8  and  C09_9 
REMARK    7  A    between atoms: C12_12  and  N13_13 
REMARK    8  A    between atoms: N13_13  and  C14_14 
REMARK    9  A    between atoms: C21_21  and  C26_26 
ROOT
HETATM    1  C14   D T 601     -14.270   3.265  -4.243  1.00 17.92     0.728 A 
HETATM    2  N15   D T 601     -15.606   3.447  -4.226  1.00 19.07    -0.044 NA
HETATM    3  C16   D T 601     -16.373   3.327  -3.134  1.00 18.16     0.163 A 
HETATM    4  C17   D T 601     -15.750   2.963  -1.937  1.00 16.80     0.030 A 
HETATM    5  C18   D T 601     -14.373   2.730  -1.957  1.00 18.08     0.151 A 
HETATM    6  N19   D T 601     -13.674   2.886  -3.099  1.00 16.91    -0.074 NA
HETATM    7  C20   D T 601     -16.522   2.807  -0.769  1.00 17.65     0.034 A 
HETATM    8  C21   D T 601     -17.906   3.038  -0.804  1.00 18.53     0.047 A 
HETATM    9  C22   D T 601     -18.484   3.401  -2.046  1.00 19.48     0.260 A 
HETATM   10  O23   D T 601     -19.722   3.559  -2.020  1.00 21.52    -0.267 OA
HETATM   11  N24   D T 601     -17.725   3.555  -3.190  1.00 19.49    -0.301 N 
HETATM   12  C25   D T 601     -18.290   3.955  -4.469  1.00 20.07     0.161 C 
ENDROOT
BRANCH   1  13
HETATM   13  N13   D T 601     -13.585   3.425  -5.386  1.00 20.14    -0.188 N 
HETATM   14 1H13   D T 601     -13.388   4.296  -5.595  1.00 24.16     0.184 HD
BRANCH  13  15
HETATM   15  C12   D T 601     -13.130   2.496  -6.296  1.00 24.69     0.049 A 
HETATM   16  C11   D T 601     -14.034   1.463  -6.657  1.00 26.89     0.033 A 
HETATM   17  C10   D T 601     -13.661   0.479  -7.598  1.00 28.95     0.039 A 
HETATM   18  C09   D T 601     -12.384   0.532  -8.199  1.00 30.95     0.069 A 
HETATM   19  C35   D T 601     -11.498   1.571  -7.863  1.00 28.80     0.039 A 
HETATM   20  C34   D T 601     -11.871   2.531  -6.917  1.00 26.81     0.033 A 
BRANCH  18  21
HETATM   21  O08   D T 601     -12.015  -0.370  -9.135  1.00 36.09    -0.350 OA
BRANCH  21  22
HETATM   22  C07   D T 601     -13.101  -1.153  -9.704  1.00 42.63     0.195 C 
BRANCH  22  23
HETATM   23  C06   D T 601     -12.543  -2.535 -10.165  1.00 46.85     0.143 C 
BRANCH  23  24
HETATM   24  N03   D T 601     -12.332  -2.646 -11.659  1.00 51.06    -0.411 N 
BRANCH  24  25
HETATM   25  C02   D T 601     -11.019  -2.240 -12.320  1.00 53.85     0.112 C 
HETATM   26  C01   D T 601     -11.023  -1.860 -13.837  1.00 52.69     0.026 C 
ENDBRANCH  24  25
BRANCH  24  27
HETATM   27  C04   D T 601     -13.437  -3.301 -12.444  1.00 47.80     0.112 C 
HETATM   28  C05   D T 601     -14.676  -3.840 -11.675  1.00 44.89     0.026 C 
ENDBRANCH  24  27
ENDBRANCH  23  24
ENDBRANCH  22  23
ENDBRANCH  21  22
ENDBRANCH  18  21
ENDBRANCH  13  15
ENDBRANCH   1  13
BRANCH   8  29
HETATM   29  C26   D T 601     -18.708   2.905   0.375  1.00 21.63     0.023 A 
HETATM   30  C27   D T 601     -19.415   1.698   0.630  1.00 22.75     0.046 A 
HETATM   31 CL28   D T 601     -19.360   0.427  -0.481  1.00 22.59    -0.083 Cl
HETATM   32  C29   D T 601     -20.215   1.531   1.791  1.00 24.08     0.025 A 
HETATM   33  C30   D T 601     -20.280   2.568   2.747  1.00 25.63     0.003 A 
HETATM   34  C31   D T 601     -19.571   3.756   2.525  1.00 25.41     0.025 A 
HETATM   35  C32   D T 601     -18.793   3.925   1.352  1.00 23.77     0.046 A 
HETATM   36 CL33   D T 601     -17.966   5.386   1.139  1.00 25.94    -0.083 Cl
ENDBRANCH   8  29
TORSDOF 9
ENDMDL
MODEL 4
REMARK VINA RESULT:      -6.9      3.268      9.626
REMARK  9 active torsions:
REMARK  status: ('A' for Active; 'I' for Inactive)
REMARK    1  A    between atoms: C02_2  and  N03_3 
REMARK    2  A    between atoms: N03_3  and  C04_4 
REMARK    3  A    between atoms: N03_3  and  C06_6 
REMARK    4  A    between atoms: C06_6  and  C07_7 
REMARK    5  A    between atoms: C07_7  and  O08_8 
REMARK    6  A    between atoms: O08_8  and  C09_9 
REMARK    7  A    between atoms: C12_12  and  N13_13 
REMARK    8  A    between atoms: N13_13  and  C14_14 
REMARK    9  A    between atoms: C21_21  and  C26_26 
ROOT
HETATM    1  C14   D T 601     -14.347   3.281  -4.318  1.00 17.92     0.728 A 
HETATM    2  N15   D T 601     -15.679   3.477  -4.256  1.00 19.07    -0.044 NA
HETATM    3  C16   D T 601     -16.410   3.361  -3.139  1.00 18.16     0.163 A 
HETATM    4  C17   D T 601     -15.752   2.986  -1.965  1.00 16.80     0.030 A 
HETATM    5  C18   D T 601     -14.378   2.739  -2.032  1.00 18.08     0.151 A 
HETATM    6  N19   D T 601     -13.716   2.892  -3.197  1.00 16.91    -0.074 NA
HETATM    7  C20   D T 601     -16.485   2.834  -0.772  1.00 17.65     0.034 A 
HETATM    8  C21   D T 601     -17.867   3.080  -0.760  1.00 18.53     0.047 A 
HETATM    9  C22   D T 601     -18.482   3.452  -1.980  1.00 19.48     0.260 A 
HETATM   10  O23   D T 601     -19.718   3.623  -1.912  1.00 21.52    -0.267 OA
HETATM   11  N24   D T 601     -17.761   3.602  -3.149  1.00 19.49    -0.301 N 
HETATM   12  C25   D T 601     -18.365   4.012  -4.407  1.00 20.07     0.161 C 
ENDROOT
BRANCH   1  13
HETATM   13  N13   D T 601     -13.699   3.438  -5.484  1.00 20.14    -0.188 N 
HETATM   14 1H13   D T 601     -13.565   4.310  -5.732  1.00 24.16     0.184 HD
BRANCH  13  15
HETATM   15  C12   D T 601     -13.204   2.503  -6.367  1.00 24.69     0.049 A 
HETATM   16  C11   D T 601     -14.084   1.455  -6.743  1.00 26.89     0.033 A 
HETATM   17  C10   D T 601     -13.669   0.464  -7.660  1.00 28.95     0.039 A 
HETATM   18  C09   D T 601     -12.374   0.526  -8.221  1.00 30.95     0.069 A 
HETATM   19  C35   D T 601     -11.512   1.580  -7.870  1.00 28.80     0.039 A 
HETATM   20  C34   D T 601     -11.927   2.547  -6.948  1.00 26.81     0.033 A 
BRANCH  18  21
HETATM   21  O08   D T 601     -11.965  -0.383  -9.133  1.00 36.09    -0.350 OA
BRANCH  21  22
HETATM   22  C07   D T 601     -12.998  -1.286  -9.616  1.00 42.63     0.195 C 
BRANCH  22  23
HETATM   23  C06   D T 601     -12.781  -2.692  -8.976  1.00 46.85     0.143 C 
BRANCH  23  24
HETATM   24  N03   D T 601     -14.062  -3.461  -8.733  1.00 51.06    -0.411 N 
BRANCH  24  25
HETATM   25  C02   D T 601     -14.996  -3.126  -7.575  1.00 53.85     0.112 C 
HETATM   26  C01   D T 601     -14.377  -2.748  -6.190  1.00 52.69     0.026 C 
ENDBRANCH  24  25
BRANCH  24  27
HETATM   27  C04   D T 601     -14.433  -4.488  -9.770  1.00 47.80     0.112 C 
HETATM   28  C05   D T 601     -15.559  -5.506  -9.436  1.00 44.89     0.026 C 
ENDBRANCH  24  27
ENDBRANCH  23  24
ENDBRANCH  22  23
ENDBRANCH  21  22
ENDBRANCH  18  21
ENDBRANCH  13  15
ENDBRANCH   1  13
BRANCH   8  29
HETATM   29  C26   D T 601     -18.630   2.951   0.446  1.00 21.63     0.023 A 
HETATM   30  C27   D T 601     -18.660   4.012   1.393  1.00 22.75     0.046 A 
HETATM   31 CL28   D T 601     -17.755   5.414   1.131  1.00 22.59    -0.083 Cl
HETATM   32  C29   D T 601     -19.408   3.919   2.595  1.00 24.08     0.025 A 
HETATM   33  C30   D T 601     -20.184   2.767   2.847  1.00 25.63     0.003 A 
HETATM   34  C31   D T 601     -20.186   1.720   1.914  1.00 25.41     0.025 A 
HETATM   35  C32   D T 601     -19.417   1.810   0.726  1.00 23.77     0.046 A 
HETATM   36 CL33   D T 601     -19.456   0.510  -0.357  1.00 25.94    -0.083 Cl
ENDBRANCH   8  29
TORSDOF 9
ENDMDL
MODEL 5
REMARK VINA RESULT:      -6.8      4.111      6.405
REMARK  9 active torsions:
REMARK  status: ('A' for Active; 'I' for Inactive)
REMARK    1  A    between atoms: C02_2  and  N03_3 
REMARK    2  A    between atoms: N03_3  and  C04_4 
REMARK    3  A    between atoms: N03_3  and  C06_6 
REMARK    4  A    between atoms: C06_6  and  C07_7 
REMARK    5  A    between atoms: C07_7  and  O08_8 
REMARK    6  A    between atoms: O08_8  and  C09_9 
REMARK    7  A    between atoms: C12_12  and  N13_13 
REMARK    8  A    between atoms: N13_13  and  C14_14 
REMARK    9  A    between atoms: C21_21  and  C26_26 
ROOT
HETATM    1  C14   D T 601     -11.814   0.593  -8.279  1.00 17.92     0.728 A 
HETATM    2  N15   D T 601     -12.869   0.828  -7.473  1.00 19.07    -0.044 NA
HETATM    3  C16   D T 601     -14.006   0.120  -7.488  1.00 18.16     0.163 A 
HETATM    4  C17   D T 601     -14.118  -0.914  -8.421  1.00 16.80     0.030 A 
HETATM    5  C18   D T 601     -13.045  -1.135  -9.289  1.00 18.08     0.151 A 
HETATM    6  N19   D T 601     -11.930  -0.383  -9.196  1.00 16.91    -0.074 NA
HETATM    7  C20   D T 601     -15.304  -1.671  -8.485  1.00 17.65     0.034 A 
HETATM    8  C21   D T 601     -16.360  -1.401  -7.600  1.00 18.53     0.047 A 
HETATM    9  C22   D T 601     -16.193  -0.338  -6.679  1.00 19.48     0.260 A 
HETATM   10  O23   D T 601     -17.179  -0.123  -5.943  1.00 21.52    -0.267 OA
HETATM   11  N24   D T 601     -15.028   0.403  -6.617  1.00 19.49    -0.301 N 
HETATM   12  C25   D T 601     -14.822   1.480  -5.661  1.00 20.07     0.161 C 
ENDROOT
BRANCH   1  13
HETATM   13  N13   D T 601     -10.709   1.348  -8.176  1.00 20.14    -0.188 N 
HETATM   14 1H13   D T 601     -10.153   1.313  -8.904  1.00 24.16     0.184 HD
BRANCH  13  15
HETATM   15  C12   D T 601     -10.273   2.165  -7.155  1.00 24.69     0.049 A 
HETATM   16  C11   D T 601     -11.256   2.967  -6.518  1.00 26.89     0.033 A 
HETATM   17  C10   D T 601     -10.904   3.819  -5.449  1.00 28.95     0.039 A 
HETATM   18  C09   D T 601      -9.567   3.863  -4.998  1.00 30.95     0.069 A 
HETATM   19  C35   D T 601      -8.598   3.048  -5.611  1.00 28.80     0.039 A 
HETATM   20  C34   D T 601      -8.954   2.220  -6.680  1.00 26.81     0.033 A 
BRANCH  18  21
HETATM   21  O08   D T 601      -9.209   4.635  -3.949  1.00 36.09    -0.350 OA
BRANCH  21  22
HETATM   22  C07   D T 601      -9.694   6.006  -3.994  1.00 42.63     0.195 C 
BRANCH  22  23
HETATM   23  C06   D T 601      -9.877   6.527  -2.534  1.00 46.85     0.143 C 
BRANCH  23  24
HETATM   24  N03   D T 601     -11.322   6.701  -2.121  1.00 51.06    -0.411 N 
BRANCH  24  25
HETATM   25  C02   D T 601     -12.136   5.553  -1.532  1.00 53.85     0.112 C 
HETATM   26  C01   D T 601     -13.340   5.886  -0.590  1.00 52.69     0.026 C 
ENDBRANCH  24  25
BRANCH  24  27
HETATM   27  C04   D T 601     -11.877   8.099  -2.197  1.00 47.80     0.112 C 
HETATM   28  C05   D T 601     -12.301   8.654  -3.586  1.00 44.89     0.026 C 
ENDBRANCH  24  27
ENDBRANCH  23  24
ENDBRANCH  22  23
ENDBRANCH  21  22
ENDBRANCH  18  21
ENDBRANCH  13  15
ENDBRANCH   1  13
BRANCH   8  29
HETATM   29  C26   D T 601     -17.567  -2.170  -7.633  1.00 21.63     0.023 A 
HETATM   30  C27   D T 601     -18.629  -1.803  -8.505  1.00 22.75     0.046 A 
HETATM   31 CL28   D T 601     -18.498  -0.425  -9.473  1.00 22.59    -0.083 Cl
HETATM   32  C29   D T 601     -19.837  -2.546  -8.567  1.00 24.08     0.025 A 
HETATM   33  C30   D T 601     -19.981  -3.708  -7.779  1.00 25.63     0.003 A 
HETATM   34  C31   D T 601     -18.936  -4.100  -6.930  1.00 25.41     0.025 A 
HETATM   35  C32   D T 601     -17.742  -3.340  -6.857  1.00 23.77     0.046 A 
HETATM   36 CL33   D T 601     -16.520  -3.861  -5.808  1.00 25.94    -0.083 Cl
ENDBRANCH   8  29
TORSDOF 9
ENDMDL
MODEL 6
REMARK VINA RESULT:      -6.8      2.799      4.182
REMARK  9 active torsions:
REMARK  status: ('A' for Active; 'I' for Inactive)
REMARK    1  A    between atoms: C02_2  and  N03_3 
REMARK    2  A    between atoms: N03_3  and  C04_4 
REMARK    3  A    between atoms: N03_3  and  C06_6 
REMARK    4  A    between atoms: C06_6  and  C07_7 
REMARK    5  A    between atoms: C07_7  and  O08_8 
REMARK    6  A    between atoms: O08_8  and  C09_9 
REMARK    7  A    between atoms: C12_12  and  N13_13 
REMARK    8  A    between atoms: N13_13  and  C14_14 
REMARK    9  A    between atoms: C21_21  and  C26_26 
ROOT
HETATM    1  C14   D T 601     -11.235   2.307  -6.825  1.00 17.92     0.728 A 
HETATM    2  N15   D T 601     -12.532   2.068  -6.547  1.00 19.07    -0.044 NA
HETATM    3  C16   D T 601     -13.246   1.063  -7.071  1.00 18.16     0.163 A 
HETATM    4  C17   D T 601     -12.611   0.221  -7.988  1.00 16.80     0.030 A 
HETATM    5  C18   D T 601     -11.279   0.489  -8.313  1.00 18.08     0.151 A 
HETATM    6  N19   D T 601     -10.630   1.516  -7.728  1.00 16.91    -0.074 NA
HETATM    7  C20   D T 601     -13.329  -0.838  -8.577  1.00 17.65     0.034 A 
HETATM    8  C21   D T 601     -14.671  -1.057  -8.228  1.00 18.53     0.047 A 
HETATM    9  C22   D T 601     -15.265  -0.170  -7.297  1.00 19.48     0.260 A 
HETATM   10  O23   D T 601     -16.469  -0.395  -7.053  1.00 21.52    -0.267 OA
HETATM   11  N24   D T 601     -14.558   0.867  -6.719  1.00 19.49    -0.301 N 
HETATM   12  C25   D T 601     -15.137   1.773  -5.739  1.00 20.07     0.161 C 
ENDROOT
BRANCH   1  13
HETATM   13  N13   D T 601     -10.600   3.332  -6.235  1.00 20.14    -0.188 N 
HETATM   14 1H13   D T 601      -9.812   3.576  -6.637  1.00 24.16     0.184 HD
BRANCH  13  15
HETATM   15  C12   D T 601     -10.937   4.077  -5.126  1.00 24.69     0.049 A 
HETATM   16  C11   D T 601      -9.888   4.805  -4.506  1.00 26.89     0.033 A 
HETATM   17  C10   D T 601     -10.145   5.612  -3.376  1.00 28.95     0.039 A 
HETATM   18  C09   D T 601     -11.459   5.709  -2.868  1.00 30.95     0.069 A 
HETATM   19  C35   D T 601     -12.504   5.010  -3.499  1.00 28.80     0.039 A 
HETATM   20  C34   D T 601     -12.235   4.200  -4.608  1.00 26.81     0.033 A 
BRANCH  18  21
HETATM   21  O08   D T 601     -11.744   6.507  -1.815  1.00 36.09    -0.350 OA
BRANCH  21  22
HETATM   22  C07   D T 601     -13.160   6.704  -1.552  1.00 42.63     0.195 C 
BRANCH  22  23
HETATM   23  C06   D T 601     -13.500   6.125  -0.144  1.00 46.85     0.143 C 
BRANCH  23  24
HETATM   24  N03   D T 601     -14.565   5.050  -0.163  1.00 51.06    -0.411 N 
BRANCH  24  25
HETATM   25  C02   D T 601     -14.286   3.647  -0.690  1.00 53.85     0.112 C 
HETATM   26  C01   D T 601     -15.259   3.030  -1.748  1.00 52.69     0.026 C 
ENDBRANCH  24  25
BRANCH  24  27
HETATM   27  C04   D T 601     -15.878   5.398   0.488  1.00 47.80     0.112 C 
HETATM   28  C05   D T 601     -16.326   4.585   1.735  1.00 44.89     0.026 C 
ENDBRANCH  24  27
ENDBRANCH  23  24
ENDBRANCH  22  23
ENDBRANCH  21  22
ENDBRANCH  18  21
ENDBRANCH  13  15
ENDBRANCH   1  13
BRANCH   8  29
HETATM   29  C26   D T 601     -15.416  -2.139  -8.799  1.00 21.63     0.023 A 
HETATM   30  C27   D T 601     -16.012  -2.001 -10.083  1.00 22.75     0.046 A 
HETATM   31 CL28   D T 601     -15.893  -0.542 -10.925  1.00 22.59    -0.083 Cl
HETATM   32  C29   D T 601     -16.753  -3.054 -10.681  1.00 24.08     0.025 A 
HETATM   33  C30   D T 601     -16.869  -4.292 -10.011  1.00 25.63     0.003 A 
HETATM   34  C31   D T 601     -16.268  -4.455  -8.755  1.00 25.41     0.025 A 
HETATM   35  C32   D T 601     -15.550  -3.391  -8.154  1.00 23.77     0.046 A 
HETATM   36 CL33   D T 601     -14.854  -3.648  -6.633  1.00 25.94    -0.083 Cl
ENDBRANCH   8  29
TORSDOF 9
ENDMDL
MODEL 7
REMARK VINA RESULT:      -6.7      2.166      3.453
REMARK  9 active torsions:
REMARK  status: ('A' for Active; 'I' for Inactive)
REMARK    1  A    between atoms: C02_2  and  N03_3 
REMARK    2  A    between atoms: N03_3  and  C04_4 
REMARK    3  A    between atoms: N03_3  and  C06_6 
REMARK    4  A    between atoms: C06_6  and  C07_7 
REMARK    5  A    between atoms: C07_7  and  O08_8 
REMARK    6  A    between atoms: O08_8  and  C09_9 
REMARK    7  A    between atoms: C12_12  and  N13_13 
REMARK    8  A    between atoms: N13_13  and  C14_14 
REMARK    9  A    between atoms: C21_21  and  C26_26 
ROOT
HETATM    1  C14   D T 601     -14.046   0.935  -5.101  1.00 17.92     0.728 A 
HETATM    2  N15   D T 601     -14.860  -0.034  -5.565  1.00 19.07    -0.044 NA
HETATM    3  C16   D T 601     -14.875  -0.467  -6.833  1.00 18.16     0.163 A 
HETATM    4  C17   D T 601     -14.007   0.145  -7.741  1.00 16.80     0.030 A 
HETATM    5  C18   D T 601     -13.192   1.180  -7.276  1.00 18.08     0.151 A 
HETATM    6  N19   D T 601     -13.232   1.545  -5.979  1.00 16.91    -0.074 NA
HETATM    7  C20   D T 601     -14.004  -0.266  -9.089  1.00 17.65     0.034 A 
HETATM    8  C21   D T 601     -14.853  -1.301  -9.510  1.00 18.53     0.047 A 
HETATM    9  C22   D T 601     -15.714  -1.883  -8.548  1.00 19.48     0.260 A 
HETATM   10  O23   D T 601     -16.469  -2.773  -8.991  1.00 21.52    -0.267 OA
HETATM   11  N24   D T 601     -15.715  -1.479  -7.227  1.00 19.49    -0.301 N 
HETATM   12  C25   D T 601     -16.568  -2.080  -6.214  1.00 20.07     0.161 C 
ENDROOT
BRANCH   1  13
HETATM   13  N13   D T 601     -14.094   1.288  -3.806  1.00 20.14    -0.188 N 
HETATM   14 1H13   D T 601     -13.837   0.631  -3.221  1.00 24.16     0.184 HD
BRANCH  13  15
HETATM   15  C12   D T 601     -14.466   2.476  -3.214  1.00 24.69     0.049 A 
HETATM   16  C11   D T 601     -15.533   3.185  -3.826  1.00 26.89     0.033 A 
HETATM   17  C10   D T 601     -15.994   4.401  -3.276  1.00 28.95     0.039 A 
HETATM   18  C09   D T 601     -15.402   4.907  -2.099  1.00 30.95     0.069 A 
HETATM   19  C35   D T 601     -14.363   4.191  -1.477  1.00 28.80     0.039 A 
HETATM   20  C34   D T 601     -13.902   2.996  -2.039  1.00 26.81     0.033 A 
BRANCH  18  21
HETATM   21  O08   D T 601     -15.851   6.045  -1.525  1.00 36.09    -0.350 OA
BRANCH  21  22
HETATM   22  C07   D T 601     -16.143   5.950  -0.103  1.00 42.63     0.195 C 
BRANCH  22  23
HETATM   23  C06   D T 601     -17.595   5.410   0.081  1.00 46.85     0.143 C 
BRANCH  23  24
HETATM   24  N03   D T 601     -17.722   4.335   1.138  1.00 51.06    -0.411 N 
BRANCH  24  25
HETATM   25  C02   D T 601     -17.331   4.582   2.591  1.00 53.85     0.112 C 
HETATM   26  C01   D T 601     -18.097   3.816   3.720  1.00 52.69     0.026 C 
ENDBRANCH  24  25
BRANCH  24  27
HETATM   27  C04   D T 601     -18.377   3.048   0.708  1.00 47.80     0.112 C 
HETATM   28  C05   D T 601     -17.836   2.327  -0.558  1.00 44.89     0.026 C 
ENDBRANCH  24  27
ENDBRANCH  23  24
ENDBRANCH  22  23
ENDBRANCH  21  22
ENDBRANCH  18  21
ENDBRANCH  13  15
ENDBRANCH   1  13
BRANCH   8  29
HETATM   29  C26   D T 601     -14.852  -1.750 -10.871  1.00 21.63     0.023 A 
HETATM   30  C27   D T 601     -13.900  -2.711 -11.309  1.00 22.75     0.046 A 
HETATM   31 CL28   D T 601     -12.727  -3.296 -10.244  1.00 22.59    -0.083 Cl
HETATM   32  C29   D T 601     -13.873  -3.181 -12.648  1.00 24.08     0.025 A 
HETATM   33  C30   D T 601     -14.842  -2.721 -13.567  1.00 25.63     0.003 A 
HETATM   34  C31   D T 601     -15.804  -1.791 -13.147  1.00 25.41     0.025 A 
HETATM   35  C32   D T 601     -15.809  -1.310 -11.814  1.00 23.77     0.046 A 
HETATM   36 CL33   D T 601     -16.992  -0.182 -11.371  1.00 25.94    -0.083 Cl
ENDBRANCH   8  29
TORSDOF 9
ENDMDL
MODEL 8
REMARK VINA RESULT:      -6.7      4.817     10.763
REMARK  9 active torsions:
REMARK  status: ('A' for Active; 'I' for Inactive)
REMARK    1  A    between atoms: C02_2  and  N03_3 
REMARK    2  A    between atoms: N03_3  and  C04_4 
REMARK    3  A    between atoms: N03_3  and  C06_6 
REMARK    4  A    between atoms: C06_6  and  C07_7 
REMARK    5  A    between atoms: C07_7  and  O08_8 
REMARK    6  A    between atoms: O08_8  and  C09_9 
REMARK    7  A    between atoms: C12_12  and  N13_13 
REMARK    8  A    between atoms: N13_13  and  C14_14 
REMARK    9  A    between atoms: C21_21  and  C26_26 
ROOT
HETATM    1  C14   D T 601     -12.165   2.124  -7.212  1.00 17.92     0.728 A 
HETATM    2  N15   D T 601     -11.268   2.747  -6.421  1.00 19.07    -0.044 NA
HETATM    3  C16   D T 601     -11.587   3.620  -5.457  1.00 18.16     0.163 A 
HETATM    4  C17   D T 601     -12.938   3.926  -5.276  1.00 16.80     0.030 A 
HETATM    5  C18   D T 601     -13.869   3.317  -6.120  1.00 18.08     0.151 A 
HETATM    6  N19   D T 601     -13.462   2.439  -7.059  1.00 16.91    -0.074 NA
HETATM    7  C20   D T 601     -13.316   4.854  -4.286  1.00 17.65     0.034 A 
HETATM    8  C21   D T 601     -12.340   5.450  -3.471  1.00 18.53     0.047 A 
HETATM    9  C22   D T 601     -10.986   5.105  -3.702  1.00 19.48     0.260 A 
HETATM   10  O23   D T 601     -10.164   5.694  -2.970  1.00 21.52    -0.267 OA
HETATM   11  N24   D T 601     -10.618   4.194  -4.673  1.00 19.49    -0.301 N 
HETATM   12  C25   D T 601      -9.237   3.802  -4.910  1.00 20.07     0.161 C 
ENDROOT
BRANCH   1  13
HETATM   13  N13   D T 601     -11.747   1.250  -8.142  1.00 20.14    -0.188 N 
HETATM   14 1H13   D T 601     -11.075   1.559  -8.683  1.00 24.16     0.184 HD
BRANCH  13  15
HETATM   15  C12   D T 601     -12.164  -0.035  -8.417  1.00 24.69     0.049 A 
HETATM   16  C11   D T 601     -12.714  -0.771  -7.334  1.00 26.89     0.033 A 
HETATM   17  C10   D T 601     -13.186  -2.087  -7.528  1.00 28.95     0.039 A 
HETATM   18  C09   D T 601     -13.127  -2.671  -8.813  1.00 30.95     0.069 A 
HETATM   19  C35   D T 601     -12.609  -1.932  -9.892  1.00 28.80     0.039 A 
HETATM   20  C34   D T 601     -12.128  -0.635  -9.685  1.00 26.81     0.033 A 
BRANCH  18  21
HETATM   21  O08   D T 601     -13.612  -3.912  -9.038  1.00 36.09    -0.350 OA
BRANCH  21  22
HETATM   22  C07   D T 601     -14.159  -4.132 -10.368  1.00 42.63     0.195 C 
BRANCH  22  23
HETATM   23  C06   D T 601     -15.659  -4.541 -10.237  1.00 46.85     0.143 C 
BRANCH  23  24
HETATM   24  N03   D T 601     -16.033  -5.080  -8.874  1.00 51.06    -0.411 N 
BRANCH  24  25
HETATM   25  C02   D T 601     -16.548  -4.173  -7.761  1.00 53.85     0.112 C 
HETATM   26  C01   D T 601     -17.167  -4.825  -6.481  1.00 52.69     0.026 C 
ENDBRANCH  24  25
BRANCH  24  27
HETATM   27  C04   D T 601     -15.996  -6.577  -8.713  1.00 47.80     0.112 C 
HETATM   28  C05   D T 601     -14.614  -7.272  -8.559  1.00 44.89     0.026 C 
ENDBRANCH  24  27
ENDBRANCH  23  24
ENDBRANCH  22  23
ENDBRANCH  21  22
ENDBRANCH  18  21
ENDBRANCH  13  15
ENDBRANCH   1  13
BRANCH   8  29
HETATM   29  C26   D T 601     -12.703   6.381  -2.444  1.00 21.63     0.023 A 
HETATM   30  C27   D T 601     -13.229   5.916  -1.207  1.00 22.75     0.046 A 
HETATM   31 CL28   D T 601     -13.480   4.265  -0.955  1.00 22.59    -0.083 Cl
HETATM   32  C29   D T 601     -13.595   6.810  -0.167  1.00 24.08     0.025 A 
HETATM   33  C30   D T 601     -13.393   8.197  -0.337  1.00 25.63     0.003 A 
HETATM   34  C31   D T 601     -12.853   8.673  -1.541  1.00 25.41     0.025 A 
HETATM   35  C32   D T 601     -12.512   7.775  -2.584  1.00 23.77     0.046 A 
HETATM   36 CL33   D T 601     -11.872   8.412  -4.015  1.00 25.94    -0.083 Cl
ENDBRANCH   8  29
TORSDOF 9
ENDMDL
MODEL 9
REMARK VINA RESULT:      -6.7      0.959      2.143
REMARK  9 active torsions:
REMARK  status: ('A' for Active; 'I' for Inactive)
REMARK    1  A    between atoms: C02_2  and  N03_3 
REMARK    2  A    between atoms: N03_3  and  C04_4 
REMARK    3  A    between atoms: N03_3  and  C06_6 
REMARK    4  A    between atoms: C06_6  and  C07_7 
REMARK    5  A    between atoms: C07_7  and  O08_8 
REMARK    6  A    between atoms: O08_8  and  C09_9 
REMARK    7  A    between atoms: C12_12  and  N13_13 
REMARK    8  A    between atoms: N13_13  and  C14_14 
REMARK    9  A    between atoms: C21_21  and  C26_26 
ROOT
HETATM    1  C14   D T 601     -14.181   3.249  -4.194  1.00 17.92     0.728 A 
HETATM    2  N15   D T 601     -15.310   2.745  -4.732  1.00 19.07    -0.044 NA
HETATM    3  C16   D T 601     -15.374   1.597  -5.420  1.00 18.16     0.163 A 
HETATM    4  C17   D T 601     -14.186   0.889  -5.618  1.00 16.80     0.030 A 
HETATM    5  C18   D T 601     -13.005   1.427  -5.100  1.00 18.08     0.151 A 
HETATM    6  N19   D T 601     -13.033   2.584  -4.407  1.00 16.91    -0.074 NA
HETATM    7  C20   D T 601     -14.204  -0.313  -6.353  1.00 17.65     0.034 A 
HETATM    8  C21   D T 601     -15.415  -0.806  -6.865  1.00 18.53     0.047 A 
HETATM    9  C22   D T 601     -16.587  -0.044  -6.638  1.00 19.48     0.260 A 
HETATM   10  O23   D T 601     -17.625  -0.515  -7.147  1.00 21.52    -0.267 OA
HETATM   11  N24   D T 601     -16.567   1.134  -5.916  1.00 19.49    -0.301 N 
HETATM   12  C25   D T 601     -17.761   1.919  -5.644  1.00 20.07     0.161 C 
ENDROOT
BRANCH   1  13
HETATM   13  N13   D T 601     -14.222   4.400  -3.504  1.00 20.14    -0.188 N 
HETATM   14 1H13   D T 601     -14.076   5.152  -4.008  1.00 24.16     0.184 HD
BRANCH  13  15
HETATM   15  C12   D T 601     -14.445   4.636  -2.165  1.00 24.69     0.049 A 
HETATM   16  C11   D T 601     -14.442   5.993  -1.749  1.00 26.89     0.033 A 
HETATM   17  C10   D T 601     -14.683   6.330  -0.399  1.00 28.95     0.039 A 
HETATM   18  C09   D T 601     -14.946   5.311   0.542  1.00 30.95     0.069 A 
HETATM   19  C35   D T 601     -14.977   3.968   0.124  1.00 28.80     0.039 A 
HETATM   20  C34   D T 601     -14.720   3.644  -1.212  1.00 26.81     0.033 A 
BRANCH  18  21
HETATM   21  O08   D T 601     -15.224   5.605   1.831  1.00 36.09    -0.350 OA
BRANCH  21  22
HETATM   22  C07   D T 601     -16.530   6.202   2.064  1.00 42.63     0.195 C 
BRANCH  22  23
HETATM   23  C06   D T 601     -17.529   5.085   2.495  1.00 46.85     0.143 C 
BRANCH  23  24
HETATM   24  N03   D T 601     -18.411   4.583   1.373  1.00 51.06    -0.411 N 
BRANCH  24  25
HETATM   25  C02   D T 601     -19.082   3.214   1.426  1.00 53.85     0.112 C 
HETATM   26  C01   D T 601     -20.203   2.963   2.488  1.00 52.69     0.026 C 
ENDBRANCH  24  25
BRANCH  24  27
HETATM   27  C04   D T 601     -18.700   5.556   0.261  1.00 47.80     0.112 C 
HETATM   28  C05   D T 601     -18.282   5.173  -1.186  1.00 44.89     0.026 C 
ENDBRANCH  24  27
ENDBRANCH  23  24
ENDBRANCH  22  23
ENDBRANCH  21  22
ENDBRANCH  18  21
ENDBRANCH  13  15
ENDBRANCH   1  13
BRANCH   8  29
HETATM   29  C26   D T 601     -15.461  -2.035  -7.598  1.00 21.63     0.023 A 
HETATM   30  C27   D T 601     -15.787  -3.252  -6.938  1.00 22.75     0.046 A 
HETATM   31 CL28   D T 601     -16.073  -3.269  -5.273  1.00 22.59    -0.083 Cl
HETATM   32  C29   D T 601     -15.846  -4.488  -7.634  1.00 24.08     0.025 A 
HETATM   33  C30   D T 601     -15.622  -4.514  -9.028  1.00 25.63     0.003 A 
HETATM   34  C31   D T 601     -15.322  -3.321  -9.700  1.00 25.41     0.025 A 
HETATM   35  C32   D T 601     -15.242  -2.094  -8.994  1.00 23.77     0.046 A 
HETATM   36 CL33   D T 601     -14.869  -0.690  -9.861  1.00 25.94    -0.083 Cl
ENDBRANCH   8  29
TORSDOF 9
ENDMDL
