MODEL 1
REMARK VINA RESULT:      -7.7      0.000      0.000
REMARK  2 active torsions:
REMARK  status: ('A' for Active; 'I' for Inactive)
REMARK    1  A    between atoms: C5_4  and  O7_13 
REMARK    2  A    between atoms: C8_10  and  O7_13 
ROOT
HETATM    1  O7    D T1258      -0.778  -4.959 -12.159  1.00 25.09    -0.304 OA
ENDROOT
BRANCH   1   2
HETATM    2  C5    D T1258       0.119  -4.334 -11.360  1.00 24.92     0.125 A 
HETATM    3  C6    D T1258       1.149  -5.102 -10.690  1.00 20.38     0.154 A 
HETATM    4  C1    D T1258       2.057  -4.471  -9.896  1.00 24.39     0.041 A 
HETATM    5  O17   D T1258       1.192  -6.437 -10.833  1.00 23.90    -0.188 OA
HETATM    6  C2    D T1258       1.992  -3.075  -9.722  1.00 24.16     0.060 A 
HETATM    7  C3    D T1258       0.993  -2.324 -10.378  1.00 22.08     0.014 A 
HETATM    8 CL14   D T1258       3.177  -2.261  -8.691  1.00 26.89    -0.082 Cl
HETATM    9  C4    D T1258       0.097  -2.956 -11.235  1.00 21.98     0.028 A 
ENDBRANCH   1   2
BRANCH   1  10
HETATM   10  C8    D T1258      -2.073  -5.035 -11.790  1.00 26.64     0.111 A 
HETATM   11  C9    D T1258      -2.614  -6.288 -11.302  1.00 26.93     0.081 A 
HETATM   12  C10   D T1258      -3.930  -6.376 -10.984  1.00 30.17     0.025 A 
HETATM   13 CL16   D T1258      -1.581  -7.709 -11.188  1.00 51.29    -0.080 Cl
HETATM   14  C11   D T1258      -4.774  -5.299 -11.212  1.00 28.51     0.059 A 
HETATM   15  C12   D T1258      -4.246  -4.067 -11.680  1.00 27.32     0.013 A 
HETATM   16 CL15   D T1258      -6.489  -5.439 -10.849  1.00 39.13    -0.082 Cl
HETATM   17  C13   D T1258      -2.903  -3.952 -11.961  1.00 28.27     0.026 A 
ENDBRANCH   1  10
TORSDOF 2
ENDMDL
MODEL 2
REMARK VINA RESULT:      -7.6      1.024      5.633
REMARK  2 active torsions:
REMARK  status: ('A' for Active; 'I' for Inactive)
REMARK    1  A    between atoms: C5_4  and  O7_13 
REMARK    2  A    between atoms: C8_10  and  O7_13 
ROOT
HETATM    1  O7    D T1258      -0.719  -4.839 -12.357  1.00 25.09    -0.304 OA
ENDROOT
BRANCH   1   2
HETATM    2  C5    D T1258      -2.001  -4.938 -11.931  1.00 24.92     0.125 A 
HETATM    3  C6    D T1258      -2.675  -6.221 -11.954  1.00 20.38     0.154 A 
HETATM    4  C1    D T1258      -3.959  -6.321 -11.515  1.00 24.39     0.041 A 
HETATM    5  O17   D T1258      -2.040  -7.305 -12.430  1.00 23.90    -0.188 OA
HETATM    6  C2    D T1258      -4.634  -5.178 -11.043  1.00 24.16     0.060 A 
HETATM    7  C3    D T1258      -3.978  -3.928 -11.015  1.00 22.08     0.014 A 
HETATM    8 CL14   D T1258      -6.302  -5.314 -10.470  1.00 26.89    -0.082 Cl
HETATM    9  C4    D T1258      -2.648  -3.831 -11.410  1.00 21.98     0.028 A 
ENDBRANCH   1   2
BRANCH   1  10
HETATM   10  C8    D T1258       0.216  -4.284 -11.560  1.00 26.64     0.111 A 
HETATM   11  C9    D T1258       1.083  -5.129 -10.764  1.00 26.93     0.081 A 
HETATM   12  C10   D T1258       1.987  -4.567  -9.922  1.00 30.17     0.025 A 
HETATM   13 CL16   D T1258       0.917  -6.881 -10.838  1.00 51.29    -0.080 Cl
HETATM   14  C11   D T1258       2.017  -3.190  -9.755  1.00 28.51     0.059 A 
HETATM   15  C12   D T1258       1.177  -2.358 -10.541  1.00 27.32     0.013 A 
HETATM   16 CL15   D T1258       3.153  -2.471  -8.620  1.00 39.13    -0.082 Cl
HETATM   17  C13   D T1258       0.289  -2.916 -11.434  1.00 28.27     0.026 A 
ENDBRANCH   1  10
TORSDOF 2
ENDMDL
MODEL 3
REMARK VINA RESULT:      -6.8      3.510      5.744
REMARK  2 active torsions:
REMARK  status: ('A' for Active; 'I' for Inactive)
REMARK    1  A    between atoms: C5_4  and  O7_13 
REMARK    2  A    between atoms: C8_10  and  O7_13 
ROOT
HETATM    1  O7    D T1258       0.558  -1.162 -10.502  1.00 25.09    -0.304 OA
ENDROOT
BRANCH   1   2
HETATM    2  C5    D T1258      -0.519  -0.554  -9.951  1.00 24.92     0.125 A 
HETATM    3  C6    D T1258      -1.431   0.200 -10.789  1.00 20.38     0.154 A 
HETATM    4  C1    D T1258      -2.519   0.801 -10.236  1.00 24.39     0.041 A 
HETATM    5  O17   D T1258      -1.188   0.325 -12.104  1.00 23.90    -0.188 OA
HETATM    6  C2    D T1258      -2.757   0.696  -8.852  1.00 24.16     0.060 A 
HETATM    7  C3    D T1258      -1.873  -0.043  -8.035  1.00 22.08     0.014 A 
HETATM    8 CL14   D T1258      -4.175   1.477  -8.140  1.00 26.89    -0.082 Cl
HETATM    9  C4    D T1258      -0.790  -0.706  -8.603  1.00 21.98     0.028 A 
ENDBRANCH   1   2
BRANCH   1  10
HETATM   10  C8    D T1258       0.613  -2.508 -10.569  1.00 26.64     0.111 A 
HETATM   11  C9    D T1258       1.674  -3.225  -9.891  1.00 26.93     0.081 A 
HETATM   12  C10   D T1258       1.758  -4.574 -10.005  1.00 30.17     0.025 A 
HETATM   13 CL16   D T1258       2.891  -2.339  -8.977  1.00 51.29    -0.080 Cl
HETATM   14  C11   D T1258       0.887  -5.255 -10.842  1.00 28.51     0.059 A 
HETATM   15  C12   D T1258      -0.161  -4.559 -11.501  1.00 27.32     0.013 A 
HETATM   16 CL15   D T1258       1.036  -6.998 -11.030  1.00 39.13    -0.082 Cl
HETATM   17  C13   D T1258      -0.284  -3.195 -11.353  1.00 28.27     0.026 A 
ENDBRANCH   1  10
TORSDOF 2
ENDMDL
MODEL 4
REMARK VINA RESULT:      -6.6      1.765      2.256
REMARK  2 active torsions:
REMARK  status: ('A' for Active; 'I' for Inactive)
REMARK    1  A    between atoms: C5_4  and  O7_13 
REMARK    2  A    between atoms: C8_10  and  O7_13 
ROOT
HETATM    1  O7    D T1258      -2.739  -5.634 -12.594  1.00 25.09    -0.304 OA
ENDROOT
BRANCH   1   2
HETATM    2  C5    D T1258      -1.611  -5.261 -11.943  1.00 24.92     0.125 A 
HETATM    3  C6    D T1258      -0.708  -6.270 -11.426  1.00 20.38     0.154 A 
HETATM    4  C1    D T1258       0.431  -5.894 -10.782  1.00 24.39     0.041 A 
HETATM    5  O17   D T1258      -1.007  -7.573 -11.561  1.00 23.90    -0.188 OA
HETATM    6  C2    D T1258       0.729  -4.528 -10.615  1.00 24.16     0.060 A 
HETATM    7  C3    D T1258      -0.147  -3.544 -11.122  1.00 22.08     0.014 A 
HETATM    8 CL14   D T1258       2.212  -4.046  -9.780  1.00 26.89    -0.082 Cl
HETATM    9  C4    D T1258      -1.284  -3.922 -11.830  1.00 21.98     0.028 A 
ENDBRANCH   1   2
BRANCH   1  10
HETATM   10  C8    D T1258      -3.906  -5.012 -12.331  1.00 26.64     0.111 A 
HETATM   11  C9    D T1258      -4.784  -5.525 -11.298  1.00 26.93     0.081 A 
HETATM   12  C10   D T1258      -5.983  -4.930 -11.073  1.00 30.17     0.025 A 
HETATM   13 CL16   D T1258      -4.325  -6.959 -10.385  1.00 51.29    -0.080 Cl
HETATM   14  C11   D T1258      -6.407  -3.893 -11.890  1.00 28.51     0.059 A 
HETATM   15  C12   D T1258      -5.546  -3.380 -12.897  1.00 27.32     0.013 A 
HETATM   16 CL15   D T1258      -7.986  -3.163 -11.629  1.00 39.13    -0.082 Cl
HETATM   17  C13   D T1258      -4.308  -3.946 -13.102  1.00 28.27     0.026 A 
ENDBRANCH   1  10
TORSDOF 2
ENDMDL
MODEL 5
REMARK VINA RESULT:      -6.6      3.549      4.582
REMARK  2 active torsions:
REMARK  status: ('A' for Active; 'I' for Inactive)
REMARK    1  A    between atoms: C5_4  and  O7_13 
REMARK    2  A    between atoms: C8_10  and  O7_13 
ROOT
HETATM    1  O7    D T1258      -1.475  -2.804 -10.193  1.00 25.09    -0.304 OA
ENDROOT
BRANCH   1   2
HETATM    2  C5    D T1258      -1.710  -1.607 -10.780  1.00 24.92     0.125 A 
HETATM    3  C6    D T1258      -2.792  -0.768 -10.305  1.00 20.38     0.154 A 
HETATM    4  C1    D T1258      -3.020   0.440 -10.888  1.00 24.39     0.041 A 
HETATM    5  O17   D T1258      -3.583  -1.194  -9.306  1.00 23.90    -0.188 OA
HETATM    6  C2    D T1258      -2.208   0.873 -11.955  1.00 24.16     0.060 A 
HETATM    7  C3    D T1258      -1.150   0.060 -12.416  1.00 22.08     0.014 A 
HETATM    8 CL14   D T1258      -2.507   2.446 -12.707  1.00 26.89    -0.082 Cl
HETATM    9  C4    D T1258      -0.877  -1.151 -11.787  1.00 21.98     0.028 A 
ENDBRANCH   1   2
BRANCH   1  10
HETATM   10  C8    D T1258      -1.768  -3.946 -10.847  1.00 26.64     0.111 A 
HETATM   11  C9    D T1258      -0.713  -4.884 -11.177  1.00 26.93     0.081 A 
HETATM   12  C10   D T1258      -1.003  -6.005 -11.883  1.00 30.17     0.025 A 
HETATM   13 CL16   D T1258       0.951  -4.533 -10.721  1.00 51.29    -0.080 Cl
HETATM   14  C11   D T1258      -2.287  -6.208 -12.368  1.00 28.51     0.059 A 
HETATM   15  C12   D T1258      -3.326  -5.298 -12.038  1.00 27.32     0.013 A 
HETATM   16 CL15   D T1258      -2.643  -7.637 -13.330  1.00 39.13    -0.082 Cl
HETATM   17  C13   D T1258      -3.052  -4.181 -11.281  1.00 28.27     0.026 A 
ENDBRANCH   1  10
TORSDOF 2
ENDMDL
MODEL 6
REMARK VINA RESULT:      -6.5      3.795      5.122
REMARK  2 active torsions:
REMARK  status: ('A' for Active; 'I' for Inactive)
REMARK    1  A    between atoms: C5_4  and  O7_13 
REMARK    2  A    between atoms: C8_10  and  O7_13 
ROOT
HETATM    1  O7    D T1258       0.443  -1.120 -10.594  1.00 25.09    -0.304 OA
ENDROOT
BRANCH   1   2
HETATM    2  C5    D T1258       0.579  -2.464 -10.689  1.00 24.92     0.125 A 
HETATM    3  C6    D T1258       1.591  -3.146  -9.908  1.00 20.38     0.154 A 
HETATM    4  C1    D T1258       1.720  -4.498  -9.996  1.00 24.39     0.041 A 
HETATM    5  O17   D T1258       2.417  -2.441  -9.116  1.00 23.90    -0.188 OA
HETATM    6  C2    D T1258       0.873  -5.233 -10.849  1.00 24.16     0.060 A 
HETATM    7  C3    D T1258      -0.117  -4.572 -11.607  1.00 22.08     0.014 A 
HETATM    8 CL14   D T1258       1.042  -6.990 -10.956  1.00 26.89    -0.082 Cl
HETATM    9  C4    D T1258      -0.290  -3.197 -11.479  1.00 21.98     0.028 A 
ENDBRANCH   1   2
BRANCH   1  10
HETATM   10  C8    D T1258      -0.662  -0.592 -10.030  1.00 26.64     0.111 A 
HETATM   11  C9    D T1258      -1.632   0.106 -10.851  1.00 26.93     0.081 A 
HETATM   12  C10   D T1258      -2.715   0.683 -10.272  1.00 30.17     0.025 A 
HETATM   13 CL16   D T1258      -1.369   0.260 -12.585  1.00 51.29    -0.080 Cl
HETATM   14  C11   D T1258      -2.845   0.687  -8.892  1.00 28.51     0.059 A 
HETATM   15  C12   D T1258      -1.903  -0.004  -8.084  1.00 27.32     0.013 A 
HETATM   16 CL15   D T1258      -4.223   1.486  -8.145  1.00 39.13    -0.082 Cl
HETATM   17  C13   D T1258      -0.826  -0.635  -8.665  1.00 28.27     0.026 A 
ENDBRANCH   1  10
TORSDOF 2
ENDMDL
MODEL 7
REMARK VINA RESULT:      -6.4      3.355      4.683
REMARK  2 active torsions:
REMARK  status: ('A' for Active; 'I' for Inactive)
REMARK    1  A    between atoms: C5_4  and  O7_13 
REMARK    2  A    between atoms: C8_10  and  O7_13 
ROOT
HETATM    1  O7    D T1258      -2.435  -2.629 -10.627  1.00 25.09    -0.304 OA
ENDROOT
BRANCH   1   2
HETATM    2  C5    D T1258      -2.372  -1.527 -11.412  1.00 24.92     0.125 A 
HETATM    3  C6    D T1258      -1.163  -0.727 -11.440  1.00 20.38     0.154 A 
HETATM    4  C1    D T1258      -1.097   0.373 -12.238  1.00 24.39     0.041 A 
HETATM    5  O17   D T1258      -0.120  -1.059 -10.661  1.00 23.90    -0.188 OA
HETATM    6  C2    D T1258      -2.202   0.737 -13.031  1.00 24.16     0.060 A 
HETATM    7  C3    D T1258      -3.378  -0.044 -13.011  1.00 22.08     0.014 A 
HETATM    8 CL14   D T1258      -2.108   2.166 -14.069  1.00 26.89    -0.082 Cl
HETATM    9  C4    D T1258      -3.432  -1.201 -12.240  1.00 21.98     0.028 A 
ENDBRANCH   1   2
BRANCH   1  10
HETATM   10  C8    D T1258      -2.378  -3.856 -11.181  1.00 26.64     0.111 A 
HETATM   11  C9    D T1258      -3.577  -4.665 -11.278  1.00 26.93     0.081 A 
HETATM   12  C10   D T1258      -3.506  -5.921 -11.786  1.00 30.17     0.025 A 
HETATM   13 CL16   D T1258      -5.110  -4.041 -10.674  1.00 51.29    -0.080 Cl
HETATM   14  C11   D T1258      -2.276  -6.464 -12.125  1.00 28.51     0.059 A 
HETATM   15  C12   D T1258      -1.100  -5.673 -12.042  1.00 27.32     0.013 A 
HETATM   16 CL15   D T1258      -2.185  -8.113 -12.730  1.00 39.13    -0.082 Cl
HETATM   17  C13   D T1258      -1.168  -4.380 -11.573  1.00 28.27     0.026 A 
ENDBRANCH   1  10
TORSDOF 2
ENDMDL
MODEL 8
REMARK VINA RESULT:      -6.3      3.758      5.964
REMARK  2 active torsions:
REMARK  status: ('A' for Active; 'I' for Inactive)
REMARK    1  A    between atoms: C5_4  and  O7_13 
REMARK    2  A    between atoms: C8_10  and  O7_13 
ROOT
HETATM    1  O7    D T1258      -2.520  -2.011 -10.584  1.00 25.09    -0.304 OA
ENDROOT
BRANCH   1   2
HETATM    2  C5    D T1258      -2.600  -3.224 -11.180  1.00 24.92     0.125 A 
HETATM    3  C6    D T1258      -1.538  -4.192 -10.995  1.00 20.38     0.154 A 
HETATM    4  C1    D T1258      -1.625  -5.415 -11.585  1.00 24.39     0.041 A 
HETATM    5  O17   D T1258      -0.458  -3.873 -10.263  1.00 23.90    -0.188 OA
HETATM    6  C2    D T1258      -2.744  -5.738 -12.378  1.00 24.16     0.060 A 
HETATM    7  C3    D T1258      -3.783  -4.799 -12.554  1.00 22.08     0.014 A 
HETATM    8 CL14   D T1258      -2.853  -7.331 -13.139  1.00 26.89    -0.082 Cl
HETATM    9  C4    D T1258      -3.726  -3.568 -11.908  1.00 21.98     0.028 A 
ENDBRANCH   1   2
BRANCH   1  10
HETATM   10  C8    D T1258      -2.347  -0.902 -11.331  1.00 26.64     0.111 A 
HETATM   11  C9    D T1258      -3.443   0.029 -11.512  1.00 26.93     0.081 A 
HETATM   12  C10   D T1258      -3.282   1.115 -12.308  1.00 30.17     0.025 A 
HETATM   13 CL16   D T1258      -5.001  -0.288 -10.754  1.00 51.29    -0.080 Cl
HETATM   14  C11   D T1258      -2.105   1.286 -13.020  1.00 28.51     0.059 A 
HETATM   15  C12   D T1258      -1.024   0.383 -12.838  1.00 27.32     0.013 A 
HETATM   16 CL15   D T1258      -1.924   2.667 -14.095  1.00 39.13    -0.082 Cl
HETATM   17  C13   D T1258      -1.160  -0.697 -11.995  1.00 28.27     0.026 A 
ENDBRANCH   1  10
TORSDOF 2
ENDMDL
MODEL 9
REMARK VINA RESULT:      -6.3      3.411      5.854
REMARK  2 active torsions:
REMARK  status: ('A' for Active; 'I' for Inactive)
REMARK    1  A    between atoms: C5_4  and  O7_13 
REMARK    2  A    between atoms: C8_10  and  O7_13 
ROOT
HETATM    1  O7    D T1258       0.210  -1.164 -10.467  1.00 25.09    -0.304 OA
ENDROOT
BRANCH   1   2
HETATM    2  C5    D T1258      -0.947  -0.610 -10.901  1.00 24.92     0.125 A 
HETATM    3  C6    D T1258      -2.029  -0.370  -9.967  1.00 20.38     0.154 A 
HETATM    4  C1    D T1258      -3.187   0.197 -10.402  1.00 24.39     0.041 A 
HETATM    5  O17   D T1258      -1.898  -0.729  -8.679  1.00 23.90    -0.188 OA
HETATM    6  C2    D T1258      -3.336   0.546 -11.759  1.00 24.16     0.060 A 
HETATM    7  C3    D T1258      -2.281   0.319 -12.669  1.00 22.08     0.014 A 
HETATM    8 CL14   D T1258      -4.842   1.286 -12.318  1.00 26.89    -0.082 Cl
HETATM    9  C4    D T1258      -1.075  -0.209 -12.219  1.00 21.98     0.028 A 
ENDBRANCH   1   2
BRANCH   1  10
HETATM   10  C8    D T1258       0.382  -2.499 -10.524  1.00 26.64     0.111 A 
HETATM   11  C9    D T1258       1.550  -3.106  -9.918  1.00 26.93     0.081 A 
HETATM   12  C10   D T1258       1.749  -4.444 -10.024  1.00 30.17     0.025 A 
HETATM   13 CL16   D T1258       2.743  -2.099  -9.103  1.00 51.29    -0.080 Cl
HETATM   14  C11   D T1258       0.887  -5.215 -10.790  1.00 28.51     0.059 A 
HETATM   15  C12   D T1258      -0.265  -4.627 -11.378  1.00 27.32     0.013 A 
HETATM   16 CL15   D T1258       1.181  -6.940 -10.970  1.00 39.13    -0.082 Cl
HETATM   17  C13   D T1258      -0.501  -3.278 -11.235  1.00 28.27     0.026 A 
ENDBRANCH   1  10
TORSDOF 2
ENDMDL
