MODEL 1
REMARK VINA RESULT:      -7.7      0.000      0.000
REMARK  9 active torsions:
REMARK  status: ('A' for Active; 'I' for Inactive)
REMARK    1  A    between atoms: O02_2  and  CAX_24 
REMARK    2  A    between atoms: CAC_3  and  CAM_13 
REMARK    3  A    between atoms: CAC_3  and  NBH_34 
REMARK    4  A    between atoms: CAM_13  and  CAN_14 
REMARK    5  A    between atoms: CAN_14  and  OAW_23 
REMARK    6  A    between atoms: NAU_21  and  CBB_28 
REMARK    7  A    between atoms: NAU_21  and  CBE_31 
REMARK    8  A    between atoms: OAV_22  and  CBC_29 
REMARK    9  A    between atoms: OAW_23  and  CBD_30 
ROOT
HETATM    1  NAD   D T 601      -1.131  -7.824 -11.046  1.00 36.67    -0.191 NA
HETATM    2  CAG   D T 601      -2.097  -7.214 -11.114  1.00 40.62     0.100 C 
HETATM    3  CAH   D T 601      -4.656  -6.813 -10.697  1.00 40.82     0.163 A 
HETATM    4  CAK   D T 601      -7.051  -3.852 -11.585  1.00 41.85     0.098 A 
HETATM    5  CAL   D T 601      -4.437  -2.839 -12.721  1.00 41.71     0.082 A 
HETATM    6  NAT   D T 601      -5.833  -5.999 -10.818  1.00 40.70    -0.269 NA
HETATM    7  CBA   D T 601      -3.329  -6.366 -11.241  1.00 42.63     0.088 A 
HETATM    8  CBC   D T 601      -5.678  -2.022 -12.825  1.00 44.75     0.095 A 
HETATM    9  CBD   D T 601      -6.963  -2.519 -12.266  1.00 42.74     0.096 A 
HETATM   10  CBE   D T 601      -3.225  -5.020 -11.934  1.00 42.11     0.086 A 
HETATM   11  CBF   D T 601      -5.800  -4.709 -11.467  1.00 42.67     0.059 A 
HETATM   12  CBG   D T 601      -4.500  -4.180 -12.044  1.00 42.82     0.016 A 
ENDROOT
BRANCH  10  13
HETATM   13  NAU   D T 601      -1.957  -4.521 -12.493  1.00 38.25    -0.249 NA
BRANCH  13  14
HETATM   14  CBB   D T 601      -1.018  -3.874 -11.596  1.00 33.72     0.072 A 
HETATM   15  CAJ   D T 601      -1.536  -3.229 -10.333  1.00 33.21     0.098 A 
HETATM   16  CAX   D T 601      -0.574  -2.547  -9.410  1.00 37.63     0.085 A 
HETATM   17  CAY   D T 601       0.891  -2.521  -9.754  1.00 36.54     0.059 A 
HETATM   18 CL1    D T 601       2.023  -1.749  -8.710  1.00 50.79    -0.085 Cl
HETATM   19  CAI   D T 601       1.408  -3.156 -10.999  1.00 37.60     0.079 A 
HETATM   20  CAZ   D T 601       0.454  -3.832 -11.924  1.00 38.37     0.055 A 
HETATM   21 CL2    D T 601       1.092  -4.571 -13.354  1.00 54.43    -0.085 Cl
BRANCH  16  22
HETATM   22  O02   D T 601      -1.030  -1.950  -8.250  1.00 44.36    -0.331 OA
HETATM   23  C01   D T 601      -1.080  -0.563  -8.130  1.00 40.82     0.181 C 
ENDBRANCH  16  22
ENDBRANCH  13  14
ENDBRANCH  10  13
BRANCH   8  24
HETATM   24  OAV   D T 601      -5.625  -0.791 -13.439  1.00 49.70    -0.330 OA
HETATM   25  CAA   D T 601      -4.493  -0.477 -14.184  1.00 47.61     0.181 C 
ENDBRANCH   8  24
BRANCH   9  26
HETATM   26  OAW   D T 601      -8.092  -1.712 -12.379  1.00 41.04    -0.333 OA
BRANCH  26  27
HETATM   27  CAN   D T 601      -8.719  -1.227 -11.233  1.00 40.75     0.150 C 
BRANCH  27  28
HETATM   28  CAM   D T 601      -8.190   0.174 -10.930  1.00 48.68     0.056 C 
BRANCH  28  29
HETATM   29  CAC   D T 601      -7.251   0.119  -9.735  1.00 51.94     0.100 C 
BRANCH  29  30
HETATM   30  NBH   D T 601      -5.883   0.542 -10.193  1.00 61.07    -0.365 N 
HETATM   31  CAP   D T 601      -4.636  -0.003  -9.637  1.00 58.61     0.121 C 
HETATM   32  CAR   D T 601      -3.524   0.172 -10.690  1.00 61.37     0.121 C 
HETATM   33  NBI   D T 601      -3.407   1.557 -11.084  1.00 69.25    -0.364 N 
HETATM   34  CAO   D T 601      -2.183   1.885 -11.805  1.00 67.03     0.121 C 
HETATM   35  CAS   D T 601      -4.662   2.117 -11.509  1.00 66.03     0.121 C 
HETATM   36  CAQ   D T 601      -5.710   1.954 -10.452  1.00 59.16     0.121 C 
ENDBRANCH  29  30
ENDBRANCH  28  29
ENDBRANCH  27  28
ENDBRANCH  26  27
ENDBRANCH   9  26
TORSDOF 9
ENDMDL
MODEL 2
REMARK VINA RESULT:      -7.0      2.568      4.970
REMARK  9 active torsions:
REMARK  status: ('A' for Active; 'I' for Inactive)
REMARK    1  A    between atoms: O02_2  and  CAX_24 
REMARK    2  A    between atoms: CAC_3  and  CAM_13 
REMARK    3  A    between atoms: CAC_3  and  NBH_34 
REMARK    4  A    between atoms: CAM_13  and  CAN_14 
REMARK    5  A    between atoms: CAN_14  and  OAW_23 
REMARK    6  A    between atoms: NAU_21  and  CBB_28 
REMARK    7  A    between atoms: NAU_21  and  CBE_31 
REMARK    8  A    between atoms: OAV_22  and  CBC_29 
REMARK    9  A    between atoms: OAW_23  and  CBD_30 
ROOT
HETATM    1  NAD   D T 601      -1.138  -7.819 -10.966  1.00 36.67    -0.191 NA
HETATM    2  CAG   D T 601      -2.109  -7.221 -11.064  1.00 40.62     0.100 C 
HETATM    3  CAH   D T 601      -4.677  -6.833 -10.696  1.00 40.82     0.163 A 
HETATM    4  CAK   D T 601      -7.085  -3.919 -11.700  1.00 41.85     0.098 A 
HETATM    5  CAL   D T 601      -4.464  -2.914 -12.826  1.00 41.71     0.082 A 
HETATM    6  NAT   D T 601      -5.860  -6.033 -10.856  1.00 40.70    -0.269 NA
HETATM    7  CBA   D T 601      -3.346  -6.388 -11.232  1.00 42.63     0.088 A 
HETATM    8  CBC   D T 601      -5.711  -2.112 -12.971  1.00 44.75     0.095 A 
HETATM    9  CBD   D T 601      -6.999  -2.605 -12.417  1.00 42.74     0.096 A 
HETATM   10  CBE   D T 601      -3.244  -5.061 -11.961  1.00 42.11     0.086 A 
HETATM   11  CBF   D T 601      -5.829  -4.761 -11.540  1.00 42.67     0.059 A 
HETATM   12  CBG   D T 601      -4.524  -4.237 -12.113  1.00 42.82     0.016 A 
ENDROOT
BRANCH  10  13
HETATM   13  NAU   D T 601      -1.973  -4.565 -12.515  1.00 38.25    -0.249 NA
BRANCH  13  14
HETATM   14  CBB   D T 601      -1.054  -3.884 -11.623  1.00 33.72     0.072 A 
HETATM   15  CAJ   D T 601      -1.597  -3.211 -10.385  1.00 33.21     0.098 A 
HETATM   16  CAX   D T 601      -0.655  -2.493  -9.468  1.00 37.63     0.085 A 
HETATM   17  CAY   D T 601       0.814  -2.459  -9.794  1.00 36.54     0.059 A 
HETATM   18 CL1    D T 601       1.923  -1.645  -8.756  1.00 50.79    -0.085 Cl
HETATM   19  CAI   D T 601       1.355  -3.120 -11.014  1.00 37.60     0.079 A 
HETATM   20  CAZ   D T 601       0.422  -3.832 -11.933  1.00 38.37     0.055 A 
HETATM   21 CL2    D T 601       1.088  -4.601 -13.335  1.00 54.43    -0.085 Cl
BRANCH  16  22
HETATM   22  O02   D T 601      -1.134  -1.871  -8.331  1.00 44.36    -0.331 OA
HETATM   23  C01   D T 601      -1.587  -0.555  -8.372  1.00 40.82     0.181 C 
ENDBRANCH  16  22
ENDBRANCH  13  14
ENDBRANCH  10  13
BRANCH   8  24
HETATM   24  OAV   D T 601      -5.660  -0.898 -13.617  1.00 49.70    -0.330 OA
HETATM   25  CAA   D T 601      -4.433  -0.471 -14.117  1.00 47.61     0.181 C 
ENDBRANCH   8  24
BRANCH   9  26
HETATM   26  OAW   D T 601      -8.134  -1.812 -12.568  1.00 41.04    -0.333 OA
BRANCH  26  27
HETATM   27  CAN   D T 601      -9.035  -2.075 -13.597  1.00 40.75     0.150 C 
BRANCH  27  28
HETATM   28  CAM   D T 601     -10.310  -2.672 -13.004  1.00 48.68     0.056 C 
BRANCH  28  29
HETATM   29  CAC   D T 601     -10.941  -3.630 -14.002  1.00 51.94     0.100 C 
BRANCH  29  30
HETATM   30  NBH   D T 601     -11.000  -4.993 -13.372  1.00 61.07    -0.365 N 
HETATM   31  CAP   D T 601     -11.611  -5.257 -12.062  1.00 58.61     0.121 C 
HETATM   32  CAR   D T 601     -12.025  -6.741 -12.014  1.00 61.37     0.121 C 
HETATM   33  NBI   D T 601     -10.895  -7.596 -12.290  1.00 69.25    -0.364 N 
HETATM   34  CAO   D T 601     -11.091  -8.998 -11.941  1.00 67.03     0.121 C 
HETATM   35  CAS   D T 601     -10.228  -7.249 -13.517  1.00 66.03     0.121 C 
HETATM   36  CAQ   D T 601      -9.815  -5.810 -13.517  1.00 59.16     0.121 C 
ENDBRANCH  29  30
ENDBRANCH  28  29
ENDBRANCH  27  28
ENDBRANCH  26  27
ENDBRANCH   9  26
TORSDOF 9
ENDMDL
MODEL 3
REMARK VINA RESULT:      -7.0      1.962      3.198
REMARK  9 active torsions:
REMARK  status: ('A' for Active; 'I' for Inactive)
REMARK    1  A    between atoms: O02_2  and  CAX_24 
REMARK    2  A    between atoms: CAC_3  and  CAM_13 
REMARK    3  A    between atoms: CAC_3  and  NBH_34 
REMARK    4  A    between atoms: CAM_13  and  CAN_14 
REMARK    5  A    between atoms: CAN_14  and  OAW_23 
REMARK    6  A    between atoms: NAU_21  and  CBB_28 
REMARK    7  A    between atoms: NAU_21  and  CBE_31 
REMARK    8  A    between atoms: OAV_22  and  CBC_29 
REMARK    9  A    between atoms: OAW_23  and  CBD_30 
ROOT
HETATM    1  NAD   D T 601      -1.183  -7.808 -10.987  1.00 36.67    -0.191 NA
HETATM    2  CAG   D T 601      -2.148  -7.202 -11.088  1.00 40.62     0.100 C 
HETATM    3  CAH   D T 601      -4.715  -6.794 -10.730  1.00 40.82     0.163 A 
HETATM    4  CAK   D T 601      -7.096  -3.861 -11.740  1.00 41.85     0.098 A 
HETATM    5  CAL   D T 601      -4.463  -2.874 -12.854  1.00 41.71     0.082 A 
HETATM    6  NAT   D T 601      -5.891  -5.985 -10.894  1.00 40.70    -0.269 NA
HETATM    7  CBA   D T 601      -3.378  -6.359 -11.261  1.00 42.63     0.088 A 
HETATM    8  CBC   D T 601      -5.703  -2.063 -13.003  1.00 44.75     0.095 A 
HETATM    9  CBD   D T 601      -6.997  -2.546 -12.454  1.00 42.74     0.096 A 
HETATM   10  CBE   D T 601      -3.263  -5.032 -11.987  1.00 42.11     0.086 A 
HETATM   11  CBF   D T 601      -5.847  -4.712 -11.576  1.00 42.67     0.059 A 
HETATM   12  CBG   D T 601      -4.536  -4.198 -12.143  1.00 42.82     0.016 A 
ENDROOT
BRANCH  10  13
HETATM   13  NAU   D T 601      -1.986  -4.546 -12.535  1.00 38.25    -0.249 NA
BRANCH  13  14
HETATM   14  CBB   D T 601      -1.060  -3.882 -11.637  1.00 33.72     0.072 A 
HETATM   15  CAJ   D T 601      -1.596  -3.220 -10.390  1.00 33.21     0.098 A 
HETATM   16  CAX   D T 601      -0.648  -2.521  -9.465  1.00 37.63     0.085 A 
HETATM   17  CAY   D T 601       0.821  -2.494  -9.792  1.00 36.54     0.059 A 
HETATM   18 CL1    D T 601       1.937  -1.701  -8.746  1.00 50.79    -0.085 Cl
HETATM   19  CAI   D T 601       1.356  -3.145 -11.021  1.00 37.60     0.079 A 
HETATM   20  CAZ   D T 601       0.416  -3.838 -11.947  1.00 38.37     0.055 A 
HETATM   21 CL2    D T 601       1.074  -4.595 -13.359  1.00 54.43    -0.085 Cl
BRANCH  16  22
HETATM   22  O02   D T 601      -1.121  -1.908  -8.320  1.00 44.36    -0.331 OA
HETATM   23  C01   D T 601      -1.672  -0.630  -8.367  1.00 40.82     0.181 C 
ENDBRANCH  16  22
ENDBRANCH  13  14
ENDBRANCH  10  13
BRANCH   8  24
HETATM   24  OAV   D T 601      -5.640  -0.848 -13.648  1.00 49.70    -0.330 OA
HETATM   25  CAA   D T 601      -4.396  -0.401 -14.085  1.00 47.61     0.181 C 
ENDBRANCH   8  24
BRANCH   9  26
HETATM   26  OAW   D T 601      -8.125  -1.745 -12.609  1.00 41.04    -0.333 OA
BRANCH  26  27
HETATM   27  CAN   D T 601      -9.338  -2.315 -12.989  1.00 40.75     0.150 C 
BRANCH  27  28
HETATM   28  CAM   D T 601     -10.451  -1.752 -12.107  1.00 48.68     0.056 C 
BRANCH  28  29
HETATM   29  CAC   D T 601     -10.058  -1.875 -10.644  1.00 51.94     0.100 C 
BRANCH  29  30
HETATM   30  NBH   D T 601     -10.314  -0.553  -9.976  1.00 61.07    -0.365 N 
HETATM   31  CAP   D T 601     -11.161   0.499 -10.554  1.00 58.61     0.121 C 
HETATM   32  CAR   D T 601     -11.671   1.392  -9.405  1.00 61.37     0.121 C 
HETATM   33  NBI   D T 601     -10.567   1.918  -8.638  1.00 69.25    -0.364 N 
HETATM   34  CAO   D T 601     -10.910   3.026  -7.755  1.00 67.03     0.121 C 
HETATM   35  CAS   D T 601      -9.674   0.887  -8.180  1.00 66.03     0.121 C 
HETATM   36  CAQ   D T 601      -9.176   0.058  -9.324  1.00 59.16     0.121 C 
ENDBRANCH  29  30
ENDBRANCH  28  29
ENDBRANCH  27  28
ENDBRANCH  26  27
ENDBRANCH   9  26
TORSDOF 9
ENDMDL
MODEL 4
REMARK VINA RESULT:      -6.9      2.434      5.210
REMARK  9 active torsions:
REMARK  status: ('A' for Active; 'I' for Inactive)
REMARK    1  A    between atoms: O02_2  and  CAX_24 
REMARK    2  A    between atoms: CAC_3  and  CAM_13 
REMARK    3  A    between atoms: CAC_3  and  NBH_34 
REMARK    4  A    between atoms: CAM_13  and  CAN_14 
REMARK    5  A    between atoms: CAN_14  and  OAW_23 
REMARK    6  A    between atoms: NAU_21  and  CBB_28 
REMARK    7  A    between atoms: NAU_21  and  CBE_31 
REMARK    8  A    between atoms: OAV_22  and  CBC_29 
REMARK    9  A    between atoms: OAW_23  and  CBD_30 
ROOT
HETATM    1  NAD   D T 601       2.197  -4.290  -9.375  1.00 36.67    -0.191 NA
HETATM    2  CAG   D T 601       1.627  -3.306  -9.503  1.00 40.62     0.100 C 
HETATM    3  CAH   D T 601       0.937  -0.879  -8.782  1.00 40.82     0.163 A 
HETATM    4  CAK   D T 601      -1.467   1.770 -10.363  1.00 41.85     0.098 A 
HETATM    5  CAL   D T 601      -1.735  -0.504 -12.340  1.00 41.71     0.082 A 
HETATM    6  NAT   D T 601       0.190   0.328  -9.000  1.00 40.70    -0.269 NA
HETATM    7  CBA   D T 601       0.846  -2.044  -9.727  1.00 42.63     0.088 A 
HETATM    8  CBC   D T 601      -2.492   0.765 -12.533  1.00 44.75     0.095 A 
HETATM    9  CBD   D T 601      -2.359   1.883 -11.563  1.00 42.74     0.096 A 
HETATM   10  CBE   D T 601      -0.055  -1.944 -10.945  1.00 42.11     0.086 A 
HETATM   11  CBF   D T 601      -0.685   0.485 -10.139  1.00 42.67     0.059 A 
HETATM   12  CBG   D T 601      -0.835  -0.643 -11.144  1.00 42.82     0.016 A 
ENDROOT
BRANCH  10  13
HETATM   13  NAU   D T 601      -0.194  -3.047 -11.910  1.00 38.25    -0.249 NA
BRANCH  13  14
HETATM   14  CBB   D T 601      -1.226  -4.040 -11.676  1.00 33.72     0.072 A 
HETATM   15  CAJ   D T 601      -2.665  -3.591 -11.582  1.00 33.21     0.098 A 
HETATM   16  CAX   D T 601      -3.734  -4.608 -11.325  1.00 37.63     0.085 A 
HETATM   17  CAY   D T 601      -3.357  -6.057 -11.170  1.00 36.54     0.059 A 
HETATM   18 CL1    D T 601      -4.565  -7.251 -10.878  1.00 50.79    -0.085 Cl
HETATM   19  CAI   D T 601      -1.939  -6.505 -11.261  1.00 37.60     0.079 A 
HETATM   20  CAZ   D T 601      -0.870  -5.497 -11.512  1.00 38.37     0.055 A 
HETATM   21 CL2    D T 601       0.765  -6.055 -11.625  1.00 54.43    -0.085 Cl
BRANCH  16  22
HETATM   22  O02   D T 601      -5.057  -4.216 -11.234  1.00 44.36    -0.331 OA
HETATM   23  C01   D T 601      -5.784  -3.881 -12.374  1.00 40.82     0.181 C 
ENDBRANCH  16  22
ENDBRANCH  13  14
ENDBRANCH  10  13
BRANCH   8  24
HETATM   24  OAV   D T 601      -3.313   0.899 -13.629  1.00 49.70    -0.330 OA
HETATM   25  CAA   D T 601      -4.382   0.017 -13.761  1.00 47.61     0.181 C 
ENDBRANCH   8  24
BRANCH   9  26
HETATM   26  OAW   D T 601      -3.079   3.052 -11.795  1.00 41.04    -0.333 OA
BRANCH  26  27
HETATM   27  CAN   D T 601      -3.222   3.994 -10.779  1.00 40.75     0.150 C 
BRANCH  27  28
HETATM   28  CAM   D T 601      -4.694   4.070 -10.373  1.00 48.68     0.056 C 
BRANCH  28  29
HETATM   29  CAC   D T 601      -4.955   3.119  -9.215  1.00 51.94     0.100 C 
BRANCH  29  30
HETATM   30  NBH   D T 601      -5.686   1.919  -9.748  1.00 61.07    -0.365 N 
HETATM   31  CAP   D T 601      -5.148   0.552  -9.697  1.00 58.61     0.121 C 
HETATM   32  CAR   D T 601      -6.333  -0.432  -9.753  1.00 61.37     0.121 C 
HETATM   33  NBI   D T 601      -7.145  -0.190 -10.922  1.00 69.25    -0.364 N 
HETATM   34  CAO   D T 601      -8.078  -1.261 -11.251  1.00 67.03     0.121 C 
HETATM   35  CAS   D T 601      -7.563   1.183 -11.028  1.00 66.03     0.121 C 
HETATM   36  CAQ   D T 601      -6.386   2.108 -10.999  1.00 59.16     0.121 C 
ENDBRANCH  29  30
ENDBRANCH  28  29
ENDBRANCH  27  28
ENDBRANCH  26  27
ENDBRANCH   9  26
TORSDOF 9
ENDMDL
MODEL 5
REMARK VINA RESULT:      -6.3      3.209      5.809
REMARK  9 active torsions:
REMARK  status: ('A' for Active; 'I' for Inactive)
REMARK    1  A    between atoms: O02_2  and  CAX_24 
REMARK    2  A    between atoms: CAC_3  and  CAM_13 
REMARK    3  A    between atoms: CAC_3  and  NBH_34 
REMARK    4  A    between atoms: CAM_13  and  CAN_14 
REMARK    5  A    between atoms: CAN_14  and  OAW_23 
REMARK    6  A    between atoms: NAU_21  and  CBB_28 
REMARK    7  A    between atoms: NAU_21  and  CBE_31 
REMARK    8  A    between atoms: OAV_22  and  CBC_29 
REMARK    9  A    between atoms: OAW_23  and  CBD_30 
ROOT
HETATM    1  NAD   D T 601       2.504  -2.497  -9.856  1.00 36.67    -0.191 NA
HETATM    2  CAG   D T 601       1.521  -2.955 -10.221  1.00 40.62     0.100 C 
HETATM    3  CAH   D T 601       0.087  -4.804 -11.408  1.00 40.82     0.163 A 
HETATM    4  CAK   D T 601      -3.753  -5.170 -12.052  1.00 41.85     0.098 A 
HETATM    5  CAL   D T 601      -3.664  -2.525 -10.588  1.00 41.71     0.082 A 
HETATM    6  NAT   D T 601      -1.181  -5.322 -11.841  1.00 40.70    -0.269 NA
HETATM    7  CBA   D T 601       0.197  -3.496 -10.676  1.00 42.63     0.088 A 
HETATM    8  CBC   D T 601      -4.960  -3.095 -11.051  1.00 44.75     0.095 A 
HETATM    9  CBD   D T 601      -5.005  -4.395 -11.769  1.00 42.74     0.096 A 
HETATM   10  CBE   D T 601      -1.062  -2.700 -10.384  1.00 42.11     0.086 A 
HETATM   11  CBF   D T 601      -2.414  -4.611 -11.594  1.00 42.67     0.059 A 
HETATM   12  CBG   D T 601      -2.394  -3.282 -10.861  1.00 42.82     0.016 A 
ENDROOT
BRANCH  10  13
HETATM   13  NAU   D T 601      -1.027  -1.410  -9.676  1.00 38.25    -0.249 NA
BRANCH  13  14
HETATM   14  CBB   D T 601      -1.167  -0.194 -10.454  1.00 33.72     0.072 A 
HETATM   15  CAJ   D T 601      -1.125  -0.280 -11.962  1.00 33.21     0.098 A 
HETATM   16  CAX   D T 601      -1.254   0.973 -12.771  1.00 37.63     0.085 A 
HETATM   17  CAY   D T 601      -1.429   2.294 -12.070  1.00 36.54     0.059 A 
HETATM   18 CL1    D T 601      -1.585   3.752 -12.974  1.00 50.79    -0.085 Cl
HETATM   19  CAI   D T 601      -1.470   2.385 -10.583  1.00 37.60     0.079 A 
HETATM   20  CAZ   D T 601      -1.338   1.142  -9.772  1.00 38.37     0.055 A 
HETATM   21 CL2    D T 601      -1.404   1.283  -8.048  1.00 54.43    -0.085 Cl
BRANCH  16  22
HETATM   22  O02   D T 601      -1.217   0.914 -14.151  1.00 44.36    -0.331 OA
HETATM   23  C01   D T 601      -2.383   0.745 -14.893  1.00 40.82     0.181 C 
ENDBRANCH  16  22
ENDBRANCH  13  14
ENDBRANCH  10  13
BRANCH   8  24
HETATM   24  OAV   D T 601      -6.126  -2.408 -10.798  1.00 49.70    -0.330 OA
HETATM   25  CAA   D T 601      -6.481  -1.376 -11.662  1.00 47.61     0.181 C 
ENDBRANCH   8  24
BRANCH   9  26
HETATM   26  OAW   D T 601      -6.242  -4.890 -12.170  1.00 41.04    -0.333 OA
BRANCH  26  27
HETATM   27  CAN   D T 601      -6.908  -5.825 -11.381  1.00 40.75     0.150 C 
BRANCH  27  28
HETATM   28  CAM   D T 601      -8.266  -6.133 -12.010  1.00 48.68     0.056 C 
BRANCH  28  29
HETATM   29  CAC   D T 601      -9.365  -5.433 -11.224  1.00 51.94     0.100 C 
BRANCH  29  30
HETATM   30  NBH   D T 601      -9.885  -4.295 -12.055  1.00 61.07    -0.365 N 
HETATM   31  CAP   D T 601     -10.007  -2.916 -11.560  1.00 58.61     0.121 C 
HETATM   32  CAR   D T 601      -9.980  -1.965 -12.773  1.00 61.37     0.121 C 
HETATM   33  NBI   D T 601     -11.011  -2.316 -13.721  1.00 69.25    -0.364 N 
HETATM   34  CAO   D T 601     -11.294  -1.294 -14.722  1.00 67.03     0.121 C 
HETATM   35  CAS   D T 601     -10.958  -3.701 -14.105  1.00 66.03     0.121 C 
HETATM   36  CAQ   D T 601     -11.015  -4.596 -12.906  1.00 59.16     0.121 C 
ENDBRANCH  29  30
ENDBRANCH  28  29
ENDBRANCH  27  28
ENDBRANCH  26  27
ENDBRANCH   9  26
TORSDOF 9
ENDMDL
MODEL 6
REMARK VINA RESULT:      -6.1      2.459      3.771
REMARK  9 active torsions:
REMARK  status: ('A' for Active; 'I' for Inactive)
REMARK    1  A    between atoms: O02_2  and  CAX_24 
REMARK    2  A    between atoms: CAC_3  and  CAM_13 
REMARK    3  A    between atoms: CAC_3  and  NBH_34 
REMARK    4  A    between atoms: CAM_13  and  CAN_14 
REMARK    5  A    between atoms: CAN_14  and  OAW_23 
REMARK    6  A    between atoms: NAU_21  and  CBB_28 
REMARK    7  A    between atoms: NAU_21  and  CBE_31 
REMARK    8  A    between atoms: OAV_22  and  CBC_29 
REMARK    9  A    between atoms: OAW_23  and  CBD_30 
ROOT
HETATM    1  NAD   D T 601      -1.454  -7.192 -11.308  1.00 36.67    -0.191 NA
HETATM    2  CAG   D T 601      -2.341  -6.471 -11.246  1.00 40.62     0.100 C 
HETATM    3  CAH   D T 601      -4.801  -5.821 -10.606  1.00 40.82     0.163 A 
HETATM    4  CAK   D T 601      -6.865  -2.526 -11.031  1.00 41.85     0.098 A 
HETATM    5  CAL   D T 601      -4.222  -1.712 -12.256  1.00 41.71     0.082 A 
HETATM    6  NAT   D T 601      -5.874  -4.868 -10.562  1.00 40.70    -0.269 NA
HETATM    7  CBA   D T 601      -3.465  -5.477 -11.201  1.00 42.63     0.088 A 
HETATM    8  CBC   D T 601      -5.357  -0.751 -12.190  1.00 44.75     0.095 A 
HETATM    9  CBD   D T 601      -6.656  -1.150 -11.587  1.00 42.74     0.096 A 
HETATM   10  CBE   D T 601      -3.239  -4.088 -11.770  1.00 42.11     0.086 A 
HETATM   11  CBF   D T 601      -5.723  -3.530 -11.087  1.00 42.67     0.059 A 
HETATM   12  CBG   D T 601      -4.406  -3.100 -11.706  1.00 42.82     0.016 A 
ENDROOT
BRANCH  10  13
HETATM   13  NAU   D T 601      -1.957  -3.685 -12.371  1.00 38.25    -0.249 NA
BRANCH  13  14
HETATM   14  CBB   D T 601      -0.868  -3.317 -11.485  1.00 33.72     0.072 A 
HETATM   15  CAJ   D T 601      -1.160  -2.444 -10.288  1.00 33.21     0.098 A 
HETATM   16  CAX   D T 601      -0.038  -2.048  -9.379  1.00 37.63     0.085 A 
HETATM   17  CAY   D T 601       1.358  -2.532  -9.670  1.00 36.54     0.059 A 
HETATM   18 CL1    D T 601       2.668  -2.098  -8.639  1.00 50.79    -0.085 Cl
HETATM   19  CAI   D T 601       1.651  -3.393 -10.850  1.00 37.60     0.079 A 
HETATM   20  CAZ   D T 601       0.539  -3.786 -11.761  1.00 38.37     0.055 A 
HETATM   21 CL2    D T 601       0.915  -4.799 -13.114  1.00 54.43    -0.085 Cl
BRANCH  16  22
HETATM   22  O02   D T 601      -0.286  -1.248  -8.280  1.00 44.36    -0.331 OA
HETATM   23  C01   D T 601      -1.564  -0.756  -8.025  1.00 40.82     0.181 C 
ENDBRANCH  16  22
ENDBRANCH  13  14
ENDBRANCH  10  13
BRANCH   8  24
HETATM   24  OAV   D T 601      -5.192   0.522 -12.687  1.00 49.70    -0.330 OA
HETATM   25  CAA   D T 601      -3.938   1.116 -12.569  1.00 47.61     0.181 C 
ENDBRANCH   8  24
BRANCH   9  26
HETATM   26  OAW   D T 601      -7.682  -0.210 -11.540  1.00 41.04    -0.333 OA
BRANCH  26  27
HETATM   27  CAN   D T 601      -8.568  -0.200 -10.464  1.00 40.75     0.150 C 
BRANCH  27  28
HETATM   28  CAM   D T 601      -9.972   0.119 -10.976  1.00 48.68     0.056 C 
BRANCH  28  29
HETATM   29  CAC   D T 601     -10.738  -1.174 -11.209  1.00 51.94     0.100 C 
BRANCH  29  30
HETATM   30  NBH   D T 601     -10.693  -1.489 -12.678  1.00 61.07    -0.365 N 
HETATM   31  CAP   D T 601      -9.890  -2.579 -13.251  1.00 58.61     0.121 C 
HETATM   32  CAR   D T 601     -10.521  -2.984 -14.598  1.00 61.37     0.121 C 
HETATM   33  NBI   D T 601     -10.628  -1.843 -15.476  1.00 69.25    -0.364 N 
HETATM   34  CAO   D T 601     -10.890  -2.169 -16.873  1.00 67.03     0.121 C 
HETATM   35  CAS   D T 601     -11.309  -0.735 -14.859  1.00 66.03     0.121 C 
HETATM   36  CAQ   D T 601     -10.653  -0.351 -13.569  1.00 59.16     0.121 C 
ENDBRANCH  29  30
ENDBRANCH  28  29
ENDBRANCH  27  28
ENDBRANCH  26  27
ENDBRANCH   9  26
TORSDOF 9
ENDMDL
MODEL 7
REMARK VINA RESULT:      -6.1      3.551      6.321
REMARK  9 active torsions:
REMARK  status: ('A' for Active; 'I' for Inactive)
REMARK    1  A    between atoms: O02_2  and  CAX_24 
REMARK    2  A    between atoms: CAC_3  and  CAM_13 
REMARK    3  A    between atoms: CAC_3  and  NBH_34 
REMARK    4  A    between atoms: CAM_13  and  CAN_14 
REMARK    5  A    between atoms: CAN_14  and  OAW_23 
REMARK    6  A    between atoms: NAU_21  and  CBB_28 
REMARK    7  A    between atoms: NAU_21  and  CBE_31 
REMARK    8  A    between atoms: OAV_22  and  CBC_29 
REMARK    9  A    between atoms: OAW_23  and  CBD_30 
ROOT
HETATM    1  NAD   D T 601       1.257  -4.649 -10.647  1.00 36.67    -0.191 NA
HETATM    2  CAG   D T 601       0.151  -4.602 -10.939  1.00 40.62     0.100 C 
HETATM    3  CAH   D T 601      -1.989  -5.467 -12.187  1.00 40.82     0.163 A 
HETATM    4  CAK   D T 601      -5.671  -4.159 -12.347  1.00 41.85     0.098 A 
HETATM    5  CAL   D T 601      -4.409  -2.104 -10.521  1.00 41.71     0.082 A 
HETATM    6  NAT   D T 601      -3.382  -5.348 -12.516  1.00 40.70    -0.269 NA
HETATM    7  CBA   D T 601      -1.304  -4.478 -11.286  1.00 42.63     0.088 A 
HETATM    8  CBC   D T 601      -5.851  -2.015 -10.884  1.00 44.75     0.095 A 
HETATM    9  CBD   D T 601      -6.472  -3.025 -11.780  1.00 42.74     0.096 A 
HETATM   10  CBE   D T 601      -2.102  -3.325 -10.706  1.00 42.11     0.086 A 
HETATM   11  CBF   D T 601      -4.195  -4.273 -11.997  1.00 42.67     0.059 A 
HETATM   12  CBG   D T 601      -3.583  -3.231 -11.079  1.00 42.82     0.016 A 
ENDROOT
BRANCH  10  13
HETATM   13  NAU   D T 601      -1.495  -2.318  -9.819  1.00 38.25    -0.249 NA
BRANCH  13  14
HETATM   14  CBB   D T 601      -1.301  -0.976 -10.334  1.00 33.72     0.072 A 
HETATM   15  CAJ   D T 601      -1.269  -0.762 -11.829  1.00 33.21     0.098 A 
HETATM   16  CAX   D T 601      -1.055   0.619 -12.367  1.00 37.63     0.085 A 
HETATM   17  CAY   D T 601      -0.879   1.768 -11.411  1.00 36.54     0.059 A 
HETATM   18 CL1    D T 601      -0.636   3.369 -12.000  1.00 50.79    -0.085 Cl
HETATM   19  CAI   D T 601      -0.909   1.563  -9.936  1.00 37.60     0.079 A 
HETATM   20  CAZ   D T 601      -1.118   0.190  -9.394  1.00 38.37     0.055 A 
HETATM   21 CL2    D T 601      -1.161  -0.009  -7.674  1.00 54.43    -0.085 Cl
BRANCH  16  22
HETATM   22  O02   D T 601      -1.021   0.833 -13.732  1.00 44.36    -0.331 OA
HETATM   23  C01   D T 601      -2.182   1.138 -14.438  1.00 40.82     0.181 C 
ENDBRANCH  16  22
ENDBRANCH  13  14
ENDBRANCH  10  13
BRANCH   8  24
HETATM   24  OAV   D T 601      -6.612  -0.989 -10.371  1.00 49.70    -0.330 OA
HETATM   25  CAA   D T 601      -6.113  -0.282  -9.281  1.00 47.61     0.181 C 
ENDBRANCH   8  24
BRANCH   9  26
HETATM   26  OAW   D T 601      -7.826  -2.905 -12.079  1.00 41.04    -0.333 OA
BRANCH  26  27
HETATM   27  CAN   D T 601      -8.753  -3.741 -11.461  1.00 40.75     0.150 C 
BRANCH  27  28
HETATM   28  CAM   D T 601     -10.116  -3.551 -12.125  1.00 48.68     0.056 C 
BRANCH  28  29
HETATM   29  CAC   D T 601     -10.276  -4.550 -13.261  1.00 51.94     0.100 C 
BRANCH  29  30
HETATM   30  NBH   D T 601     -10.845  -5.819 -12.694  1.00 61.07    -0.365 N 
HETATM   31  CAP   D T 601     -10.617  -7.146 -13.283  1.00 58.61     0.121 C 
HETATM   32  CAR   D T 601     -10.807  -8.203 -12.177  1.00 61.37     0.121 C 
HETATM   33  NBI   D T 601     -12.109  -8.075 -11.566  1.00 69.25    -0.364 N 
HETATM   34  CAO   D T 601     -12.520  -9.218 -10.759  1.00 67.03     0.121 C 
HETATM   35  CAS   D T 601     -12.372  -6.739 -11.104  1.00 66.03     0.121 C 
HETATM   36  CAQ   D T 601     -12.206  -5.743 -12.210  1.00 59.16     0.121 C 
ENDBRANCH  29  30
ENDBRANCH  28  29
ENDBRANCH  27  28
ENDBRANCH  26  27
ENDBRANCH   9  26
TORSDOF 9
ENDMDL
MODEL 8
REMARK VINA RESULT:      -6.0      3.070      6.876
REMARK  9 active torsions:
REMARK  status: ('A' for Active; 'I' for Inactive)
REMARK    1  A    between atoms: O02_2  and  CAX_24 
REMARK    2  A    between atoms: CAC_3  and  CAM_13 
REMARK    3  A    between atoms: CAC_3  and  NBH_34 
REMARK    4  A    between atoms: CAM_13  and  CAN_14 
REMARK    5  A    between atoms: CAN_14  and  OAW_23 
REMARK    6  A    between atoms: NAU_21  and  CBB_28 
REMARK    7  A    between atoms: NAU_21  and  CBE_31 
REMARK    8  A    between atoms: OAV_22  and  CBC_29 
REMARK    9  A    between atoms: OAW_23  and  CBD_30 
ROOT
HETATM    1  NAD   D T 601      -9.951  -1.506 -10.515  1.00 36.67    -0.191 NA
HETATM    2  CAG   D T 601      -9.057  -0.793 -10.467  1.00 40.62     0.100 C 
HETATM    3  CAH   D T 601      -7.694   1.202  -9.444  1.00 40.82     0.163 A 
HETATM    4  CAK   D T 601      -4.278   2.844 -10.409  1.00 41.85     0.098 A 
HETATM    5  CAL   D T 601      -4.495   0.687 -12.517  1.00 41.71     0.082 A 
HETATM    6  NAT   D T 601      -6.546   2.065  -9.443  1.00 40.70    -0.269 NA
HETATM    7  CBA   D T 601      -7.859   0.112 -10.465  1.00 42.63     0.088 A 
HETATM    8  CBC   D T 601      -3.319   1.600 -12.483  1.00 44.75     0.095 A 
HETATM    9  CBD   D T 601      -3.211   2.659 -11.446  1.00 42.74     0.096 A 
HETATM   10  CBE   D T 601      -6.788  -0.086 -11.522  1.00 42.11     0.086 A 
HETATM   11  CBF   D T 601      -5.492   1.928 -10.422  1.00 42.67     0.059 A 
HETATM   12  CBG   D T 601      -5.580   0.853 -11.489  1.00 42.82     0.016 A 
ENDROOT
BRANCH  10  13
HETATM   13  NAU   D T 601      -6.887  -1.131 -12.554  1.00 38.25    -0.249 NA
BRANCH  13  14
HETATM   14  CBB   D T 601      -6.484  -2.481 -12.207  1.00 33.72     0.072 A 
HETATM   15  CAJ   D T 601      -5.097  -2.712 -11.655  1.00 33.21     0.098 A 
HETATM   16  CAX   D T 601      -4.669  -4.105 -11.308  1.00 37.63     0.085 A 
HETATM   17  CAY   D T 601      -5.629  -5.247 -11.511  1.00 36.54     0.059 A 
HETATM   18 CL1    D T 601      -5.166  -6.860 -11.117  1.00 50.79    -0.085 Cl
HETATM   19  CAI   D T 601      -6.997  -5.025 -12.056  1.00 37.60     0.079 A 
HETATM   20  CAZ   D T 601      -7.427  -3.642 -12.407  1.00 38.37     0.055 A 
HETATM   21 CL2    D T 601      -9.030  -3.419 -13.024  1.00 54.43    -0.085 Cl
BRANCH  16  22
HETATM   22  O02   D T 601      -3.403  -4.335 -10.803  1.00 44.36    -0.331 OA
HETATM   23  C01   D T 601      -2.414  -4.921 -11.590  1.00 40.82     0.181 C 
ENDBRANCH  16  22
ENDBRANCH  13  14
ENDBRANCH  10  13
BRANCH   8  24
HETATM   24  OAV   D T 601      -2.320   1.448 -13.418  1.00 49.70    -0.330 OA
HETATM   25  CAA   D T 601      -2.640   0.836 -14.627  1.00 47.61     0.181 C 
ENDBRANCH   8  24
BRANCH   9  26
HETATM   26  OAW   D T 601      -2.086   3.479 -11.449  1.00 41.04    -0.333 OA
BRANCH  26  27
HETATM   27  CAN   D T 601      -1.240   3.506 -10.342  1.00 40.75     0.150 C 
BRANCH  27  28
HETATM   28  CAM   D T 601      -0.309   2.295 -10.397  1.00 48.68     0.056 C 
BRANCH  28  29
HETATM   29  CAC   D T 601      -0.680   1.313  -9.298  1.00 51.94     0.100 C 
BRANCH  29  30
HETATM   30  NBH   D T 601      -0.307  -0.069  -9.756  1.00 61.07    -0.365 N 
HETATM   31  CAP   D T 601      -1.126  -0.867 -10.679  1.00 58.61     0.121 C 
HETATM   32  CAR   D T 601      -0.207  -1.893 -11.373  1.00 61.37     0.121 C 
HETATM   33  NBI   D T 601       0.488  -2.699 -10.397  1.00 69.25    -0.364 N 
HETATM   34  CAO   D T 601       1.110  -3.904 -10.932  1.00 67.03     0.121 C 
HETATM   35  CAS   D T 601       1.186  -1.903  -9.422  1.00 66.03     0.121 C 
HETATM   36  CAQ   D T 601       0.259  -0.939  -8.749  1.00 59.16     0.121 C 
ENDBRANCH  29  30
ENDBRANCH  28  29
ENDBRANCH  27  28
ENDBRANCH  26  27
ENDBRANCH   9  26
TORSDOF 9
ENDMDL
MODEL 9
REMARK VINA RESULT:      -5.9      3.323      7.815
REMARK  9 active torsions:
REMARK  status: ('A' for Active; 'I' for Inactive)
REMARK    1  A    between atoms: O02_2  and  CAX_24 
REMARK    2  A    between atoms: CAC_3  and  CAM_13 
REMARK    3  A    between atoms: CAC_3  and  NBH_34 
REMARK    4  A    between atoms: CAM_13  and  CAN_14 
REMARK    5  A    between atoms: CAN_14  and  OAW_23 
REMARK    6  A    between atoms: NAU_21  and  CBB_28 
REMARK    7  A    between atoms: NAU_21  and  CBE_31 
REMARK    8  A    between atoms: OAV_22  and  CBC_29 
REMARK    9  A    between atoms: OAW_23  and  CBD_30 
ROOT
HETATM    1  NAD   D T 601     -10.082   0.713 -10.887  1.00 36.67    -0.191 NA
HETATM    2  CAG   D T 601      -8.971   0.842 -10.646  1.00 40.62     0.100 C 
HETATM    3  CAH   D T 601      -6.965   1.494  -9.086  1.00 40.82     0.163 A 
HETATM    4  CAK   D T 601      -3.088   1.447  -9.598  1.00 41.85     0.098 A 
HETATM    5  CAL   D T 601      -4.036   0.425 -12.282  1.00 41.71     0.082 A 
HETATM    6  NAT   D T 601      -5.555   1.635  -8.849  1.00 40.70    -0.269 NA
HETATM    7  CBA   D T 601      -7.498   0.992 -10.398  1.00 42.63     0.088 A 
HETATM    8  CBC   D T 601      -2.582   0.582 -11.999  1.00 44.75     0.095 A 
HETATM    9  CBD   D T 601      -2.115   1.083 -10.680  1.00 42.74     0.096 A 
HETATM   10  CBE   D T 601      -6.525   0.621 -11.502  1.00 42.11     0.086 A 
HETATM   11  CBF   D T 601      -4.579   1.299  -9.860  1.00 42.67     0.059 A 
HETATM   12  CBG   D T 601      -5.031   0.785 -11.214  1.00 42.82     0.016 A 
ENDROOT
BRANCH  10  13
HETATM   13  NAU   D T 601      -6.978   0.126 -12.813  1.00 38.25    -0.249 NA
BRANCH  13  14
HETATM   14  CBB   D T 601      -7.438  -1.247 -12.908  1.00 33.72     0.072 A 
HETATM   15  CAJ   D T 601      -6.560  -2.352 -12.373  1.00 33.21     0.098 A 
HETATM   16  CAX   D T 601      -7.021  -3.773 -12.481  1.00 37.63     0.085 A 
HETATM   17  CAY   D T 601      -8.353  -4.073 -13.116  1.00 36.54     0.059 A 
HETATM   18 CL1    D T 601      -8.914  -5.696 -13.250  1.00 50.79    -0.085 Cl
HETATM   19  CAI   D T 601      -9.224  -2.986 -13.645  1.00 37.60     0.079 A 
HETATM   20  CAZ   D T 601      -8.767  -1.571 -13.545  1.00 38.37     0.055 A 
HETATM   21 CL2    D T 601      -9.811  -0.333 -14.159  1.00 54.43    -0.085 Cl
BRANCH  16  22
HETATM   22  O02   D T 601      -6.230  -4.798 -11.998  1.00 44.36    -0.331 OA
HETATM   23  C01   D T 601      -6.293  -5.183 -10.661  1.00 40.82     0.181 C 
ENDBRANCH  16  22
ENDBRANCH  13  14
ENDBRANCH  10  13
BRANCH   8  24
HETATM   24  OAV   D T 601      -1.666   0.249 -12.971  1.00 49.70    -0.330 OA
HETATM   25  CAA   D T 601      -1.379   1.192 -13.954  1.00 47.61     0.181 C 
ENDBRANCH   8  24
BRANCH   9  26
HETATM   26  OAW   D T 601      -0.746   1.201 -10.461  1.00 41.04    -0.333 OA
BRANCH  26  27
HETATM   27  CAN   D T 601      -0.157   0.566  -9.370  1.00 40.75     0.150 C 
BRANCH  27  28
HETATM   28  CAM   D T 601      -0.616  -0.892  -9.334  1.00 48.68     0.056 C 
BRANCH  28  29
HETATM   29  CAC   D T 601       0.145  -1.694 -10.378  1.00 51.94     0.100 C 
BRANCH  29  30
HETATM   30  NBH   D T 601      -0.736  -2.820 -10.840  1.00 61.07    -0.365 N 
HETATM   31  CAP   D T 601      -2.167  -2.916 -10.518  1.00 58.61     0.121 C 
HETATM   32  CAR   D T 601      -2.844  -3.790 -11.593  1.00 61.37     0.121 C 
HETATM   33  NBI   D T 601      -2.200  -5.079 -11.684  1.00 69.25    -0.364 N 
HETATM   34  CAO   D T 601      -2.957  -6.090 -12.412  1.00 67.03     0.121 C 
HETATM   35  CAS   D T 601      -0.778  -4.972 -11.875  1.00 66.03     0.121 C 
HETATM   36  CAQ   D T 601      -0.150  -4.141 -10.799  1.00 59.16     0.121 C 
ENDBRANCH  29  30
ENDBRANCH  28  29
ENDBRANCH  27  28
ENDBRANCH  26  27
ENDBRANCH   9  26
TORSDOF 9
ENDMDL
