MODEL 1
REMARK VINA RESULT:    -8.587      0.000      0.000
REMARK INTER + INTRA:         -15.682
REMARK INTER:                 -14.109
REMARK INTRA:                  -1.573
REMARK UNBOUND:                -1.573
REMARK  11 active torsions:
REMARK  status: ('A' for Active; 'I' for Inactive)
REMARK    1  A    between atoms: NAP_5  and  CAO_6 
REMARK    2  A    between atoms: CAO_6  and  CAN_7 
REMARK    3  A    between atoms: CAN_7  and  OAM_8 
REMARK    4  A    between atoms: OAM_8  and  CAJ_9 
REMARK    5  A    between atoms: CAG_14  and  NAF_15 
REMARK    6  A    between atoms: NAF_15  and  C2_16 
REMARK    7  A    between atoms: C4_22  and  NAW_23 
REMARK    8  A    between atoms: NAW_23  and  CAX_24 
REMARK    9  A    between atoms: CBB_29  and  SBD_30 
REMARK   10  A    between atoms: SBD_30  and  NBE_33 
REMARK   11  A    between atoms: NBE_33  and  CBF_34 
ROOT
HETATM    1  C2    D T1201       2.934  12.283   1.931  1.00 59.36     0.751 A 
HETATM    2  N3    D T1201       3.270  12.566   0.683  1.00 55.19    -0.041 NA
HETATM    3  N1    D T1201       1.689  12.407   2.378  1.00 67.11    -0.058 NA
HETATM    4  C6    D T1201       0.722  12.821   1.572  1.00 64.11     0.117 A 
HETATM    5  C5    D T1201       1.026  13.130   0.251  1.00 65.49     0.034 A 
HETATM    6  CAA   D T1201      -0.038  13.619  -0.730  1.00 49.68     0.036 C 
HETATM    7  C4    D T1201       2.352  12.992  -0.165  1.00 58.40     0.178 A 
ENDROOT
BRANCH   1   8
HETATM    8  NAF   D T1201       3.927  11.808   2.871  1.00 62.85    -0.059 NA
BRANCH   8   9
HETATM    9  CAG   D T1201       5.372  12.018   2.836  1.00 53.07     0.100 A 
HETATM   10  CAL   D T1201       6.102  11.090   3.548  1.00 60.66     0.022 A 
HETATM   11  CAK   D T1201       7.484  11.174   3.606  1.00 75.71     0.026 A 
HETATM   12  CAJ   D T1201       8.146  12.194   2.947  1.00 62.98     0.094 A 
HETATM   13  CAI   D T1201       7.416  13.136   2.220  1.00 62.12     0.026 A 
HETATM   14  CAH   D T1201       6.027  13.049   2.161  1.00 51.41     0.022 A 
BRANCH  12  15
HETATM   15  OAM   D T1201       9.542  12.216   3.030  1.00 60.42    -0.329 OA
BRANCH  15  16
HETATM   16  CAN   D T1201      10.193  10.990   2.826  1.00 90.12     0.184 C 
BRANCH  16  17
HETATM   17  CAO   D T1201      11.480  11.006   3.669  1.00 96.40     0.283 C 
BRANCH  17  18
HETATM   18  NAP   D T1201      11.501  10.238   4.600  1.00 98.57     0.140 N 
HETATM   19  CAQ   D T1201      11.429  10.856   5.716  1.00 96.89     0.250 C 
HETATM   20  CAR   D T1201      10.739   9.813   6.744  1.00 91.95     0.037 C 
HETATM   21  CAS   D T1201       9.916   9.144   6.058  1.00 99.10     0.037 C 
HETATM   22  CAT   D T1201      10.406   9.189   4.593  1.00 98.40     0.250 C 
ENDBRANCH  17  18
ENDBRANCH  16  17
ENDBRANCH  15  16
ENDBRANCH  12  15
ENDBRANCH   8   9
ENDBRANCH   1   8
BRANCH   7  23
HETATM   23  NAW   D T1201       2.672  13.319  -1.542  1.00 64.56    -0.227 NA
BRANCH  23  24
HETATM   24  CAX   D T1201       3.342  14.526  -1.958  1.00 60.00     0.084 A 
HETATM   25  CBC   D T1201       4.636  14.403  -2.426  1.00 61.36     0.032 A 
HETATM   26  CBB   D T1201       5.325  15.524  -2.840  1.00 64.43     0.106 A 
HETATM   27  CBA   D T1201       4.726  16.762  -2.775  1.00 52.93     0.013 A 
HETATM   28  CAZ   D T1201       3.423  16.892  -2.307  1.00 65.17     0.002 A 
HETATM   29  CAY   D T1201       2.723  15.766  -1.894  1.00 59.73     0.019 A 
BRANCH  26  30
HETATM   30  SBD   D T1201       7.028  15.359  -3.475  1.00107.25     0.281 S 
HETATM   31  OBJ   D T1201       7.926  15.425  -2.322  1.00 84.83    -0.199 OA
HETATM   32  OBK   D T1201       7.307  13.989  -3.909  1.00 96.98    -0.199 OA
BRANCH  30  33
HETATM   33  NBE   D T1201       7.442  16.556  -4.677  1.00 87.06    -0.189 NA
BRANCH  33  34
HETATM   34  CBF   D T1201       7.227  16.494  -6.138  1.00 65.85     0.097 C 
HETATM   35  CBH   D T1201       8.296  15.705  -6.872  1.00 75.28     0.025 C 
HETATM   36  CBI   D T1201       7.298  17.885  -6.739  1.00 63.96     0.025 C 
HETATM   37  CBG   D T1201       5.858  15.914  -6.482  1.00 65.02     0.025 C 
ENDBRANCH  33  34
ENDBRANCH  30  33
ENDBRANCH  26  30
ENDBRANCH  23  24
ENDBRANCH   7  23
TORSDOF 11
ENDMDL
MODEL 2
REMARK VINA RESULT:    -8.373      3.080      8.441
REMARK INTER + INTRA:         -15.331
REMARK INTER:                 -13.461
REMARK INTRA:                  -1.870
REMARK UNBOUND:                -1.573
REMARK  11 active torsions:
REMARK  status: ('A' for Active; 'I' for Inactive)
REMARK    1  A    between atoms: NAP_5  and  CAO_6 
REMARK    2  A    between atoms: CAO_6  and  CAN_7 
REMARK    3  A    between atoms: CAN_7  and  OAM_8 
REMARK    4  A    between atoms: OAM_8  and  CAJ_9 
REMARK    5  A    between atoms: CAG_14  and  NAF_15 
REMARK    6  A    between atoms: NAF_15  and  C2_16 
REMARK    7  A    between atoms: C4_22  and  NAW_23 
REMARK    8  A    between atoms: NAW_23  and  CAX_24 
REMARK    9  A    between atoms: CBB_29  and  SBD_30 
REMARK   10  A    between atoms: SBD_30  and  NBE_33 
REMARK   11  A    between atoms: NBE_33  and  CBF_34 
ROOT
HETATM    1  C2    D T1201       3.241  13.285  -1.145  1.00 59.36     0.751 A 
HETATM    2  N3    D T1201       3.370  12.935   0.125  1.00 55.19    -0.041 NA
HETATM    3  N1    D T1201       2.091  13.714  -1.653  1.00 67.11    -0.058 NA
HETATM    4  C6    D T1201       1.013  13.815  -0.888  1.00 64.11     0.117 A 
HETATM    5  C5    D T1201       1.098  13.460   0.454  1.00 65.49     0.034 A 
HETATM    6  CAA   D T1201      -0.106  13.546   1.390  1.00 49.68     0.036 C 
HETATM    7  C4    D T1201       2.329  13.005   0.934  1.00 58.40     0.178 A 
ENDROOT
BRANCH   1   8
HETATM    8  NAF   D T1201       4.375  13.221  -2.044  1.00 62.85    -0.059 NA
BRANCH   8   9
HETATM    9  CAG   D T1201       5.291  14.296  -2.415  1.00 53.07     0.100 A 
HETATM   10  CAL   D T1201       6.486  13.868  -2.954  1.00 60.66     0.022 A 
HETATM   11  CAK   D T1201       7.451  14.784  -3.343  1.00 75.71     0.026 A 
HETATM   12  CAJ   D T1201       7.223  16.140  -3.194  1.00 62.98     0.094 A 
HETATM   13  CAI   D T1201       6.014  16.582  -2.653  1.00 62.12     0.026 A 
HETATM   14  CAH   D T1201       5.045  15.661  -2.264  1.00 51.41     0.022 A 
BRANCH  12  15
HETATM   15  OAM   D T1201       8.229  17.013  -3.620  1.00 60.42    -0.329 OA
BRANCH  15  16
HETATM   16  CAN   D T1201       8.993  16.588  -4.718  1.00 90.12     0.184 C 
BRANCH  16  17
HETATM   17  CAO   D T1201       8.643  17.503  -5.904  1.00 96.40     0.283 C 
BRANCH  17  18
HETATM   18  NAP   D T1201       9.331  17.366  -6.887  1.00 98.57     0.140 N 
HETATM   19  CAQ   D T1201      10.253  16.503  -6.694  1.00 96.89     0.250 C 
HETATM   20  CAR   D T1201      10.579  15.885  -8.154  1.00 91.95     0.037 C 
HETATM   21  CAS   D T1201       9.480  15.868  -8.776  1.00 99.10     0.037 C 
HETATM   22  CAT   D T1201       8.584  16.956  -8.142  1.00 98.40     0.250 C 
ENDBRANCH  17  18
ENDBRANCH  16  17
ENDBRANCH  15  16
ENDBRANCH  12  15
ENDBRANCH   8   9
ENDBRANCH   1   8
BRANCH   7  23
HETATM   23  NAW   D T1201       2.417  12.631   2.333  1.00 64.56    -0.227 NA
BRANCH  23  24
HETATM   24  CAX   D T1201       3.324  11.639   2.855  1.00 60.00     0.084 A 
HETATM   25  CBC   D T1201       4.676  11.903   2.757  1.00 61.36     0.032 A 
HETATM   26  CBB   D T1201       5.590  10.990   3.242  1.00 64.43     0.106 A 
HETATM   27  CBA   D T1201       5.153   9.815   3.811  1.00 52.93     0.013 A 
HETATM   28  CAZ   D T1201       3.793   9.545   3.914  1.00 65.17     0.002 A 
HETATM   29  CAY   D T1201       2.868  10.462   3.432  1.00 59.73     0.019 A 
BRANCH  26  30
HETATM   30  SBD   D T1201       7.377  11.346   3.130  1.00107.25     0.281 S 
HETATM   31  OBJ   D T1201       7.947  11.113   4.456  1.00 84.83    -0.199 OA
HETATM   32  OBK   D T1201       8.085  10.303   2.385  1.00 96.98    -0.199 OA
BRANCH  30  33
HETATM   33  NBE   D T1201       7.730  12.957   2.554  1.00 87.06    -0.189 NA
BRANCH  33  34
HETATM   34  CBF   D T1201       7.557  13.496   1.189  1.00 65.85     0.097 C 
HETATM   35  CBH   D T1201       7.218  12.434   0.160  1.00 75.28     0.025 C 
HETATM   36  CBI   D T1201       8.857  14.105   0.697  1.00 63.96     0.025 C 
HETATM   37  CBG   D T1201       6.491  14.588   1.145  1.00 65.02     0.025 C 
ENDBRANCH  33  34
ENDBRANCH  30  33
ENDBRANCH  26  30
ENDBRANCH  23  24
ENDBRANCH   7  23
TORSDOF 11
ENDMDL
MODEL 3
REMARK VINA RESULT:    -8.356      3.181      9.040
REMARK INTER + INTRA:         -15.303
REMARK INTER:                 -13.238
REMARK INTRA:                  -2.065
REMARK UNBOUND:                -1.573
REMARK  11 active torsions:
REMARK  status: ('A' for Active; 'I' for Inactive)
REMARK    1  A    between atoms: NAP_5  and  CAO_6 
REMARK    2  A    between atoms: CAO_6  and  CAN_7 
REMARK    3  A    between atoms: CAN_7  and  OAM_8 
REMARK    4  A    between atoms: OAM_8  and  CAJ_9 
REMARK    5  A    between atoms: CAG_14  and  NAF_15 
REMARK    6  A    between atoms: NAF_15  and  C2_16 
REMARK    7  A    between atoms: C4_22  and  NAW_23 
REMARK    8  A    between atoms: NAW_23  and  CAX_24 
REMARK    9  A    between atoms: CBB_29  and  SBD_30 
REMARK   10  A    between atoms: SBD_30  and  NBE_33 
REMARK   11  A    between atoms: NBE_33  and  CBF_34 
ROOT
HETATM    1  C2    D T1201       8.138  13.383   1.345  1.00 59.36     0.751 A 
HETATM    2  N3    D T1201       7.197  13.010   2.199  1.00 55.19    -0.041 NA
HETATM    3  N1    D T1201       9.240  12.668   1.145  1.00 67.11    -0.058 NA
HETATM    4  C6    D T1201       9.436  11.533   1.801  1.00 64.11     0.117 A 
HETATM    5  C5    D T1201       8.475  11.100   2.708  1.00 65.49     0.034 A 
HETATM    6  CAA   D T1201       8.640   9.805   3.502  1.00 49.68     0.036 C 
HETATM    7  C4    D T1201       7.340  11.894   2.889  1.00 58.40     0.178 A 
ENDROOT
BRANCH   1   8
HETATM    8  NAF   D T1201       7.993  14.601   0.576  1.00 62.85    -0.059 NA
BRANCH   8   9
HETATM    9  CAG   D T1201       7.649  14.737  -0.837  1.00 53.07     0.100 A 
HETATM   10  CAL   D T1201       7.872  15.993  -1.360  1.00 60.66     0.022 A 
HETATM   11  CAK   D T1201       7.582  16.264  -2.688  1.00 75.71     0.026 A 
HETATM   12  CAJ   D T1201       7.065  15.273  -3.503  1.00 62.98     0.094 A 
HETATM   13  CAI   D T1201       6.840  13.998  -2.983  1.00 62.12     0.026 A 
HETATM   14  CAH   D T1201       7.133  13.726  -1.649  1.00 51.41     0.022 A 
BRANCH  12  15
HETATM   15  OAM   D T1201       6.809  15.605  -4.837  1.00 60.42    -0.329 OA
BRANCH  15  16
HETATM   16  CAN   D T1201       5.466  15.848  -5.167  1.00 90.12     0.184 C 
BRANCH  16  17
HETATM   17  CAO   D T1201       5.420  17.160  -5.970  1.00 96.40     0.283 C 
BRANCH  17  18
HETATM   18  NAP   D T1201       4.904  18.096  -5.408  1.00 98.57     0.140 N 
HETATM   19  CAQ   D T1201       3.977  18.612  -6.119  1.00 96.89     0.250 C 
HETATM   20  CAR   D T1201       2.940  19.271  -5.066  1.00 91.95     0.037 C 
HETATM   21  CAS   D T1201       2.949  18.516  -4.053  1.00 99.10     0.037 C 
HETATM   22  CAT   D T1201       4.308  17.780  -4.049  1.00 98.40     0.250 C 
ENDBRANCH  17  18
ENDBRANCH  16  17
ENDBRANCH  15  16
ENDBRANCH  12  15
ENDBRANCH   8   9
ENDBRANCH   1   8
BRANCH   7  23
HETATM   23  NAW   D T1201       6.339  11.445   3.838  1.00 64.56    -0.227 NA
BRANCH  23  24
HETATM   24  CAX   D T1201       4.988  11.084   3.489  1.00 60.00     0.084 A 
HETATM   25  CBC   D T1201       4.310  11.922   2.626  1.00 61.36     0.032 A 
HETATM   26  CBB   D T1201       3.015  11.625   2.256  1.00 64.43     0.106 A 
HETATM   27  CBA   D T1201       2.398  10.501   2.757  1.00 52.93     0.013 A 
HETATM   28  CAZ   D T1201       3.075   9.652   3.625  1.00 65.17     0.002 A 
HETATM   29  CAY   D T1201       4.381   9.943   3.996  1.00 59.73     0.019 A 
BRANCH  26  30
HETATM   30  SBD   D T1201       2.126  12.724   1.101  1.00107.25     0.281 S 
HETATM   31  OBJ   D T1201       1.355  11.868   0.199  1.00 84.83    -0.199 OA
HETATM   32  OBK   D T1201       1.020  13.416   1.766  1.00 96.98    -0.199 OA
BRANCH  30  33
HETATM   33  NBE   D T1201       3.177  13.803   0.218  1.00 87.06    -0.189 NA
BRANCH  33  34
HETATM   34  CBF   D T1201       2.984  14.358  -1.137  1.00 65.85     0.097 C 
HETATM   35  CBH   D T1201       3.363  13.392  -2.245  1.00 75.28     0.025 C 
HETATM   36  CBI   D T1201       3.891  15.556  -1.347  1.00 63.96     0.025 C 
HETATM   37  CBG   D T1201       1.547  14.825  -1.356  1.00 65.02     0.025 C 
ENDBRANCH  33  34
ENDBRANCH  30  33
ENDBRANCH  26  30
ENDBRANCH  23  24
ENDBRANCH   7  23
TORSDOF 11
ENDMDL
MODEL 4
REMARK VINA RESULT:    -8.335      3.169      8.812
REMARK INTER + INTRA:         -15.269
REMARK INTER:                 -13.253
REMARK INTRA:                  -2.016
REMARK UNBOUND:                -1.573
REMARK  11 active torsions:
REMARK  status: ('A' for Active; 'I' for Inactive)
REMARK    1  A    between atoms: NAP_5  and  CAO_6 
REMARK    2  A    between atoms: CAO_6  and  CAN_7 
REMARK    3  A    between atoms: CAN_7  and  OAM_8 
REMARK    4  A    between atoms: OAM_8  and  CAJ_9 
REMARK    5  A    between atoms: CAG_14  and  NAF_15 
REMARK    6  A    between atoms: NAF_15  and  C2_16 
REMARK    7  A    between atoms: C4_22  and  NAW_23 
REMARK    8  A    between atoms: NAW_23  and  CAX_24 
REMARK    9  A    between atoms: CBB_29  and  SBD_30 
REMARK   10  A    between atoms: SBD_30  and  NBE_33 
REMARK   11  A    between atoms: NBE_33  and  CBF_34 
ROOT
HETATM    1  C2    D T1201       8.197  13.255   1.227  1.00 59.36     0.751 A 
HETATM    2  N3    D T1201       7.262  12.972   2.121  1.00 55.19    -0.041 NA
HETATM    3  N1    D T1201       9.186  12.415   0.941  1.00 67.11    -0.058 NA
HETATM    4  C6    D T1201       9.268  11.239   1.547  1.00 64.11     0.117 A 
HETATM    5  C5    D T1201       8.308  10.895   2.493  1.00 65.49     0.034 A 
HETATM    6  CAA   D T1201       8.346   9.560   3.234  1.00 49.68     0.036 C 
HETATM    7  C4    D T1201       7.296  11.819   2.764  1.00 58.40     0.178 A 
ENDROOT
BRANCH   1   8
HETATM    8  NAF   D T1201       8.170  14.511   0.508  1.00 62.85    -0.059 NA
BRANCH   8   9
HETATM    9  CAG   D T1201       7.685  14.762  -0.846  1.00 53.07     0.100 A 
HETATM   10  CAL   D T1201       7.841  16.062  -1.278  1.00 60.66     0.022 A 
HETATM   11  CAK   D T1201       7.416  16.441  -2.541  1.00 75.71     0.026 A 
HETATM   12  CAJ   D T1201       6.829  15.515  -3.384  1.00 62.98     0.094 A 
HETATM   13  CAI   D T1201       6.669  14.195  -2.957  1.00 62.12     0.026 A 
HETATM   14  CAH   D T1201       7.098  13.815  -1.688  1.00 51.41     0.022 A 
BRANCH  12  15
HETATM   15  OAM   D T1201       6.436  15.955  -4.652  1.00 60.42    -0.329 OA
BRANCH  15  16
HETATM   16  CAN   D T1201       7.361  16.751  -5.345  1.00 90.12     0.184 C 
BRANCH  16  17
HETATM   17  CAO   D T1201       7.696  16.027  -6.660  1.00 96.40     0.283 C 
BRANCH  17  18
HETATM   18  NAP   D T1201       8.845  15.674  -6.780  1.00 98.57     0.140 N 
HETATM   19  CAQ   D T1201       9.208  15.681  -8.005  1.00 96.89     0.250 C 
HETATM   20  CAR   D T1201      10.807  15.933  -7.981  1.00 91.95     0.037 C 
HETATM   21  CAS   D T1201      11.022  16.698  -6.999  1.00 99.10     0.037 C 
HETATM   22  CAT   D T1201       9.855  16.498  -6.005  1.00 98.40     0.250 C 
ENDBRANCH  17  18
ENDBRANCH  16  17
ENDBRANCH  15  16
ENDBRANCH  12  15
ENDBRANCH   8   9
ENDBRANCH   1   8
BRANCH   7  23
HETATM   23  NAW   D T1201       6.298  11.464   3.755  1.00 64.56    -0.227 NA
BRANCH  23  24
HETATM   24  CAX   D T1201       4.945  11.071   3.445  1.00 60.00     0.084 A 
HETATM   25  CBC   D T1201       4.219  11.901   2.613  1.00 61.36     0.032 A 
HETATM   26  CBB   D T1201       2.921  11.574   2.281  1.00 64.43     0.106 A 
HETATM   27  CBA   D T1201       2.349  10.429   2.789  1.00 52.93     0.013 A 
HETATM   28  CAZ   D T1201       3.076   9.588   3.625  1.00 65.17     0.002 A 
HETATM   29  CAY   D T1201       4.385   9.910   3.957  1.00 59.73     0.019 A 
BRANCH  26  30
HETATM   30  SBD   D T1201       1.967  12.661   1.168  1.00107.25     0.281 S 
HETATM   31  OBJ   D T1201       1.270  11.798   0.214  1.00 84.83    -0.199 OA
HETATM   32  OBK   D T1201       0.807  13.239   1.848  1.00 96.98    -0.199 OA
BRANCH  30  33
HETATM   33  NBE   D T1201       2.948  13.855   0.353  1.00 87.06    -0.189 NA
BRANCH  33  34
HETATM   34  CBF   D T1201       2.813  14.355  -1.031  1.00 65.85     0.097 C 
HETATM   35  CBH   D T1201       3.253  13.352  -2.081  1.00 75.28     0.025 C 
HETATM   36  CBI   D T1201       3.717  15.555  -1.245  1.00 63.96     0.025 C 
HETATM   37  CBG   D T1201       1.384  14.797  -1.335  1.00 65.02     0.025 C 
ENDBRANCH  33  34
ENDBRANCH  30  33
ENDBRANCH  26  30
ENDBRANCH  23  24
ENDBRANCH   7  23
TORSDOF 11
ENDMDL
MODEL 5
REMARK VINA RESULT:    -8.304      2.494      8.233
REMARK INTER + INTRA:         -15.218
REMARK INTER:                 -13.149
REMARK INTRA:                  -2.069
REMARK UNBOUND:                -1.573
REMARK  11 active torsions:
REMARK  status: ('A' for Active; 'I' for Inactive)
REMARK    1  A    between atoms: NAP_5  and  CAO_6 
REMARK    2  A    between atoms: CAO_6  and  CAN_7 
REMARK    3  A    between atoms: CAN_7  and  OAM_8 
REMARK    4  A    between atoms: OAM_8  and  CAJ_9 
REMARK    5  A    between atoms: CAG_14  and  NAF_15 
REMARK    6  A    between atoms: NAF_15  and  C2_16 
REMARK    7  A    between atoms: C4_22  and  NAW_23 
REMARK    8  A    between atoms: NAW_23  and  CAX_24 
REMARK    9  A    between atoms: CBB_29  and  SBD_30 
REMARK   10  A    between atoms: SBD_30  and  NBE_33 
REMARK   11  A    between atoms: NBE_33  and  CBF_34 
ROOT
HETATM    1  C2    D T1201       2.329  13.606  -0.216  1.00 59.36     0.751 A 
HETATM    2  N3    D T1201       2.991  13.586   0.931  1.00 55.19    -0.041 NA
HETATM    3  N1    D T1201       1.557  12.600  -0.609  1.00 67.11    -0.058 NA
HETATM    4  C6    D T1201       1.415  11.523   0.150  1.00 64.11     0.117 A 
HETATM    5  C5    D T1201       2.089  11.455   1.364  1.00 65.49     0.034 A 
HETATM    6  CAA   D T1201       1.976  10.241   2.284  1.00 49.68     0.036 C 
HETATM    7  C4    D T1201       2.896  12.536   1.726  1.00 58.40     0.178 A 
ENDROOT
BRANCH   1   8
HETATM    8  NAF   D T1201       2.416  14.754  -1.095  1.00 62.85    -0.059 NA
BRANCH   8   9
HETATM    9  CAG   D T1201       3.501  15.109  -2.005  1.00 53.07     0.100 A 
HETATM   10  CAL   D T1201       4.100  14.035  -2.628  1.00 60.66     0.022 A 
HETATM   11  CAK   D T1201       5.149  14.228  -3.513  1.00 75.71     0.026 A 
HETATM   12  CAJ   D T1201       5.607  15.506  -3.780  1.00 62.98     0.094 A 
HETATM   13  CAI   D T1201       5.004  16.600  -3.156  1.00 62.12     0.026 A 
HETATM   14  CAH   D T1201       3.949  16.405  -2.269  1.00 51.41     0.022 A 
BRANCH  12  15
HETATM   15  OAM   D T1201       6.658  15.637  -4.693  1.00 60.42    -0.329 OA
BRANCH  15  16
HETATM   16  CAN   D T1201       6.862  16.921  -5.221  1.00 90.12     0.184 C 
BRANCH  16  17
HETATM   17  CAO   D T1201       8.329  17.002  -5.678  1.00 96.40     0.283 C 
BRANCH  17  18
HETATM   18  NAP   D T1201       8.657  16.195  -6.516  1.00 98.57     0.140 N 
HETATM   19  CAQ   D T1201       8.354  16.595  -7.691  1.00 96.89     0.250 C 
HETATM   20  CAR   D T1201       9.429  15.894  -8.677  1.00 91.95     0.037 C 
HETATM   21  CAS   D T1201      10.508  15.832  -8.024  1.00 99.10     0.037 C 
HETATM   22  CAT   D T1201      10.133  15.843  -6.525  1.00 98.40     0.250 C 
ENDBRANCH  17  18
ENDBRANCH  16  17
ENDBRANCH  15  16
ENDBRANCH  12  15
ENDBRANCH   8   9
ENDBRANCH   1   8
BRANCH   7  23
HETATM   23  NAW   D T1201       3.604  12.464   2.989  1.00 64.56    -0.227 NA
BRANCH  23  24
HETATM   24  CAX   D T1201       4.871  11.801   3.178  1.00 60.00     0.084 A 
HETATM   25  CBC   D T1201       5.968  12.332   2.528  1.00 61.36     0.032 A 
HETATM   26  CBB   D T1201       7.205  11.739   2.674  1.00 64.43     0.106 A 
HETATM   27  CBA   D T1201       7.341  10.615   3.455  1.00 52.93     0.013 A 
HETATM   28  CAZ   D T1201       6.241  10.076   4.113  1.00 65.17     0.002 A 
HETATM   29  CAY   D T1201       4.994  10.672   3.975  1.00 59.73     0.019 A 
BRANCH  26  30
HETATM   30  SBD   D T1201       8.658  12.453   1.829  1.00107.25     0.281 S 
HETATM   31  OBJ   D T1201       9.751  12.481   2.801  1.00 84.83    -0.199 OA
HETATM   32  OBK   D T1201       9.230  11.513   0.863  1.00 96.98    -0.199 OA
BRANCH  30  33
HETATM   33  NBE   D T1201       8.362  14.035   1.153  1.00 87.06    -0.189 NA
BRANCH  33  34
HETATM   34  CBF   D T1201       7.503  14.390   0.004  1.00 65.85     0.097 C 
HETATM   35  CBH   D T1201       6.226  15.105   0.404  1.00 75.28     0.025 C 
HETATM   36  CBI   D T1201       7.031  13.134  -0.706  1.00 63.96     0.025 C 
HETATM   37  CBG   D T1201       8.250  15.242  -1.018  1.00 65.02     0.025 C 
ENDBRANCH  33  34
ENDBRANCH  30  33
ENDBRANCH  26  30
ENDBRANCH  23  24
ENDBRANCH   7  23
TORSDOF 11
ENDMDL
MODEL 6
REMARK VINA RESULT:    -8.229      2.564      9.546
REMARK INTER + INTRA:         -15.094
REMARK INTER:                 -13.322
REMARK INTRA:                  -1.771
REMARK UNBOUND:                -1.573
REMARK  11 active torsions:
REMARK  status: ('A' for Active; 'I' for Inactive)
REMARK    1  A    between atoms: NAP_5  and  CAO_6 
REMARK    2  A    between atoms: CAO_6  and  CAN_7 
REMARK    3  A    between atoms: CAN_7  and  OAM_8 
REMARK    4  A    between atoms: OAM_8  and  CAJ_9 
REMARK    5  A    between atoms: CAG_14  and  NAF_15 
REMARK    6  A    between atoms: NAF_15  and  C2_16 
REMARK    7  A    between atoms: C4_22  and  NAW_23 
REMARK    8  A    between atoms: NAW_23  and  CAX_24 
REMARK    9  A    between atoms: CBB_29  and  SBD_30 
REMARK   10  A    between atoms: SBD_30  and  NBE_33 
REMARK   11  A    between atoms: NBE_33  and  CBF_34 
ROOT
HETATM    1  C2    D T1201       5.544  14.934  -3.847  1.00 59.36     0.751 A 
HETATM    2  N3    D T1201       4.687  14.224  -3.131  1.00 55.19    -0.041 NA
HETATM    3  N1    D T1201       5.492  16.260  -3.908  1.00 67.11    -0.058 NA
HETATM    4  C6    D T1201       4.567  16.930  -3.237  1.00 64.11     0.117 A 
HETATM    5  C5    D T1201       3.644  16.228  -2.469  1.00 65.49     0.034 A 
HETATM    6  CAA   D T1201       2.547  16.936  -1.676  1.00 49.68     0.036 C 
HETATM    7  C4    D T1201       3.737  14.834  -2.448  1.00 58.40     0.178 A 
ENDROOT
BRANCH   1   8
HETATM    8  NAF   D T1201       6.597  14.280  -4.596  1.00 62.85    -0.059 NA
BRANCH   8   9
HETATM    9  CAG   D T1201       7.813  14.873  -5.144  1.00 53.07     0.100 A 
HETATM   10  CAL   D T1201       7.692  15.333  -6.438  1.00 60.66     0.022 A 
HETATM   11  CAK   D T1201       8.772  15.913  -7.084  1.00 75.71     0.026 A 
HETATM   12  CAJ   D T1201       9.987  16.035  -6.434  1.00 62.98     0.094 A 
HETATM   13  CAI   D T1201      10.119  15.575  -5.123  1.00 62.12     0.026 A 
HETATM   14  CAH   D T1201       9.032  14.994  -4.474  1.00 51.41     0.022 A 
BRANCH  12  15
HETATM   15  OAM   D T1201      11.034  16.642  -7.134  1.00 60.42    -0.329 OA
BRANCH  15  16
HETATM   16  CAN   D T1201      10.689  17.749  -7.926  1.00 90.12     0.184 C 
BRANCH  16  17
HETATM   17  CAO   D T1201      11.162  19.011  -7.184  1.00 96.40     0.283 C 
BRANCH  17  18
HETATM   18  NAP   D T1201      10.290  19.668  -6.668  1.00 98.57     0.140 N 
HETATM   19  CAQ   D T1201       9.187  19.558  -7.303  1.00 96.89     0.250 C 
HETATM   20  CAR   D T1201       8.028  19.810  -6.202  1.00 91.95     0.037 C 
HETATM   21  CAS   D T1201       8.468  19.329  -5.120  1.00 99.10     0.037 C 
HETATM   22  CAT   D T1201      10.011  19.338  -5.215  1.00 98.40     0.250 C 
ENDBRANCH  17  18
ENDBRANCH  16  17
ENDBRANCH  15  16
ENDBRANCH  12  15
ENDBRANCH   8   9
ENDBRANCH   1   8
BRANCH   7  23
HETATM   23  NAW   D T1201       2.772  14.100  -1.651  1.00 64.56    -0.227 NA
BRANCH  23  24
HETATM   24  CAX   D T1201       3.075  13.444  -0.404  1.00 60.00     0.084 A 
HETATM   25  CBC   D T1201       4.390  13.458   0.016  1.00 61.36     0.032 A 
HETATM   26  CBB   D T1201       4.737  12.846   1.204  1.00 64.43     0.106 A 
HETATM   27  CBA   D T1201       3.775  12.215   1.959  1.00 52.93     0.013 A 
HETATM   28  CAZ   D T1201       2.448  12.200   1.542  1.00 65.17     0.002 A 
HETATM   29  CAY   D T1201       2.093  12.818   0.351  1.00 59.73     0.019 A 
BRANCH  26  30
HETATM   30  SBD   D T1201       6.473  12.880   1.768  1.00107.25     0.281 S 
HETATM   31  OBJ   D T1201       7.312  12.636   0.595  1.00 84.83    -0.199 OA
HETATM   32  OBK   D T1201       6.906  14.242   2.085  1.00 96.98    -0.199 OA
BRANCH  30  33
HETATM   33  NBE   D T1201       6.811  11.739   3.046  1.00 87.06    -0.189 NA
BRANCH  33  34
HETATM   34  CBF   D T1201       8.090  11.065   3.352  1.00 65.85     0.097 C 
HETATM   35  CBH   D T1201       8.440   9.961   2.372  1.00 75.28     0.025 C 
HETATM   36  CBI   D T1201       8.007  10.369   4.698  1.00 63.96     0.025 C 
HETATM   37  CBG   D T1201       9.248  12.057   3.418  1.00 65.02     0.025 C 
ENDBRANCH  33  34
ENDBRANCH  30  33
ENDBRANCH  26  30
ENDBRANCH  23  24
ENDBRANCH   7  23
TORSDOF 11
ENDMDL
MODEL 7
REMARK VINA RESULT:    -8.211      2.284      9.660
REMARK INTER + INTRA:         -15.064
REMARK INTER:                 -13.638
REMARK INTRA:                  -1.426
REMARK UNBOUND:                -1.573
REMARK  11 active torsions:
REMARK  status: ('A' for Active; 'I' for Inactive)
REMARK    1  A    between atoms: NAP_5  and  CAO_6 
REMARK    2  A    between atoms: CAO_6  and  CAN_7 
REMARK    3  A    between atoms: CAN_7  and  OAM_8 
REMARK    4  A    between atoms: OAM_8  and  CAJ_9 
REMARK    5  A    between atoms: CAG_14  and  NAF_15 
REMARK    6  A    between atoms: NAF_15  and  C2_16 
REMARK    7  A    between atoms: C4_22  and  NAW_23 
REMARK    8  A    between atoms: NAW_23  and  CAX_24 
REMARK    9  A    between atoms: CBB_29  and  SBD_30 
REMARK   10  A    between atoms: SBD_30  and  NBE_33 
REMARK   11  A    between atoms: NBE_33  and  CBF_34 
ROOT
HETATM    1  C2    D T1201       4.724  13.287  -1.658  1.00 59.36     0.751 A 
HETATM    2  N3    D T1201       4.993  13.285  -0.362  1.00 55.19    -0.041 NA
HETATM    3  N1    D T1201       3.481  13.268  -2.127  1.00 67.11    -0.058 NA
HETATM    4  C6    D T1201       2.448  13.252  -1.297  1.00 64.11     0.117 A 
HETATM    5  C5    D T1201       2.680  13.251   0.074  1.00 65.49     0.034 A 
HETATM    6  CAA   D T1201       1.536  13.226   1.086  1.00 49.68     0.036 C 
HETATM    7  C4    D T1201       4.005  13.261   0.514  1.00 58.40     0.178 A 
ENDROOT
BRANCH   1   8
HETATM    8  NAF   D T1201       5.796  13.322  -2.631  1.00 62.85    -0.059 NA
BRANCH   8   9
HETATM    9  CAG   D T1201       6.334  14.481  -3.336  1.00 53.07     0.100 A 
HETATM   10  CAL   D T1201       6.080  15.691  -2.726  1.00 60.66     0.022 A 
HETATM   11  CAK   D T1201       6.527  16.874  -3.292  1.00 75.71     0.026 A 
HETATM   12  CAJ   D T1201       7.236  16.852  -4.479  1.00 62.98     0.094 A 
HETATM   13  CAI   D T1201       7.501  15.632  -5.103  1.00 62.12     0.026 A 
HETATM   14  CAH   D T1201       7.053  14.443  -4.533  1.00 51.41     0.022 A 
BRANCH  12  15
HETATM   15  OAM   D T1201       7.673  18.078  -4.992  1.00 60.42    -0.329 OA
BRANCH  15  16
HETATM   16  CAN   D T1201       8.994  18.115  -5.463  1.00 90.12     0.184 C 
BRANCH  16  17
HETATM   17  CAO   D T1201       8.944  18.554  -6.937  1.00 96.40     0.283 C 
BRANCH  17  18
HETATM   18  NAP   D T1201       9.599  17.885  -7.701  1.00 98.57     0.140 N 
HETATM   19  CAQ   D T1201      10.425  17.138  -7.076  1.00 96.89     0.250 C 
HETATM   20  CAR   D T1201      10.660  15.856  -8.035  1.00 91.95     0.037 C 
HETATM   21  CAS   D T1201       9.556  15.649  -8.613  1.00 99.10     0.037 C 
HETATM   22  CAT   D T1201       8.792  16.993  -8.625  1.00 98.40     0.250 C 
ENDBRANCH  17  18
ENDBRANCH  16  17
ENDBRANCH  15  16
ENDBRANCH  12  15
ENDBRANCH   8   9
ENDBRANCH   1   8
BRANCH   7  23
HETATM   23  NAW   D T1201       4.248  13.254   1.944  1.00 64.56    -0.227 NA
BRANCH  23  24
HETATM   24  CAX   D T1201       5.032  12.259   2.633  1.00 60.00     0.084 A 
HETATM   25  CBC   D T1201       6.404  12.315   2.479  1.00 61.36     0.032 A 
HETATM   26  CBB   D T1201       7.204  11.389   3.117  1.00 64.43     0.106 A 
HETATM   27  CBA   D T1201       6.633  10.407   3.894  1.00 52.93     0.013 A 
HETATM   28  CAZ   D T1201       5.253  10.347   4.054  1.00 65.17     0.002 A 
HETATM   29  CAY   D T1201       4.444  11.279   3.419  1.00 59.73     0.019 A 
BRANCH  26  30
HETATM   30  SBD   D T1201       9.017  11.474   2.928  1.00107.25     0.281 S 
HETATM   31  OBJ   D T1201       9.423  10.313   2.137  1.00 84.83    -0.199 OA
HETATM   32  OBK   D T1201       9.409  12.536   2.000  1.00 96.98    -0.199 OA
BRANCH  30  33
HETATM   33  NBE   D T1201       9.873  11.544   4.449  1.00 87.06    -0.189 NA
BRANCH  33  34
HETATM   34  CBF   D T1201      10.644  10.471   5.111  1.00 65.85     0.097 C 
HETATM   35  CBH   D T1201      11.209  10.879   6.459  1.00 75.28     0.025 C 
HETATM   36  CBI   D T1201      11.861  10.110   4.280  1.00 63.96     0.025 C 
HETATM   37  CBG   D T1201       9.813   9.203   5.285  1.00 65.02     0.025 C 
ENDBRANCH  33  34
ENDBRANCH  30  33
ENDBRANCH  26  30
ENDBRANCH  23  24
ENDBRANCH   7  23
TORSDOF 11
ENDMDL
MODEL 8
REMARK VINA RESULT:    -8.192      1.943      2.937
REMARK INTER + INTRA:         -15.033
REMARK INTER:                 -13.960
REMARK INTRA:                  -1.073
REMARK UNBOUND:                -1.573
REMARK  11 active torsions:
REMARK  status: ('A' for Active; 'I' for Inactive)
REMARK    1  A    between atoms: NAP_5  and  CAO_6 
REMARK    2  A    between atoms: CAO_6  and  CAN_7 
REMARK    3  A    between atoms: CAN_7  and  OAM_8 
REMARK    4  A    between atoms: OAM_8  and  CAJ_9 
REMARK    5  A    between atoms: CAG_14  and  NAF_15 
REMARK    6  A    between atoms: NAF_15  and  C2_16 
REMARK    7  A    between atoms: C4_22  and  NAW_23 
REMARK    8  A    between atoms: NAW_23  and  CAX_24 
REMARK    9  A    between atoms: CBB_29  and  SBD_30 
REMARK   10  A    between atoms: SBD_30  and  NBE_33 
REMARK   11  A    between atoms: NBE_33  and  CBF_34 
ROOT
HETATM    1  C2    D T1201       2.893  12.174   2.098  1.00 59.36     0.751 A 
HETATM    2  N3    D T1201       3.329  12.225   0.849  1.00 55.19    -0.041 NA
HETATM    3  N1    D T1201       1.667  12.555   2.439  1.00 67.11    -0.058 NA
HETATM    4  C6    D T1201       0.820  13.001   1.523  1.00 64.11     0.117 A 
HETATM    5  C5    D T1201       1.232  13.072   0.196  1.00 65.49     0.034 A 
HETATM    6  CAA   D T1201       0.310  13.583  -0.909  1.00 49.68     0.036 C 
HETATM    7  C4    D T1201       2.535  12.669  -0.107  1.00 58.40     0.178 A 
ENDROOT
BRANCH   1   8
HETATM    8  NAF   D T1201       3.749  11.682   3.157  1.00 62.85    -0.059 NA
BRANCH   8   9
HETATM    9  CAG   D T1201       5.208  11.635   3.185  1.00 53.07     0.100 A 
HETATM   10  CAL   D T1201       5.733  10.578   3.897  1.00 60.66     0.022 A 
HETATM   11  CAK   D T1201       7.105  10.416   4.012  1.00 75.71     0.026 A 
HETATM   12  CAJ   D T1201       7.964  11.319   3.411  1.00 62.98     0.094 A 
HETATM   13  CAI   D T1201       7.441  12.391   2.685  1.00 62.12     0.026 A 
HETATM   14  CAH   D T1201       6.063  12.551   2.568  1.00 51.41     0.022 A 
BRANCH  12  15
HETATM   15  OAM   D T1201       9.336  11.093   3.550  1.00 60.42    -0.329 OA
BRANCH  15  16
HETATM   16  CAN   D T1201       9.731  10.358   4.679  1.00 90.12     0.184 C 
BRANCH  16  17
HETATM   17  CAO   D T1201      11.225  10.031   4.515  1.00 96.40     0.283 C 
BRANCH  17  18
HETATM   18  NAP   D T1201      11.974  10.640   5.242  1.00 98.57     0.140 N 
HETATM   19  CAQ   D T1201      12.471  11.657   4.652  1.00 96.89     0.250 C 
HETATM   20  CAR   D T1201      12.795  12.723   5.826  1.00 91.95     0.037 C 
HETATM   21  CAS   D T1201      11.888  12.569   6.693  1.00 99.10     0.037 C 
HETATM   22  CAT   D T1201      11.355  11.126   6.538  1.00 98.40     0.250 C 
ENDBRANCH  17  18
ENDBRANCH  16  17
ENDBRANCH  15  16
ENDBRANCH  12  15
ENDBRANCH   8   9
ENDBRANCH   1   8
BRANCH   7  23
HETATM   23  NAW   D T1201       2.967  12.748  -1.489  1.00 64.56    -0.227 NA
BRANCH  23  24
HETATM   24  CAX   D T1201       4.234  13.285  -1.918  1.00 60.00     0.084 A 
HETATM   25  CBC   D T1201       4.219  14.505  -2.566  1.00 61.36     0.032 A 
HETATM   26  CBB   D T1201       5.403  15.068  -2.996  1.00 64.43     0.106 A 
HETATM   27  CBA   D T1201       6.593  14.408  -2.790  1.00 52.93     0.013 A 
HETATM   28  CAZ   D T1201       6.615  13.181  -2.136  1.00 65.17     0.002 A 
HETATM   29  CAY   D T1201       5.427  12.612  -1.696  1.00 59.73     0.019 A 
BRANCH  26  30
HETATM   30  SBD   D T1201       5.384  16.688  -3.837  1.00107.25     0.281 S 
HETATM   31  OBJ   D T1201       6.502  17.465  -3.300  1.00 84.83    -0.199 OA
HETATM   32  OBK   D T1201       5.827  16.574  -5.228  1.00 96.98    -0.199 OA
BRANCH  30  33
HETATM   33  NBE   D T1201       3.871  17.543  -3.667  1.00 87.06    -0.189 NA
BRANCH  33  34
HETATM   34  CBF   D T1201       3.173  17.924  -2.422  1.00 65.85     0.097 C 
HETATM   35  CBH   D T1201       4.098  18.039  -1.224  1.00 75.28     0.025 C 
HETATM   36  CBI   D T1201       2.174  16.851  -2.031  1.00 63.96     0.025 C 
HETATM   37  CBG   D T1201       2.404  19.232  -2.584  1.00 65.02     0.025 C 
ENDBRANCH  33  34
ENDBRANCH  30  33
ENDBRANCH  26  30
ENDBRANCH  23  24
ENDBRANCH   7  23
TORSDOF 11
ENDMDL
MODEL 9
REMARK VINA RESULT:    -8.138      2.230      3.592
REMARK INTER + INTRA:         -14.945
REMARK INTER:                 -13.558
REMARK INTRA:                  -1.387
REMARK UNBOUND:                -1.573
REMARK  11 active torsions:
REMARK  status: ('A' for Active; 'I' for Inactive)
REMARK    1  A    between atoms: NAP_5  and  CAO_6 
REMARK    2  A    between atoms: CAO_6  and  CAN_7 
REMARK    3  A    between atoms: CAN_7  and  OAM_8 
REMARK    4  A    between atoms: OAM_8  and  CAJ_9 
REMARK    5  A    between atoms: CAG_14  and  NAF_15 
REMARK    6  A    between atoms: NAF_15  and  C2_16 
REMARK    7  A    between atoms: C4_22  and  NAW_23 
REMARK    8  A    between atoms: NAW_23  and  CAX_24 
REMARK    9  A    between atoms: CBB_29  and  SBD_30 
REMARK   10  A    between atoms: SBD_30  and  NBE_33 
REMARK   11  A    between atoms: NBE_33  and  CBF_34 
ROOT
HETATM    1  C2    D T1201       3.800  14.121  -1.133  1.00 59.36     0.751 A 
HETATM    2  N3    D T1201       4.700  14.943  -1.649  1.00 55.19    -0.041 NA
HETATM    3  N1    D T1201       2.509  14.428  -1.070  1.00 67.11    -0.058 NA
HETATM    4  C6    D T1201       2.068  15.586  -1.537  1.00 64.11     0.117 A 
HETATM    5  C5    D T1201       2.975  16.484  -2.091  1.00 65.49     0.034 A 
HETATM    6  CAA   D T1201       2.537  17.839  -2.641  1.00 49.68     0.036 C 
HETATM    7  C4    D T1201       4.323  16.117  -2.123  1.00 58.40     0.178 A 
ENDROOT
BRANCH   1   8
HETATM    8  NAF   D T1201       4.197  12.828  -0.616  1.00 62.85    -0.059 NA
BRANCH   8   9
HETATM    9  CAG   D T1201       5.074  12.541   0.516  1.00 53.07     0.100 A 
HETATM   10  CAL   D T1201       6.374  12.243   0.170  1.00 60.66     0.022 A 
HETATM   11  CAK   D T1201       7.312  11.943   1.146  1.00 75.71     0.026 A 
HETATM   12  CAJ   D T1201       6.949  11.941   2.481  1.00 62.98     0.094 A 
HETATM   13  CAI   D T1201       5.635  12.245   2.840  1.00 62.12     0.026 A 
HETATM   14  CAH   D T1201       4.694  12.548   1.859  1.00 51.41     0.022 A 
BRANCH  12  15
HETATM   15  OAM   D T1201       7.944  11.646   3.419  1.00 60.42    -0.329 OA
BRANCH  15  16
HETATM   16  CAN   D T1201       8.582  10.404   3.274  1.00 90.12     0.184 C 
BRANCH  16  17
HETATM   17  CAO   D T1201      10.093  10.643   3.435  1.00 96.40     0.283 C 
BRANCH  17  18
HETATM   18  NAP   D T1201      10.644   9.955   4.261  1.00 98.57     0.140 N 
HETATM   19  CAQ   D T1201      11.308  10.664   5.089  1.00 96.89     0.250 C 
HETATM   20  CAR   D T1201      11.346   9.806   6.461  1.00 91.95     0.037 C 
HETATM   21  CAS   D T1201      10.240   9.198   6.519  1.00 99.10     0.037 C 
HETATM   22  CAT   D T1201       9.722   9.061   5.069  1.00 98.40     0.250 C 
ENDBRANCH  17  18
ENDBRANCH  16  17
ENDBRANCH  15  16
ENDBRANCH  12  15
ENDBRANCH   8   9
ENDBRANCH   1   8
BRANCH   7  23
HETATM   23  NAW   D T1201       5.270  17.054  -2.695  1.00 64.56    -0.227 NA
BRANCH  23  24
HETATM   24  CAX   D T1201       5.775  16.982  -4.044  1.00 60.00     0.084 A 
HETATM   25  CBC   D T1201       6.942  17.666  -4.321  1.00 61.36     0.032 A 
HETATM   26  CBB   D T1201       7.471  17.630  -5.595  1.00 64.43     0.106 A 
HETATM   27  CBA   D T1201       6.830  16.924  -6.587  1.00 52.93     0.013 A 
HETATM   28  CAZ   D T1201       5.655  16.231  -6.313  1.00 65.17     0.002 A 
HETATM   29  CAY   D T1201       5.121  16.259  -5.032  1.00 59.73     0.019 A 
BRANCH  26  30
HETATM   30  SBD   D T1201       9.024  18.520  -5.957  1.00107.25     0.281 S 
HETATM   31  OBJ   D T1201       8.676  19.925  -6.169  1.00 84.83    -0.199 OA
HETATM   32  OBK   D T1201       9.851  18.663  -4.758  1.00 96.98    -0.199 OA
BRANCH  30  33
HETATM   33  NBE   D T1201       9.899  17.865  -7.319  1.00 87.06    -0.189 NA
BRANCH  33  34
HETATM   34  CBF   D T1201      10.454  16.505  -7.478  1.00 65.85     0.097 C 
HETATM   35  CBH   D T1201      11.901  16.492  -7.934  1.00 75.28     0.025 C 
HETATM   36  CBI   D T1201       9.703  15.756  -8.564  1.00 63.96     0.025 C 
HETATM   37  CBG   D T1201      10.332  15.692  -6.191  1.00 65.02     0.025 C 
ENDBRANCH  33  34
ENDBRANCH  30  33
ENDBRANCH  26  30
ENDBRANCH  23  24
ENDBRANCH   7  23
TORSDOF 11
ENDMDL
