MODEL 1
REMARK VINA RESULT:      -7.8      0.000      0.000
REMARK  10 active torsions:
REMARK  status: ('A' for Active; 'I' for Inactive)
REMARK    1  A    between atoms: NBL_6  and  CAS_7 
REMARK    2  A    between atoms: CAS_7  and  CAO_8 
REMARK    3  A    between atoms: CAO_8  and  CAP_9 
REMARK    4  A    between atoms: CAP_9  and  OBB_10 
REMARK    5  A    between atoms: OBB_10  and  CBH_11 
REMARK    6  A    between atoms: CBG_13  and  OAZ_14 
REMARK    7  A    between atoms: C6_22  and  NAY_23 
REMARK    8  A    between atoms: NAY_23  and  CBE_24 
REMARK    9  A    between atoms: CBD_29  and  NAX_30 
REMARK       I    between atoms: NAX_30  and  CBC_31 
REMARK   10  A    between atoms: CBC_31  and  CBF_33 
ROOT
HETATM    1  CBH   D T1356      -1.379   4.379  10.348  1.00 30.53     0.118 A 
HETATM    2  CAM   D T1356      -2.425   4.094  11.233  1.00 29.88     0.045 A 
HETATM    3  CBG   D T1356      -0.320   3.458  10.213  1.00 30.48     0.117 A 
HETATM    4  CAN   D T1356      -0.304   2.280  10.959  1.00 29.67     0.031 A 
HETATM    5  C5    D T1356      -1.350   1.990  11.840  1.00 29.79     0.056 A 
HETATM    6  C4    D T1356      -2.409   2.904  11.972  1.00 29.99     0.088 A 
HETATM    7  N3    D T1356      -3.422   2.644  12.815  1.00 29.16    -0.224 NA
HETATM    8  C2    D T1356      -3.435   1.467  13.570  1.00 30.02     0.200 A 
HETATM    9  N1    D T1356      -2.381   0.547  13.437  1.00 29.74    -0.205 NA
HETATM   10  C6    D T1356      -1.363   0.804  12.595  1.00 29.94     0.166 A 
ENDROOT
BRANCH  10  11
HETATM   11  NAY   D T1356      -0.315  -0.046  12.442  1.00 31.31    -0.227 NA
BRANCH  11  12
HETATM   12  CBE   D T1356       0.773   0.033  13.256  1.00 32.67     0.083 A 
HETATM   13  CAK   D T1356       1.240  -1.120  13.890  1.00 33.73     0.021 A 
HETATM   14  CAI   D T1356       2.360  -1.076  14.725  1.00 34.14     0.021 A 
HETATM   15  CBD   D T1356       3.053   0.127  14.924  1.00 33.99     0.085 A 
HETATM   16  CAH   D T1356       2.586   1.280  14.294  1.00 33.61     0.021 A 
HETATM   17  CAJ   D T1356       1.465   1.231  13.463  1.00 33.42     0.021 A 
BRANCH  15  18
HETATM   18  NAX   D T1356       4.127   0.231  15.744  1.00 34.41    -0.208 NA
HETATM   19  CBC   D T1356       5.382   0.399  15.261  1.00 37.04     0.279 C 
HETATM   20  OAB   D T1356       5.675   0.489  14.065  1.00 38.15    -0.265 OA
BRANCH  19  21
HETATM   21  CBF   D T1356       6.378   0.465  16.240  1.00 37.03     0.058 A 
HETATM   22  CAF   D T1356       7.326  -0.555  16.340  1.00 38.06     0.005 A 
HETATM   23  CAD   D T1356       8.315  -0.498  17.319  1.00 38.28     0.000 A 
HETATM   24  CAC   D T1356       8.358   0.576  18.206  1.00 38.02     0.000 A 
HETATM   25  CAE   D T1356       7.419   1.597  18.106  1.00 37.90     0.000 A 
HETATM   26  CAG   D T1356       6.426   1.537  17.131  1.00 37.23     0.005 A 
ENDBRANCH  19  21
ENDBRANCH  15  18
ENDBRANCH  11  12
ENDBRANCH  10  11
BRANCH   3  27
HETATM   27  OAZ   D T1356       0.720   3.749   9.360  1.00 30.66    -0.326 OA
HETATM   28  CAA   D T1356       2.039   3.452   9.829  1.00 33.36     0.181 C 
ENDBRANCH   3  27
BRANCH   1  29
HETATM   29  OBB   D T1356      -1.310   5.519   9.586  1.00 30.55    -0.329 OA
BRANCH  29  30
HETATM   30  CAP   D T1356      -1.042   6.785  10.228  1.00 33.72     0.151 C 
BRANCH  30  31
HETATM   31  CAO   D T1356       0.285   6.688  11.004  1.00 37.07     0.068 C 
BRANCH  31  32
HETATM   32  CAS   D T1356       1.283   7.691  10.406  1.00 39.71     0.253 C 
BRANCH  32  33
HETATM   33  NBL   D T1356       2.447   7.154   9.662  1.00 41.70     0.142 N 
HETATM   34  CAT   D T1356       3.543   6.632  10.510  1.00 43.12     0.282 C 
HETATM   35  CAQ   D T1356       4.631   5.982   9.627  1.00 43.52     0.178 C 
HETATM   36  OBA   D T1356       4.214   5.994   8.216  1.00 44.22    -0.350 OA
HETATM   37  CAR   D T1356       3.934   7.340   7.701  1.00 43.52     0.178 C 
HETATM   38  CAU   D T1356       2.986   8.096   8.655  1.00 42.73     0.282 C 
ENDBRANCH  32  33
ENDBRANCH  31  32
ENDBRANCH  30  31
ENDBRANCH  29  30
ENDBRANCH   1  29
TORSDOF 10
ENDMDL
MODEL 2
REMARK VINA RESULT:      -7.8      2.358      6.375
REMARK  10 active torsions:
REMARK  status: ('A' for Active; 'I' for Inactive)
REMARK    1  A    between atoms: NBL_6  and  CAS_7 
REMARK    2  A    between atoms: CAS_7  and  CAO_8 
REMARK    3  A    between atoms: CAO_8  and  CAP_9 
REMARK    4  A    between atoms: CAP_9  and  OBB_10 
REMARK    5  A    between atoms: OBB_10  and  CBH_11 
REMARK    6  A    between atoms: CBG_13  and  OAZ_14 
REMARK    7  A    between atoms: C6_22  and  NAY_23 
REMARK    8  A    between atoms: NAY_23  and  CBE_24 
REMARK    9  A    between atoms: CBD_29  and  NAX_30 
REMARK       I    between atoms: NAX_30  and  CBC_31 
REMARK   10  A    between atoms: CBC_31  and  CBF_33 
ROOT
HETATM    1  CBH   D T1356      -0.279   4.566  10.639  1.00 30.53     0.118 A 
HETATM    2  CAM   D T1356      -0.090   5.934  10.413  1.00 29.88     0.045 A 
HETATM    3  CBG   D T1356       0.805   3.682  10.467  1.00 30.48     0.117 A 
HETATM    4  CAN   D T1356       2.052   4.159  10.064  1.00 29.67     0.031 A 
HETATM    5  C5    D T1356       2.247   5.525   9.842  1.00 29.79     0.056 A 
HETATM    6  C4    D T1356       1.168   6.409  10.019  1.00 29.99     0.088 A 
HETATM    7  N3    D T1356       1.334   7.725   9.808  1.00 29.16    -0.224 NA
HETATM    8  C2    D T1356       2.576   8.231   9.411  1.00 30.02     0.200 A 
HETATM    9  N1    D T1356       3.659   7.352   9.239  1.00 29.74    -0.205 NA
HETATM   10  C6    D T1356       3.496   6.032   9.447  1.00 29.94     0.166 A 
ENDROOT
BRANCH  10  11
HETATM   11  NAY   D T1356       4.508   5.141   9.281  1.00 31.31    -0.227 NA
BRANCH  11  12
HETATM   12  CBE   D T1356       5.085   4.531  10.352  1.00 32.67     0.083 A 
HETATM   13  CAK   D T1356       5.366   3.165  10.293  1.00 33.73     0.021 A 
HETATM   14  CAI   D T1356       5.966   2.509  11.372  1.00 34.14     0.021 A 
HETATM   15  CBD   D T1356       6.319   3.218  12.530  1.00 33.99     0.085 A 
HETATM   16  CAH   D T1356       6.035   4.582  12.591  1.00 33.61     0.021 A 
HETATM   17  CAJ   D T1356       5.434   5.232  11.511  1.00 33.42     0.021 A 
BRANCH  15  18
HETATM   18  NAX   D T1356       6.878   2.627  13.613  1.00 34.41    -0.208 NA
HETATM   19  CBC   D T1356       6.126   2.104  14.612  1.00 37.04     0.279 C 
HETATM   20  OAB   D T1356       4.891   2.096  14.638  1.00 38.15    -0.265 OA
BRANCH  19  21
HETATM   21  CBF   D T1356       6.860   1.551  15.665  1.00 37.03     0.058 A 
HETATM   22  CAF   D T1356       6.611   1.957  16.978  1.00 38.06     0.005 A 
HETATM   23  CAD   D T1356       7.345   1.415  18.029  1.00 38.28     0.000 A 
HETATM   24  CAC   D T1356       8.335   0.468  17.774  1.00 38.02     0.000 A 
HETATM   25  CAE   D T1356       8.583   0.057  16.468  1.00 37.90     0.000 A 
HETATM   26  CAG   D T1356       7.853   0.604  15.416  1.00 37.23     0.005 A 
ENDBRANCH  19  21
ENDBRANCH  15  18
ENDBRANCH  11  12
ENDBRANCH  10  11
BRANCH   3  27
HETATM   27  OAZ   D T1356       0.613   2.334  10.667  1.00 30.66    -0.326 OA
HETATM   28  CAA   D T1356       0.873   1.836  11.982  1.00 33.36     0.181 C 
ENDBRANCH   3  27
BRANCH   1  29
HETATM   29  OBB   D T1356      -1.475   4.013  11.025  1.00 30.55    -0.329 OA
BRANCH  29  30
HETATM   30  CAP   D T1356      -2.623   4.129  10.155  1.00 33.72     0.151 C 
BRANCH  30  31
HETATM   31  CAO   D T1356      -3.714   3.148  10.623  1.00 37.07     0.068 C 
BRANCH  31  32
HETATM   32  CAS   D T1356      -3.799   3.196  12.156  1.00 39.71     0.253 C 
BRANCH  32  33
HETATM   33  NBL   D T1356      -3.883   1.910  12.889  1.00 41.70     0.142 N 
HETATM   34  CAT   D T1356      -2.661   1.075  12.826  1.00 43.12     0.282 C 
HETATM   35  CAQ   D T1356      -2.822  -0.166  13.730  1.00 43.52     0.178 C 
HETATM   36  OBA   D T1356      -4.102  -0.105  14.454  1.00 44.22    -0.350 OA
HETATM   37  CAR   D T1356      -5.270  -0.015  13.568  1.00 43.52     0.178 C 
HETATM   38  CAU   D T1356      -5.070   1.104  12.525  1.00 42.73     0.282 C 
ENDBRANCH  32  33
ENDBRANCH  31  32
ENDBRANCH  30  31
ENDBRANCH  29  30
ENDBRANCH   1  29
TORSDOF 10
ENDMDL
MODEL 3
REMARK VINA RESULT:      -7.8      2.664      9.539
REMARK  10 active torsions:
REMARK  status: ('A' for Active; 'I' for Inactive)
REMARK    1  A    between atoms: NBL_6  and  CAS_7 
REMARK    2  A    between atoms: CAS_7  and  CAO_8 
REMARK    3  A    between atoms: CAO_8  and  CAP_9 
REMARK    4  A    between atoms: CAP_9  and  OBB_10 
REMARK    5  A    between atoms: OBB_10  and  CBH_11 
REMARK    6  A    between atoms: CBG_13  and  OAZ_14 
REMARK    7  A    between atoms: C6_22  and  NAY_23 
REMARK    8  A    between atoms: NAY_23  and  CBE_24 
REMARK    9  A    between atoms: CBD_29  and  NAX_30 
REMARK       I    between atoms: NAX_30  and  CBC_31 
REMARK   10  A    between atoms: CBC_31  and  CBF_33 
ROOT
HETATM    1  CBH   D T1356       7.221   3.343  11.515  1.00 30.53     0.118 A 
HETATM    2  CAM   D T1356       7.646   3.396  10.183  1.00 29.88     0.045 A 
HETATM    3  CBG   D T1356       6.148   4.158  11.930  1.00 30.48     0.117 A 
HETATM    4  CAN   D T1356       5.521   5.018  11.030  1.00 29.67     0.031 A 
HETATM    5  C5    D T1356       5.939   5.071   9.697  1.00 29.79     0.056 A 
HETATM    6  C4    D T1356       7.005   4.255   9.280  1.00 29.99     0.088 A 
HETATM    7  N3    D T1356       7.423   4.293   8.004  1.00 29.16    -0.224 NA
HETATM    8  C2    D T1356       6.807   5.141   7.078  1.00 30.02     0.200 A 
HETATM    9  N1    D T1356       5.737   5.954   7.489  1.00 29.74    -0.205 NA
HETATM   10  C6    D T1356       5.317   5.921   8.767  1.00 29.94     0.166 A 
ENDROOT
BRANCH  10  11
HETATM   11  NAY   D T1356       4.296   6.698   9.216  1.00 31.31    -0.227 NA
BRANCH  11  12
HETATM   12  CBE   D T1356       3.111   6.144   9.592  1.00 32.67     0.083 A 
HETATM   13  CAK   D T1356       2.708   4.935   9.021  1.00 33.73     0.021 A 
HETATM   14  CAI   D T1356       1.501   4.334   9.392  1.00 34.14     0.021 A 
HETATM   15  CBD   D T1356       0.681   4.924  10.364  1.00 33.99     0.085 A 
HETATM   16  CAH   D T1356       1.081   6.133  10.932  1.00 33.61     0.021 A 
HETATM   17  CAJ   D T1356       2.285   6.730  10.558  1.00 33.42     0.021 A 
BRANCH  15  18
HETATM   18  NAX   D T1356      -0.510   4.398  10.740  1.00 34.41    -0.208 NA
HETATM   19  CBC   D T1356      -0.590   3.306  11.540  1.00 37.04     0.279 C 
HETATM   20  OAB   D T1356       0.377   2.701  12.010  1.00 38.15    -0.265 OA
BRANCH  19  21
HETATM   21  CBF   D T1356      -1.893   2.880  11.813  1.00 37.03     0.058 A 
HETATM   22  CAF   D T1356      -2.137   2.029  12.893  1.00 38.06     0.005 A 
HETATM   23  CAD   D T1356      -3.432   1.596  13.164  1.00 38.28     0.000 A 
HETATM   24  CAC   D T1356      -4.490   2.007  12.355  1.00 38.02     0.000 A 
HETATM   25  CAE   D T1356      -4.252   2.859  11.281  1.00 37.90     0.000 A 
HETATM   26  CAG   D T1356      -2.956   3.287  11.006  1.00 37.23     0.005 A 
ENDBRANCH  19  21
ENDBRANCH  15  18
ENDBRANCH  11  12
ENDBRANCH  10  11
BRANCH   3  27
HETATM   27  OAZ   D T1356       5.745   4.122  13.246  1.00 30.66    -0.326 OA
HETATM   28  CAA   D T1356       6.431   4.990  14.152  1.00 33.36     0.181 C 
ENDBRANCH   3  27
BRANCH   1  29
HETATM   29  OBB   D T1356       7.790   2.535  12.468  1.00 30.55    -0.329 OA
BRANCH  29  30
HETATM   30  CAP   D T1356       7.865   1.110  12.235  1.00 33.72     0.151 C 
BRANCH  30  31
HETATM   31  CAO   D T1356       6.735   0.410  13.011  1.00 37.07     0.068 C 
BRANCH  31  32
HETATM   32  CAS   D T1356       6.851   0.780  14.497  1.00 39.71     0.253 C 
BRANCH  32  33
HETATM   33  NBL   D T1356       5.739   0.396  15.399  1.00 41.70     0.142 N 
HETATM   34  CAT   D T1356       4.384   0.559  14.823  1.00 43.12     0.282 C 
HETATM   35  CAQ   D T1356       3.324   0.004  15.799  1.00 43.52     0.178 C 
HETATM   36  OBA   D T1356       3.979  -0.602  16.968  1.00 44.22    -0.350 OA
HETATM   37  CAR   D T1356       4.848   0.329  17.700  1.00 43.52     0.178 C 
HETATM   38  CAU   D T1356       5.809   1.044  16.728  1.00 42.73     0.282 C 
ENDBRANCH  32  33
ENDBRANCH  31  32
ENDBRANCH  30  31
ENDBRANCH  29  30
ENDBRANCH   1  29
TORSDOF 10
ENDMDL
MODEL 4
REMARK VINA RESULT:      -7.8      2.727      9.228
REMARK  10 active torsions:
REMARK  status: ('A' for Active; 'I' for Inactive)
REMARK    1  A    between atoms: NBL_6  and  CAS_7 
REMARK    2  A    between atoms: CAS_7  and  CAO_8 
REMARK    3  A    between atoms: CAO_8  and  CAP_9 
REMARK    4  A    between atoms: CAP_9  and  OBB_10 
REMARK    5  A    between atoms: OBB_10  and  CBH_11 
REMARK    6  A    between atoms: CBG_13  and  OAZ_14 
REMARK    7  A    between atoms: C6_22  and  NAY_23 
REMARK    8  A    between atoms: NAY_23  and  CBE_24 
REMARK    9  A    between atoms: CBD_29  and  NAX_30 
REMARK       I    between atoms: NAX_30  and  CBC_31 
REMARK   10  A    between atoms: CBC_31  and  CBF_33 
ROOT
HETATM    1  CBH   D T1356       7.246   4.922  10.835  1.00 30.53     0.118 A 
HETATM    2  CAM   D T1356       7.022   4.955   9.454  1.00 29.88     0.045 A 
HETATM    3  CBG   D T1356       6.216   5.321  11.711  1.00 30.48     0.117 A 
HETATM    4  CAN   D T1356       4.989   5.755  11.212  1.00 29.67     0.031 A 
HETATM    5  C5    D T1356       4.759   5.785   9.834  1.00 29.79     0.056 A 
HETATM    6  C4    D T1356       5.783   5.382   8.959  1.00 29.99     0.088 A 
HETATM    7  N3    D T1356       5.582   5.405   7.631  1.00 29.16    -0.224 NA
HETATM    8  C2    D T1356       4.358   5.829   7.104  1.00 30.02     0.200 A 
HETATM    9  N1    D T1356       3.329   6.227   7.975  1.00 29.74    -0.205 NA
HETATM   10  C6    D T1356       3.527   6.207   9.306  1.00 29.94     0.166 A 
ENDROOT
BRANCH  10  11
HETATM   11  NAY   D T1356       2.569   6.595  10.188  1.00 31.31    -0.227 NA
BRANCH  11  12
HETATM   12  CBE   D T1356       1.514   5.785  10.474  1.00 32.67     0.083 A 
HETATM   13  CAK   D T1356       0.272   6.354  10.762  1.00 33.73     0.021 A 
HETATM   14  CAI   D T1356      -0.836   5.550  11.050  1.00 34.14     0.021 A 
HETATM   15  CBD   D T1356      -0.725   4.152  11.033  1.00 33.99     0.085 A 
HETATM   16  CAH   D T1356       0.516   3.583  10.749  1.00 33.61     0.021 A 
HETATM   17  CAJ   D T1356       1.619   4.390  10.464  1.00 33.42     0.021 A 
BRANCH  15  18
HETATM   18  NAX   D T1356      -1.759   3.329  11.331  1.00 34.41    -0.208 NA
HETATM   19  CBC   D T1356      -1.886   2.752  12.551  1.00 37.04     0.279 C 
HETATM   20  OAB   D T1356      -1.111   2.918  13.497  1.00 38.15    -0.265 OA
BRANCH  19  21
HETATM   21  CBF   D T1356      -2.997   1.913  12.684  1.00 37.03     0.058 A 
HETATM   22  CAF   D T1356      -2.860   0.667  13.299  1.00 38.06     0.005 A 
HETATM   23  CAD   D T1356      -3.962  -0.175  13.426  1.00 38.28     0.000 A 
HETATM   24  CAC   D T1356      -5.205   0.223  12.937  1.00 38.02     0.000 A 
HETATM   25  CAE   D T1356      -5.346   1.466  12.329  1.00 37.90     0.000 A 
HETATM   26  CAG   D T1356      -4.243   2.305  12.195  1.00 37.23     0.005 A 
ENDBRANCH  19  21
ENDBRANCH  15  18
ENDBRANCH  11  12
ENDBRANCH  10  11
BRANCH   3  27
HETATM   27  OAZ   D T1356       6.445   5.311  13.068  1.00 30.66    -0.326 OA
HETATM   28  CAA   D T1356       5.917   4.202  13.801  1.00 33.36     0.181 C 
ENDBRANCH   3  27
BRANCH   1  29
HETATM   29  OBB   D T1356       8.427   4.520  11.409  1.00 30.55    -0.329 OA
BRANCH  29  30
HETATM   30  CAP   D T1356       8.968   3.221  11.080  1.00 33.72     0.151 C 
BRANCH  30  31
HETATM   31  CAO   D T1356       7.959   2.134  11.491  1.00 37.07     0.068 C 
BRANCH  31  32
HETATM   32  CAS   D T1356       8.602   1.239  12.561  1.00 39.71     0.253 C 
BRANCH  32  33
HETATM   33  NBL   D T1356       7.787   0.875  13.745  1.00 41.70     0.142 N 
HETATM   34  CAT   D T1356       8.381  -0.164  14.617  1.00 43.12     0.282 C 
HETATM   35  CAQ   D T1356       7.509  -0.359  15.876  1.00 43.52     0.178 C 
HETATM   36  OBA   D T1356       6.399   0.606  15.880  1.00 44.22    -0.350 OA
HETATM   37  CAR   D T1356       5.538   0.512  14.694  1.00 43.52     0.178 C 
HETATM   38  CAU   D T1356       6.389   0.520  13.408  1.00 42.73     0.282 C 
ENDBRANCH  32  33
ENDBRANCH  31  32
ENDBRANCH  30  31
ENDBRANCH  29  30
ENDBRANCH   1  29
TORSDOF 10
ENDMDL
MODEL 5
REMARK VINA RESULT:      -7.7      2.904      9.208
REMARK  10 active torsions:
REMARK  status: ('A' for Active; 'I' for Inactive)
REMARK    1  A    between atoms: NBL_6  and  CAS_7 
REMARK    2  A    between atoms: CAS_7  and  CAO_8 
REMARK    3  A    between atoms: CAO_8  and  CAP_9 
REMARK    4  A    between atoms: CAP_9  and  OBB_10 
REMARK    5  A    between atoms: OBB_10  and  CBH_11 
REMARK    6  A    between atoms: CBG_13  and  OAZ_14 
REMARK    7  A    between atoms: C6_22  and  NAY_23 
REMARK    8  A    between atoms: NAY_23  and  CBE_24 
REMARK    9  A    between atoms: CBD_29  and  NAX_30 
REMARK       I    between atoms: NAX_30  and  CBC_31 
REMARK   10  A    between atoms: CBC_31  and  CBF_33 
ROOT
HETATM    1  CBH   D T1356       8.101   5.758  11.551  1.00 30.53     0.118 A 
HETATM    2  CAM   D T1356       7.860   6.979  10.910  1.00 29.88     0.045 A 
HETATM    3  CBG   D T1356       7.353   4.623  11.178  1.00 30.48     0.117 A 
HETATM    4  CAN   D T1356       6.374   4.712  10.189  1.00 29.67     0.031 A 
HETATM    5  C5    D T1356       6.133   5.928   9.543  1.00 29.79     0.056 A 
HETATM    6  C4    D T1356       6.882   7.060   9.910  1.00 29.99     0.088 A 
HETATM    7  N3    D T1356       6.663   8.237   9.302  1.00 29.16    -0.224 NA
HETATM    8  C2    D T1356       5.692   8.353   8.302  1.00 30.02     0.200 A 
HETATM    9  N1    D T1356       4.946   7.223   7.928  1.00 29.74    -0.205 NA
HETATM   10  C6    D T1356       5.160   6.042   8.535  1.00 29.94     0.166 A 
ENDROOT
BRANCH  10  11
HETATM   11  NAY   D T1356       4.455   4.924   8.219  1.00 31.31    -0.227 NA
BRANCH  11  12
HETATM   12  CBE   D T1356       3.347   4.574   8.928  1.00 32.67     0.083 A 
HETATM   13  CAK   D T1356       3.395   3.459   9.767  1.00 33.73     0.021 A 
HETATM   14  CAI   D T1356       2.279   3.076  10.517  1.00 34.14     0.021 A 
HETATM   15  CBD   D T1356       1.092   3.821  10.457  1.00 33.99     0.085 A 
HETATM   16  CAH   D T1356       1.042   4.932   9.617  1.00 33.61     0.021 A 
HETATM   17  CAJ   D T1356       2.158   5.309   8.869  1.00 33.42     0.021 A 
BRANCH  15  18
HETATM   18  NAX   D T1356      -0.026   3.479  11.142  1.00 34.41    -0.208 NA
HETATM   19  CBC   D T1356      -0.718   2.348  10.864  1.00 37.04     0.279 C 
HETATM   20  OAB   D T1356      -0.410   1.525   9.997  1.00 38.15    -0.265 OA
BRANCH  19  21
HETATM   21  CBF   D T1356      -1.859   2.156  11.648  1.00 37.03     0.058 A 
HETATM   22  CAF   D T1356      -3.078   2.712  11.254  1.00 38.06     0.005 A 
HETATM   23  CAD   D T1356      -4.216   2.531  12.037  1.00 38.28     0.000 A 
HETATM   24  CAC   D T1356      -4.140   1.797  13.219  1.00 38.02     0.000 A 
HETATM   25  CAE   D T1356      -2.928   1.237  13.613  1.00 37.90     0.000 A 
HETATM   26  CAG   D T1356      -1.790   1.424  12.833  1.00 37.23     0.005 A 
ENDBRANCH  19  21
ENDBRANCH  15  18
ENDBRANCH  11  12
ENDBRANCH  10  11
BRANCH   3  27
HETATM   27  OAZ   D T1356       7.575   3.428  11.824  1.00 30.66    -0.326 OA
HETATM   28  CAA   D T1356       6.701   2.346  11.493  1.00 33.36     0.181 C 
ENDBRANCH   3  27
BRANCH   1  29
HETATM   29  OBB   D T1356       9.036   5.586  12.541  1.00 30.55    -0.329 OA
BRANCH  29  30
HETATM   30  CAP   D T1356       8.793   6.145  13.851  1.00 33.72     0.151 C 
BRANCH  30  31
HETATM   31  CAO   D T1356       8.620   5.000  14.866  1.00 37.07     0.068 C 
BRANCH  31  32
HETATM   32  CAS   D T1356       7.121   4.719  15.046  1.00 39.71     0.253 C 
BRANCH  32  33
HETATM   33  NBL   D T1356       6.685   3.305  15.138  1.00 41.70     0.142 N 
HETATM   34  CAT   D T1356       5.239   3.081  14.907  1.00 43.12     0.282 C 
HETATM   35  CAQ   D T1356       4.933   1.568  14.897  1.00 43.52     0.178 C 
HETATM   36  OBA   D T1356       6.179   0.797  15.028  1.00 44.22    -0.350 OA
HETATM   37  CAR   D T1356       6.937   1.114  16.246  1.00 43.52     0.178 C 
HETATM   38  CAU   D T1356       7.110   2.640  16.391  1.00 42.73     0.282 C 
ENDBRANCH  32  33
ENDBRANCH  31  32
ENDBRANCH  30  31
ENDBRANCH  29  30
ENDBRANCH   1  29
TORSDOF 10
ENDMDL
MODEL 6
REMARK VINA RESULT:      -7.5      2.796      9.515
REMARK  10 active torsions:
REMARK  status: ('A' for Active; 'I' for Inactive)
REMARK    1  A    between atoms: NBL_6  and  CAS_7 
REMARK    2  A    between atoms: CAS_7  and  CAO_8 
REMARK    3  A    between atoms: CAO_8  and  CAP_9 
REMARK    4  A    between atoms: CAP_9  and  OBB_10 
REMARK    5  A    between atoms: OBB_10  and  CBH_11 
REMARK    6  A    between atoms: CBG_13  and  OAZ_14 
REMARK    7  A    between atoms: C6_22  and  NAY_23 
REMARK    8  A    between atoms: NAY_23  and  CBE_24 
REMARK    9  A    between atoms: CBD_29  and  NAX_30 
REMARK       I    between atoms: NAX_30  and  CBC_31 
REMARK   10  A    between atoms: CBC_31  and  CBF_33 
ROOT
HETATM    1  CBH   D T1356       7.955   4.929  12.247  1.00 30.53     0.118 A 
HETATM    2  CAM   D T1356       8.182   6.294  12.036  1.00 29.88     0.045 A 
HETATM    3  CBG   D T1356       7.062   4.239  11.402  1.00 30.48     0.117 A 
HETATM    4  CAN   D T1356       6.400   4.907  10.373  1.00 29.67     0.031 A 
HETATM    5  C5    D T1356       6.627   6.269  10.156  1.00 29.79     0.056 A 
HETATM    6  C4    D T1356       7.521   6.958  10.993  1.00 29.99     0.088 A 
HETATM    7  N3    D T1356       7.751   8.267  10.803  1.00 29.16    -0.224 NA
HETATM    8  C2    D T1356       7.105   8.960   9.773  1.00 30.02     0.200 A 
HETATM    9  N1    D T1356       6.215   8.274   8.929  1.00 29.74    -0.205 NA
HETATM   10  C6    D T1356       5.980   6.963   9.118  1.00 29.94     0.166 A 
ENDROOT
BRANCH  10  11
HETATM   11  NAY   D T1356       5.118   6.259   8.338  1.00 31.31    -0.227 NA
BRANCH  11  12
HETATM   12  CBE   D T1356       3.932   5.814   8.835  1.00 32.67     0.083 A 
HETATM   13  CAK   D T1356       3.493   4.529   8.510  1.00 33.73     0.021 A 
HETATM   14  CAI   D T1356       2.284   4.037   9.010  1.00 34.14     0.021 A 
HETATM   15  CBD   D T1356       1.498   4.818   9.871  1.00 33.99     0.085 A 
HETATM   16  CAH   D T1356       1.934   6.102  10.193  1.00 33.61     0.021 A 
HETATM   17  CAJ   D T1356       3.141   6.590   9.689  1.00 33.42     0.021 A 
BRANCH  15  18
HETATM   18  NAX   D T1356       0.306   4.399  10.362  1.00 34.41    -0.208 NA
HETATM   19  CBC   D T1356       0.202   3.296  11.142  1.00 37.04     0.279 C 
HETATM   20  OAB   D T1356       1.147   2.583  11.491  1.00 38.15    -0.265 OA
BRANCH  19  21
HETATM   21  CBF   D T1356      -1.102   2.991  11.546  1.00 37.03     0.058 A 
HETATM   22  CAF   D T1356      -1.315   2.194  12.673  1.00 38.06     0.005 A 
HETATM   23  CAD   D T1356      -2.611   1.882  13.074  1.00 38.28     0.000 A 
HETATM   24  CAC   D T1356      -3.701   2.361  12.349  1.00 38.02     0.000 A 
HETATM   25  CAE   D T1356      -3.493   3.159  11.229  1.00 37.90     0.000 A 
HETATM   26  CAG   D T1356      -2.197   3.466  10.824  1.00 37.23     0.005 A 
ENDBRANCH  19  21
ENDBRANCH  15  18
ENDBRANCH  11  12
ENDBRANCH  10  11
BRANCH   3  27
HETATM   27  OAZ   D T1356       6.823   2.902  11.623  1.00 30.66    -0.326 OA
HETATM   28  CAA   D T1356       7.423   1.981  10.709  1.00 33.36     0.181 C 
ENDBRANCH   3  27
BRANCH   1  29
HETATM   29  OBB   D T1356       8.556   4.199  13.242  1.00 30.55    -0.329 OA
BRANCH  29  30
HETATM   30  CAP   D T1356       8.057   4.300  14.595  1.00 33.72     0.151 C 
BRANCH  30  31
HETATM   31  CAO   D T1356       7.464   2.944  15.018  1.00 37.07     0.068 C 
BRANCH  31  32
HETATM   32  CAS   D T1356       5.943   3.095  15.170  1.00 39.71     0.253 C 
BRANCH  32  33
HETATM   33  NBL   D T1356       5.174   1.926  15.662  1.00 41.70     0.142 N 
HETATM   34  CAT   D T1356       5.989   0.864  16.296  1.00 43.12     0.282 C 
HETATM   35  CAQ   D T1356       5.070  -0.229  16.882  1.00 43.52     0.178 C 
HETATM   36  OBA   D T1356       3.659   0.153  16.718  1.00 44.22    -0.350 OA
HETATM   37  CAR   D T1356       3.275   0.387  15.320  1.00 43.52     0.178 C 
HETATM   38  CAU   D T1356       4.279   1.340  14.639  1.00 42.73     0.282 C 
ENDBRANCH  32  33
ENDBRANCH  31  32
ENDBRANCH  30  31
ENDBRANCH  29  30
ENDBRANCH   1  29
TORSDOF 10
ENDMDL
MODEL 7
REMARK VINA RESULT:      -7.3      3.156      9.317
REMARK  10 active torsions:
REMARK  status: ('A' for Active; 'I' for Inactive)
REMARK    1  A    between atoms: NBL_6  and  CAS_7 
REMARK    2  A    between atoms: CAS_7  and  CAO_8 
REMARK    3  A    between atoms: CAO_8  and  CAP_9 
REMARK    4  A    between atoms: CAP_9  and  OBB_10 
REMARK    5  A    between atoms: OBB_10  and  CBH_11 
REMARK    6  A    between atoms: CBG_13  and  OAZ_14 
REMARK    7  A    between atoms: C6_22  and  NAY_23 
REMARK    8  A    between atoms: NAY_23  and  CBE_24 
REMARK    9  A    between atoms: CBD_29  and  NAX_30 
REMARK       I    between atoms: NAX_30  and  CBC_31 
REMARK   10  A    between atoms: CBC_31  and  CBF_33 
ROOT
HETATM    1  CBH   D T1356       7.654   5.706   9.201  1.00 30.53     0.118 A 
HETATM    2  CAM   D T1356       7.180   6.049   7.930  1.00 29.88     0.045 A 
HETATM    3  CBG   D T1356       6.853   5.967  10.331  1.00 30.48     0.117 A 
HETATM    4  CAN   D T1356       5.605   6.572  10.191  1.00 29.67     0.031 A 
HETATM    5  C5    D T1356       5.124   6.913   8.923  1.00 29.79     0.056 A 
HETATM    6  C4    D T1356       5.920   6.648   7.794  1.00 29.99     0.088 A 
HETATM    7  N3    D T1356       5.477   6.970   6.568  1.00 29.16    -0.224 NA
HETATM    8  C2    D T1356       4.226   7.571   6.398  1.00 30.02     0.200 A 
HETATM    9  N1    D T1356       3.425   7.832   7.522  1.00 29.74    -0.205 NA
HETATM   10  C6    D T1356       3.865   7.513   8.753  1.00 29.94     0.166 A 
ENDROOT
BRANCH  10  11
HETATM   11  NAY   D T1356       3.134   7.758   9.872  1.00 31.31    -0.227 NA
BRANCH  11  12
HETATM   12  CBE   D T1356       2.104   6.943  10.226  1.00 32.67     0.083 A 
HETATM   13  CAK   D T1356       1.958   5.709   9.589  1.00 33.73     0.021 A 
HETATM   14  CAI   D T1356       0.917   4.842   9.933  1.00 34.14     0.021 A 
HETATM   15  CBD   D T1356       0.009   5.187  10.946  1.00 33.99     0.085 A 
HETATM   16  CAH   D T1356       0.152   6.420  11.580  1.00 33.61     0.021 A 
HETATM   17  CAJ   D T1356       1.192   7.282  11.231  1.00 33.42     0.021 A 
BRANCH  15  18
HETATM   18  NAX   D T1356      -1.033   4.396  11.300  1.00 34.41    -0.208 NA
HETATM   19  CBC   D T1356      -0.849   3.208  11.926  1.00 37.04     0.279 C 
HETATM   20  OAB   D T1356       0.246   2.737  12.245  1.00 38.15    -0.265 OA
BRANCH  19  21
HETATM   21  CBF   D T1356      -2.028   2.507  12.201  1.00 37.03     0.058 A 
HETATM   22  CAF   D T1356      -1.977   1.313  12.922  1.00 38.06     0.005 A 
HETATM   23  CAD   D T1356      -3.147   0.608  13.191  1.00 38.28     0.000 A 
HETATM   24  CAC   D T1356      -4.374   1.091  12.738  1.00 38.02     0.000 A 
HETATM   25  CAE   D T1356      -4.429   2.283  12.023  1.00 37.90     0.000 A 
HETATM   26  CAG   D T1356      -3.258   2.985  11.748  1.00 37.23     0.005 A 
ENDBRANCH  19  21
ENDBRANCH  15  18
ENDBRANCH  11  12
ENDBRANCH  10  11
BRANCH   3  27
HETATM   27  OAZ   D T1356       7.329   5.650  11.582  1.00 30.66    -0.326 OA
HETATM   28  CAA   D T1356       8.071   6.665  12.264  1.00 33.36     0.181 C 
ENDBRANCH   3  27
BRANCH   1  29
HETATM   29  OBB   D T1356       8.874   5.119   9.429  1.00 30.55    -0.329 OA
BRANCH  29  30
HETATM   30  CAP   D T1356       9.153   3.820   8.860  1.00 33.72     0.151 C 
BRANCH  30  31
HETATM   31  CAO   D T1356       8.134   2.801   9.404  1.00 37.07     0.068 C 
BRANCH  31  32
HETATM   32  CAS   D T1356       8.879   1.761  10.253  1.00 39.71     0.253 C 
BRANCH  32  33
HETATM   33  NBL   D T1356       8.129   1.083  11.337  1.00 41.70     0.142 N 
HETATM   34  CAT   D T1356       7.281   1.974  12.162  1.00 43.12     0.282 C 
HETATM   35  CAQ   D T1356       6.453   1.139  13.163  1.00 43.52     0.178 C 
HETATM   36  OBA   D T1356       6.683  -0.296  12.940  1.00 44.22    -0.350 OA
HETATM   37  CAR   D T1356       8.095  -0.687  13.057  1.00 43.52     0.178 C 
HETATM   38  CAU   D T1356       8.984   0.244  12.208  1.00 42.73     0.282 C 
ENDBRANCH  32  33
ENDBRANCH  31  32
ENDBRANCH  30  31
ENDBRANCH  29  30
ENDBRANCH   1  29
TORSDOF 10
ENDMDL
MODEL 8
REMARK VINA RESULT:      -7.2      0.880      1.374
REMARK  10 active torsions:
REMARK  status: ('A' for Active; 'I' for Inactive)
REMARK    1  A    between atoms: NBL_6  and  CAS_7 
REMARK    2  A    between atoms: CAS_7  and  CAO_8 
REMARK    3  A    between atoms: CAO_8  and  CAP_9 
REMARK    4  A    between atoms: CAP_9  and  OBB_10 
REMARK    5  A    between atoms: OBB_10  and  CBH_11 
REMARK    6  A    between atoms: CBG_13  and  OAZ_14 
REMARK    7  A    between atoms: C6_22  and  NAY_23 
REMARK    8  A    between atoms: NAY_23  and  CBE_24 
REMARK    9  A    between atoms: CBD_29  and  NAX_30 
REMARK       I    between atoms: NAX_30  and  CBC_31 
REMARK   10  A    between atoms: CBC_31  and  CBF_33 
ROOT
HETATM    1  CBH   D T1356      -0.243   4.558  10.351  1.00 30.53     0.118 A 
HETATM    2  CAM   D T1356      -1.435   4.406  11.068  1.00 29.88     0.045 A 
HETATM    3  CBG   D T1356       0.701   3.511  10.351  1.00 30.48     0.117 A 
HETATM    4  CAN   D T1356       0.460   2.339  11.067  1.00 29.67     0.031 A 
HETATM    5  C5    D T1356      -0.732   2.181  11.781  1.00 29.79     0.056 A 
HETATM    6  C4    D T1356      -1.677   3.222  11.777  1.00 29.99     0.088 A 
HETATM    7  N3    D T1356      -2.826   3.091  12.458  1.00 29.16    -0.224 NA
HETATM    8  C2    D T1356      -3.097   1.923  13.179  1.00 30.02     0.200 A 
HETATM    9  N1    D T1356      -2.158   0.877  13.181  1.00 29.74    -0.205 NA
HETATM   10  C6    D T1356      -1.004   1.005  12.501  1.00 29.94     0.166 A 
ENDROOT
BRANCH  10  11
HETATM   11  NAY   D T1356      -0.059   0.029  12.484  1.00 31.31    -0.227 NA
BRANCH  11  12
HETATM   12  CBE   D T1356       1.014   0.082  13.319  1.00 32.67     0.083 A 
HETATM   13  CAK   D T1356       1.487  -1.096  13.902  1.00 33.73     0.021 A 
HETATM   14  CAI   D T1356       2.592  -1.079  14.758  1.00 34.14     0.021 A 
HETATM   15  CBD   D T1356       3.264   0.121  15.030  1.00 33.99     0.085 A 
HETATM   16  CAH   D T1356       2.791   1.298  14.452  1.00 33.61     0.021 A 
HETATM   17  CAJ   D T1356       1.685   1.277  13.600  1.00 33.42     0.021 A 
BRANCH  15  18
HETATM   18  NAX   D T1356       4.323   0.197  15.872  1.00 34.41    -0.208 NA
HETATM   19  CBC   D T1356       5.595   0.294  15.416  1.00 37.04     0.279 C 
HETATM   20  OAB   D T1356       5.919   0.338  14.225  1.00 38.15    -0.265 OA
BRANCH  19  21
HETATM   21  CBF   D T1356       6.570   0.340  16.417  1.00 37.03     0.058 A 
HETATM   22  CAF   D T1356       6.528   1.345  17.386  1.00 38.06     0.005 A 
HETATM   23  CAD   D T1356       7.501   1.400  18.380  1.00 38.28     0.000 A 
HETATM   24  CAC   D T1356       8.524   0.454  18.408  1.00 38.02     0.000 A 
HETATM   25  CAE   D T1356       8.567  -0.551  17.447  1.00 37.90     0.000 A 
HETATM   26  CAG   D T1356       7.598  -0.602  16.449  1.00 37.23     0.005 A 
ENDBRANCH  19  21
ENDBRANCH  15  18
ENDBRANCH  11  12
ENDBRANCH  10  11
BRANCH   3  27
HETATM   27  OAZ   D T1356       1.883   3.670   9.665  1.00 30.66    -0.326 OA
HETATM   28  CAA   D T1356       3.087   3.406  10.389  1.00 33.36     0.181 C 
ENDBRANCH   3  27
BRANCH   1  29
HETATM   29  OBB   D T1356       0.078   5.682   9.630  1.00 30.55    -0.329 OA
BRANCH  29  30
HETATM   30  CAP   D T1356       0.174   6.955  10.308  1.00 33.72     0.151 C 
BRANCH  30  31
HETATM   31  CAO   D T1356       1.655   7.264  10.596  1.00 37.07     0.068 C 
BRANCH  31  32
HETATM   32  CAS   D T1356       2.264   7.956   9.368  1.00 39.71     0.253 C 
BRANCH  32  33
HETATM   33  NBL   D T1356       3.528   7.410   8.818  1.00 41.70     0.142 N 
HETATM   34  CAT   D T1356       4.397   8.403   8.145  1.00 43.12     0.282 C 
HETATM   35  CAQ   D T1356       5.733   7.745   7.737  1.00 43.52     0.178 C 
HETATM   36  OBA   D T1356       5.783   6.356   8.217  1.00 44.22    -0.350 OA
HETATM   37  CAR   D T1356       4.679   5.525   7.717  1.00 43.52     0.178 C 
HETATM   38  CAU   D T1356       3.328   6.232   7.944  1.00 42.73     0.282 C 
ENDBRANCH  32  33
ENDBRANCH  31  32
ENDBRANCH  30  31
ENDBRANCH  29  30
ENDBRANCH   1  29
TORSDOF 10
ENDMDL
MODEL 9
REMARK VINA RESULT:      -6.6      4.041      8.229
REMARK  10 active torsions:
REMARK  status: ('A' for Active; 'I' for Inactive)
REMARK    1  A    between atoms: NBL_6  and  CAS_7 
REMARK    2  A    between atoms: CAS_7  and  CAO_8 
REMARK    3  A    between atoms: CAO_8  and  CAP_9 
REMARK    4  A    between atoms: CAP_9  and  OBB_10 
REMARK    5  A    between atoms: OBB_10  and  CBH_11 
REMARK    6  A    between atoms: CBG_13  and  OAZ_14 
REMARK    7  A    between atoms: C6_22  and  NAY_23 
REMARK    8  A    between atoms: NAY_23  and  CBE_24 
REMARK    9  A    between atoms: CBD_29  and  NAX_30 
REMARK       I    between atoms: NAX_30  and  CBC_31 
REMARK   10  A    between atoms: CBC_31  and  CBF_33 
ROOT
HETATM    1  CBH   D T1356       3.580   7.523   8.768  1.00 30.53     0.118 A 
HETATM    2  CAM   D T1356       3.657   7.971   7.444  1.00 29.88     0.045 A 
HETATM    3  CBG   D T1356       4.766   7.211   9.462  1.00 30.48     0.117 A 
HETATM    4  CAN   D T1356       6.006   7.334   8.837  1.00 29.67     0.031 A 
HETATM    5  C5    D T1356       6.089   7.785   7.517  1.00 29.79     0.056 A 
HETATM    6  C4    D T1356       4.908   8.102   6.825  1.00 29.99     0.088 A 
HETATM    7  N3    D T1356       4.966   8.535   5.555  1.00 29.16    -0.224 NA
HETATM    8  C2    D T1356       6.198   8.674   4.906  1.00 30.02     0.200 A 
HETATM    9  N1    D T1356       7.382   8.364   5.596  1.00 29.74    -0.205 NA
HETATM   10  C6    D T1356       7.328   7.928   6.868  1.00 29.94     0.166 A 
ENDROOT
BRANCH  10  11
HETATM   11  NAY   D T1356       8.444   7.602   7.572  1.00 31.31    -0.227 NA
BRANCH  11  12
HETATM   12  CBE   D T1356       8.593   6.360   8.107  1.00 32.67     0.083 A 
HETATM   13  CAK   D T1356       8.428   5.238   7.292  1.00 33.73     0.021 A 
HETATM   14  CAI   D T1356       8.583   3.948   7.807  1.00 34.14     0.021 A 
HETATM   15  CBD   D T1356       8.932   3.755   9.151  1.00 33.99     0.085 A 
HETATM   16  CAH   D T1356       9.094   4.874   9.967  1.00 33.61     0.021 A 
HETATM   17  CAJ   D T1356       8.935   6.160   9.449  1.00 33.42     0.021 A 
BRANCH  15  18
HETATM   18  NAX   D T1356       9.069   2.526   9.707  1.00 34.41    -0.208 NA
HETATM   19  CBC   D T1356       8.022   1.874  10.268  1.00 37.04     0.279 C 
HETATM   20  OAB   D T1356       6.866   2.303  10.320  1.00 38.15    -0.265 OA
BRANCH  19  21
HETATM   21  CBF   D T1356       8.340   0.627  10.815  1.00 37.03     0.058 A 
HETATM   22  CAF   D T1356       9.051  -0.306  10.057  1.00 38.06     0.005 A 
HETATM   23  CAD   D T1356       9.363  -1.552  10.595  1.00 38.28     0.000 A 
HETATM   24  CAC   D T1356       8.962  -1.874  11.890  1.00 38.02     0.000 A 
HETATM   25  CAE   D T1356       8.258  -0.945  12.650  1.00 37.90     0.000 A 
HETATM   26  CAG   D T1356       7.940   0.299  12.110  1.00 37.23     0.005 A 
ENDBRANCH  19  21
ENDBRANCH  15  18
ENDBRANCH  11  12
ENDBRANCH  10  11
BRANCH   3  27
HETATM   27  OAZ   D T1356       4.688   6.750  10.756  1.00 30.66    -0.326 OA
HETATM   28  CAA   D T1356       5.466   5.593  11.075  1.00 33.36     0.181 C 
ENDBRANCH   3  27
BRANCH   1  29
HETATM   29  OBB   D T1356       2.400   7.363   9.453  1.00 30.55    -0.329 OA
BRANCH  29  30
HETATM   30  CAP   D T1356       1.627   8.529   9.814  1.00 33.72     0.151 C 
BRANCH  30  31
HETATM   31  CAO   D T1356       0.356   8.082  10.559  1.00 37.07     0.068 C 
BRANCH  31  32
HETATM   32  CAS   D T1356       0.647   6.761  11.287  1.00 39.71     0.253 C 
BRANCH  32  33
HETATM   33  NBL   D T1356      -0.125   5.561  10.885  1.00 41.70     0.142 N 
HETATM   34  CAT   D T1356       0.690   4.443  10.356  1.00 43.12     0.282 C 
HETATM   35  CAQ   D T1356      -0.205   3.211  10.100  1.00 43.52     0.178 C 
HETATM   36  OBA   D T1356      -1.582   3.484  10.540  1.00 44.22    -0.350 OA
HETATM   37  CAR   D T1356      -2.186   4.649   9.881  1.00 43.52     0.178 C 
HETATM   38  CAU   D T1356      -1.238   5.863   9.957  1.00 42.73     0.282 C 
ENDBRANCH  32  33
ENDBRANCH  31  32
ENDBRANCH  30  31
ENDBRANCH  29  30
ENDBRANCH   1  29
TORSDOF 10
ENDMDL
