MODEL 1
REMARK VINA RESULT:      -9.1      0.000      0.000
REMARK  18 active torsions:
REMARK  status: ('A' for Active; 'I' for Inactive)
REMARK    1  A    between atoms: C2_2  and  C6_6 
REMARK    2  A    between atoms: C6_6  and  O7_7 
REMARK    3  A    between atoms: O7_7  and  C10_8 
REMARK       I    between atoms: C10_8  and  N11_10 
REMARK    4  A    between atoms: N11_10  and  C12_11 
REMARK    5  A    between atoms: C12_11  and  C13_12 
REMARK    6  A    between atoms: C12_11  and  C26_15 
REMARK    7  A    between atoms: C13_12  and  C14_13 
REMARK    8  A    between atoms: C14_13  and  C15_14 
REMARK    9  A    between atoms: C15_14  and  C44_23 
REMARK   10  A    between atoms: C15_14  and  N58_30 
REMARK   11  A    between atoms: C26_15  and  C28_16 
REMARK   12  A    between atoms: C44_23  and  C45_24 
REMARK       I    between atoms: N58_30  and  C18_33 
REMARK   13  A    between atoms: N20_31  and  C19_32 
REMARK       I    between atoms: N20_31  and  C21_38 
REMARK   14  A    between atoms: C19_32  and  C18_33 
REMARK   15  A    between atoms: C19_32  and  C62_35 
REMARK       I    between atoms: C21_38  and  N74_39 
REMARK   16  A    between atoms: N74_39  and  C75_40 
REMARK   17  A    between atoms: C75_40  and  C77_42 
REMARK   18  A    between atoms: C82_45  and  C85_47 
ROOT
HETATM    1  C15   D T 401      -0.544  -2.015  10.734  1.00 59.81     0.113 C 
ENDROOT
BRANCH   1   2
HETATM    2  C14   D T 401      -0.612  -0.509  11.018  1.00 58.93     0.060 C 
BRANCH   2   3
HETATM    3  C13   D T 401      -1.321   0.371   9.962  1.00 59.07     0.177 C 
HETATM    4  O41   D T 401      -0.466   0.478   8.830  1.00 58.43    -0.221 OA
BRANCH   3   5
HETATM    5  C12   D T 401      -1.668   1.790  10.422  1.00 59.52     0.143 C 
BRANCH   5   6
HETATM    6  N11   D T 401      -0.554   2.650  10.054  1.00 58.37    -0.211 NA
HETATM    7  C10   D T 401       0.203   3.155  11.012  1.00 59.08     0.384 C 
HETATM    8  O24   D T 401      -0.084   2.984  12.196  1.00 59.19    -0.236 OA
BRANCH   7   9
HETATM    9  O7    D T 401       1.402   3.904  10.665  1.00 58.33    -0.278 OA
BRANCH   9  10
HETATM   10  C6    D T 401       2.636   3.364  11.097  1.00 59.85     0.188 C 
BRANCH  10  11
HETATM   11  C2    D T 401       3.224   2.620   9.943  1.00 62.87     0.058 A 
HETATM   12  C1    D T 401       3.902   3.008   8.792  1.00 63.59     0.104 A 
HETATM   13  N5    D T 401       4.213   1.915   8.006  1.00 65.21    -0.235 NA
HETATM   14  C4    D T 401       3.819   0.693   8.471  1.00 64.03     0.134 A 
HETATM   15  S3    D T 401       2.991   0.902   9.970  1.00 63.44    -0.066 SA
ENDBRANCH  10  11
ENDBRANCH   9  10
ENDBRANCH   7   9
ENDBRANCH   5   6
BRANCH   5  16
HETATM   16  C26   D T 401      -2.999   2.367   9.893  1.00 59.99     0.053 C 
BRANCH  16  17
HETATM   17  C28   D T 401      -4.133   1.350   9.979  1.00 61.27    -0.020 A 
HETATM   18  C31   D T 401      -4.597   0.903  11.229  1.00 62.70    -0.004 A 
HETATM   19  C32   D T 401      -5.643  -0.036  11.330  1.00 62.25    -0.000 A 
HETATM   20  C33   D T 401      -6.255  -0.539  10.181  1.00 60.89    -0.000 A 
HETATM   21  C34   D T 401      -5.804  -0.104   8.932  1.00 61.83    -0.000 A 
HETATM   22  C35   D T 401      -4.745   0.832   8.827  1.00 61.69    -0.004 A 
ENDBRANCH  16  17
ENDBRANCH   5  16
ENDBRANCH   3   5
ENDBRANCH   2   3
ENDBRANCH   1   2
BRANCH   1  23
HETATM   23  C44   D T 401      -1.298  -2.797  11.824  1.00 61.03     0.051 C 
BRANCH  23  24
HETATM   24  C45   D T 401      -2.438  -3.692  11.350  1.00 62.14    -0.020 A 
HETATM   25  C48   D T 401      -3.548  -3.035  10.822  1.00 62.95    -0.004 A 
HETATM   26  C49   D T 401      -4.657  -3.731  10.316  1.00 63.23    -0.000 A 
HETATM   27  C50   D T 401      -4.655  -5.123  10.327  1.00 64.66    -0.000 A 
HETATM   28  C51   D T 401      -3.545  -5.802  10.851  1.00 64.50    -0.000 A 
HETATM   29  C52   D T 401      -2.437  -5.101  11.354  1.00 63.39    -0.004 A 
ENDBRANCH  23  24
ENDBRANCH   1  23
BRANCH   1  30
HETATM   30  N58   D T 401       0.794  -2.536  10.794  1.00 60.63    -0.238 NA
HETATM   31  C18   D T 401       1.310  -3.531  10.093  1.00 62.24     0.274 C 
HETATM   32  O61   D T 401       0.786  -4.192   9.196  1.00 61.50    -0.268 OA
BRANCH  31  33
HETATM   33  C19   D T 401       2.699  -3.806  10.561  1.00 64.75     0.188 C 
BRANCH  33  34
HETATM   34  N20   D T 401       2.774  -5.168  11.051  1.00 65.69    -0.211 NA
HETATM   35  C21   D T 401       2.787  -5.409  12.336  1.00 66.79     0.343 C 
HETATM   36  N74   D T 401       3.503  -6.421  12.795  1.00 71.41    -0.294 N 
HETATM   37  O76   D T 401       2.286  -4.639  13.113  1.00 67.85    -0.245 OA
HETATM   38  C95   D T 401       4.761  -6.886  12.203  1.00 70.78     0.131 C 
BRANCH  36  39
HETATM   39  C75   D T 401       3.109  -7.126  14.004  1.00 74.33     0.152 C 
BRANCH  39  40
HETATM   40  C77   D T 401       2.240  -8.262  13.575  1.00 76.44     0.088 A 
HETATM   41  C80   D T 401       2.604  -9.611  13.659  1.00 78.25     0.053 A 
HETATM   42  S81   D T 401       1.313 -10.600  13.074  1.00 82.00    -0.070 SA
HETATM   43  C82   D T 401       0.319  -9.203  12.741  1.00 80.73     0.088 A 
HETATM   44  N83   D T 401       0.980  -8.056  13.077  1.00 78.96    -0.245 NA
BRANCH  43  45
HETATM   45  C85   D T 401      -1.039  -9.433  12.181  1.00 81.61     0.047 C 
HETATM   46  C86   D T 401      -1.184  -8.814  10.785  1.00 81.16     0.007 C 
HETATM   47  C90   D T 401      -2.088  -8.907  13.175  1.00 82.31     0.007 C 
ENDBRANCH  43  45
ENDBRANCH  39  40
ENDBRANCH  36  39
ENDBRANCH  33  34
BRANCH  33  48
HETATM   48  C62   D T 401       3.721  -3.626   9.422  1.00 64.68     0.032 C 
HETATM   49  C64   D T 401       4.836  -2.669   9.805  1.00 64.29     0.003 C 
HETATM   50  C68   D T 401       4.290  -4.961   8.945  1.00 63.77     0.003 C 
ENDBRANCH  33  48
ENDBRANCH  31  33
ENDBRANCH   1  30
TORSDOF 18
ENDMDL
MODEL 2
REMARK VINA RESULT:      -9.1      2.467      7.723
REMARK  18 active torsions:
REMARK  status: ('A' for Active; 'I' for Inactive)
REMARK    1  A    between atoms: C2_2  and  C6_6 
REMARK    2  A    between atoms: C6_6  and  O7_7 
REMARK    3  A    between atoms: O7_7  and  C10_8 
REMARK       I    between atoms: C10_8  and  N11_10 
REMARK    4  A    between atoms: N11_10  and  C12_11 
REMARK    5  A    between atoms: C12_11  and  C13_12 
REMARK    6  A    between atoms: C12_11  and  C26_15 
REMARK    7  A    between atoms: C13_12  and  C14_13 
REMARK    8  A    between atoms: C14_13  and  C15_14 
REMARK    9  A    between atoms: C15_14  and  C44_23 
REMARK   10  A    between atoms: C15_14  and  N58_30 
REMARK   11  A    between atoms: C26_15  and  C28_16 
REMARK   12  A    between atoms: C44_23  and  C45_24 
REMARK       I    between atoms: N58_30  and  C18_33 
REMARK   13  A    between atoms: N20_31  and  C19_32 
REMARK       I    between atoms: N20_31  and  C21_38 
REMARK   14  A    between atoms: C19_32  and  C18_33 
REMARK   15  A    between atoms: C19_32  and  C62_35 
REMARK       I    between atoms: C21_38  and  N74_39 
REMARK   16  A    between atoms: N74_39  and  C75_40 
REMARK   17  A    between atoms: C75_40  and  C77_42 
REMARK   18  A    between atoms: C82_45  and  C85_47 
ROOT
HETATM    1  C15   D T 401      -0.380  -0.007  10.439  1.00 59.81     0.113 C 
ENDROOT
BRANCH   1   2
HETATM    2  C14   D T 401      -0.229  -1.521  10.241  1.00 58.93     0.060 C 
BRANCH   2   3
HETATM    3  C13   D T 401      -0.496  -2.418  11.472  1.00 59.07     0.177 C 
HETATM    4  O41   D T 401       0.716  -3.086  11.804  1.00 58.43    -0.221 OA
BRANCH   3   5
HETATM    5  C12   D T 401      -1.580  -3.483  11.281  1.00 59.52     0.143 C 
BRANCH   5   6
HETATM    6  N11   D T 401      -1.100  -4.707  11.904  1.00 58.37    -0.211 NA
HETATM    7  C10   D T 401      -0.987  -5.795  11.163  1.00 59.08     0.384 C 
HETATM    8  O24   D T 401      -1.369  -5.802   9.994  1.00 59.19    -0.236 OA
BRANCH   7   9
HETATM    9  O7    D T 401      -0.381  -6.992  11.728  1.00 58.33    -0.278 OA
BRANCH   9  10
HETATM   10  C6    D T 401      -0.806  -8.232  11.194  1.00 59.85     0.188 C 
BRANCH  10  11
HETATM   11  C2    D T 401      -1.857  -8.772  12.108  1.00 62.87     0.058 A 
HETATM   12  C1    D T 401      -3.165  -8.398  12.400  1.00 63.59     0.104 A 
HETATM   13  N5    D T 401      -3.714  -9.221  13.364  1.00 65.21    -0.235 NA
HETATM   14  C4    D T 401      -2.916 -10.218  13.847  1.00 64.03     0.134 A 
HETATM   15  S3    D T 401      -1.375 -10.127  13.077  1.00 63.44    -0.066 SA
ENDBRANCH  10  11
ENDBRANCH   9  10
ENDBRANCH   7   9
ENDBRANCH   5   6
BRANCH   5  16
HETATM   16  C26   D T 401      -2.986  -3.120  11.806  1.00 59.99     0.053 C 
BRANCH  16  17
HETATM   17  C28   D T 401      -4.051  -3.263  10.724  1.00 61.27    -0.020 A 
HETATM   18  C31   D T 401      -4.585  -4.527  10.413  1.00 62.70    -0.004 A 
HETATM   19  C32   D T 401      -5.570  -4.681   9.417  1.00 62.25    -0.000 A 
HETATM   20  C33   D T 401      -6.050  -3.572   8.718  1.00 60.89    -0.000 A 
HETATM   21  C34   D T 401      -5.528  -2.310   9.016  1.00 61.83    -0.000 A 
HETATM   22  C35   D T 401      -4.530  -2.154  10.011  1.00 61.69    -0.004 A 
ENDBRANCH  16  17
ENDBRANCH   5  16
ENDBRANCH   3   5
ENDBRANCH   2   3
ENDBRANCH   1   2
BRANCH   1  23
HETATM   23  C44   D T 401      -1.081   0.621   9.221  1.00 61.03     0.051 C 
BRANCH  23  24
HETATM   24  C45   D T 401      -2.572   0.906   9.368  1.00 62.14    -0.020 A 
HETATM   25  C48   D T 401      -3.037   1.050  10.674  1.00 62.95    -0.004 A 
HETATM   26  C49   D T 401      -4.379   1.348  10.960  1.00 63.23    -0.000 A 
HETATM   27  C50   D T 401      -5.281   1.516   9.913  1.00 64.66    -0.000 A 
HETATM   28  C51   D T 401      -4.829   1.379   8.592  1.00 64.50    -0.000 A 
HETATM   29  C52   D T 401      -3.486   1.083   8.312  1.00 63.39    -0.004 A 
ENDBRANCH  23  24
ENDBRANCH   1  23
BRANCH   1  30
HETATM   30  N58   D T 401       0.882   0.677  10.507  1.00 60.63    -0.238 NA
HETATM   31  C18   D T 401       1.439   1.248  11.562  1.00 62.24     0.274 C 
HETATM   32  O61   D T 401       1.037   1.272  12.725  1.00 61.50    -0.268 OA
BRANCH  31  33
HETATM   33  C19   D T 401       2.695   1.939  11.151  1.00 64.75     0.188 C 
BRANCH  33  34
HETATM   34  N20   D T 401       3.540   1.004  10.438  1.00 65.69    -0.211 NA
HETATM   35  C21   D T 401       4.754   0.756  10.858  1.00 66.79     0.343 C 
HETATM   36  N74   D T 401       5.708   0.522   9.973  1.00 71.41    -0.294 N 
HETATM   37  O76   D T 401       5.043   0.888  12.018  1.00 67.85    -0.245 OA
HETATM   38  C95   D T 401       5.772   1.129   8.639  1.00 70.78     0.131 C 
BRANCH  36  39
HETATM   39  C75   D T 401       6.836  -0.335  10.301  1.00 74.33     0.152 C 
BRANCH  39  40
HETATM   40  C77   D T 401       6.271  -1.668  10.666  1.00 76.44     0.088 A 
HETATM   41  C80   D T 401       6.605  -2.377  11.826  1.00 78.25     0.053 A 
HETATM   42  S81   D T 401       5.720  -3.861  11.876  1.00 82.00    -0.070 SA
HETATM   43  C82   D T 401       4.924  -3.503  10.363  1.00 80.73     0.088 A 
HETATM   44  N83   D T 401       5.342  -2.296   9.879  1.00 78.96    -0.245 NA
BRANCH  43  45
HETATM   45  C85   D T 401       3.947  -4.493   9.839  1.00 81.61     0.047 C 
HETATM   46  C86   D T 401       4.636  -5.568   8.988  1.00 81.16     0.007 C 
HETATM   47  C90   D T 401       2.839  -3.749   9.074  1.00 82.31     0.007 C 
ENDBRANCH  43  45
ENDBRANCH  39  40
ENDBRANCH  36  39
ENDBRANCH  33  34
BRANCH  33  48
HETATM   48  C62   D T 401       2.399   3.144  10.237  1.00 64.68     0.032 C 
HETATM   49  C64   D T 401       1.248   3.986  10.761  1.00 64.29     0.003 C 
HETATM   50  C68   D T 401       3.638   4.004  10.002  1.00 63.77     0.003 C 
ENDBRANCH  33  48
ENDBRANCH  31  33
ENDBRANCH   1  30
TORSDOF 18
ENDMDL
MODEL 3
REMARK VINA RESULT:      -8.6      2.474      4.146
REMARK  18 active torsions:
REMARK  status: ('A' for Active; 'I' for Inactive)
REMARK    1  A    between atoms: C2_2  and  C6_6 
REMARK    2  A    between atoms: C6_6  and  O7_7 
REMARK    3  A    between atoms: O7_7  and  C10_8 
REMARK       I    between atoms: C10_8  and  N11_10 
REMARK    4  A    between atoms: N11_10  and  C12_11 
REMARK    5  A    between atoms: C12_11  and  C13_12 
REMARK    6  A    between atoms: C12_11  and  C26_15 
REMARK    7  A    between atoms: C13_12  and  C14_13 
REMARK    8  A    between atoms: C14_13  and  C15_14 
REMARK    9  A    between atoms: C15_14  and  C44_23 
REMARK   10  A    between atoms: C15_14  and  N58_30 
REMARK   11  A    between atoms: C26_15  and  C28_16 
REMARK   12  A    between atoms: C44_23  and  C45_24 
REMARK       I    between atoms: N58_30  and  C18_33 
REMARK   13  A    between atoms: N20_31  and  C19_32 
REMARK       I    between atoms: N20_31  and  C21_38 
REMARK   14  A    between atoms: C19_32  and  C18_33 
REMARK   15  A    between atoms: C19_32  and  C62_35 
REMARK       I    between atoms: C21_38  and  N74_39 
REMARK   16  A    between atoms: N74_39  and  C75_40 
REMARK   17  A    between atoms: C75_40  and  C77_42 
REMARK   18  A    between atoms: C82_45  and  C85_47 
ROOT
HETATM    1  C15   D T 401      -1.841  -3.050  11.288  1.00 59.81     0.113 C 
ENDROOT
BRANCH   1   2
HETATM    2  C14   D T 401      -0.842  -2.365  12.230  1.00 58.93     0.060 C 
BRANCH   2   3
HETATM    3  C13   D T 401       0.290  -1.543  11.572  1.00 59.07     0.177 C 
HETATM    4  O41   D T 401       1.330  -1.377  12.530  1.00 58.43    -0.221 OA
BRANCH   3   5
HETATM    5  C12   D T 401      -0.116  -0.152  11.077  1.00 59.52     0.143 C 
BRANCH   5   6
HETATM    6  N11   D T 401       1.084   0.671  11.063  1.00 58.37    -0.211 NA
HETATM    7  C10   D T 401       1.049   1.854  11.650  1.00 59.08     0.384 C 
HETATM    8  O24   D T 401      -0.000   2.295  12.115  1.00 59.19    -0.236 OA
BRANCH   7   9
HETATM    9  O7    D T 401       2.272   2.635  11.769  1.00 58.33    -0.278 OA
BRANCH   9  10
HETATM   10  C6    D T 401       2.411   3.736  10.890  1.00 59.85     0.188 C 
BRANCH  10  11
HETATM   11  C2    D T 401       3.477   3.384   9.904  1.00 62.87     0.058 A 
HETATM   12  C1    D T 401       3.635   2.354   8.982  1.00 63.59     0.104 A 
HETATM   13  N5    D T 401       4.841   2.461   8.319  1.00 65.21    -0.235 NA
HETATM   14  C4    D T 401       5.641   3.512   8.664  1.00 64.03     0.134 A 
HETATM   15  S3    D T 401       4.865   4.423   9.907  1.00 63.44    -0.066 SA
ENDBRANCH  10  11
ENDBRANCH   9  10
ENDBRANCH   7   9
ENDBRANCH   5   6
BRANCH   5  16
HETATM   16  C26   D T 401      -0.827  -0.102   9.708  1.00 59.99     0.053 C 
BRANCH  16  17
HETATM   17  C28   D T 401      -2.185   0.585   9.797  1.00 61.27    -0.020 A 
HETATM   18  C31   D T 401      -2.826   1.051   8.634  1.00 62.70    -0.004 A 
HETATM   19  C32   D T 401      -4.081   1.689   8.695  1.00 62.25    -0.000 A 
HETATM   20  C33   D T 401      -4.727   1.864   9.919  1.00 60.89    -0.000 A 
HETATM   21  C34   D T 401      -4.102   1.407  11.082  1.00 61.83    -0.000 A 
HETATM   22  C35   D T 401      -2.835   0.775  11.026  1.00 61.69    -0.004 A 
ENDBRANCH  16  17
ENDBRANCH   5  16
ENDBRANCH   3   5
ENDBRANCH   2   3
ENDBRANCH   1   2
BRANCH   1  23
HETATM   23  C44   D T 401      -3.283  -2.677  11.678  1.00 61.03     0.051 C 
BRANCH  23  24
HETATM   24  C45   D T 401      -4.369  -3.014  10.663  1.00 62.14    -0.020 A 
HETATM   25  C48   D T 401      -4.699  -2.001   9.765  1.00 62.95    -0.004 A 
HETATM   26  C49   D T 401      -5.656  -2.180   8.754  1.00 63.23    -0.000 A 
HETATM   27  C50   D T 401      -6.296  -3.410   8.629  1.00 64.66    -0.000 A 
HETATM   28  C51   D T 401      -5.974  -4.444   9.521  1.00 64.50    -0.000 A 
HETATM   29  C52   D T 401      -5.015  -4.259  10.529  1.00 63.39    -0.004 A 
ENDBRANCH  23  24
ENDBRANCH   1  23
BRANCH   1  30
HETATM   30  N58   D T 401      -1.813  -4.483  11.388  1.00 60.63    -0.238 NA
HETATM   31  C18   D T 401      -0.816  -5.298  11.085  1.00 62.24     0.274 C 
HETATM   32  O61   D T 401       0.322  -5.014  10.710  1.00 61.50    -0.268 OA
BRANCH  31  33
HETATM   33  C19   D T 401      -1.263  -6.712  11.234  1.00 64.75     0.188 C 
BRANCH  33  34
HETATM   34  N20   D T 401      -0.906  -7.187  12.555  1.00 65.69    -0.211 NA
HETATM   35  C21   D T 401      -0.053  -8.169  12.697  1.00 66.79     0.343 C 
HETATM   36  N74   D T 401      -0.219  -9.030  13.686  1.00 71.41    -0.294 N 
HETATM   37  O76   D T 401       0.782  -8.385  11.859  1.00 67.85    -0.245 OA
HETATM   38  C95   D T 401      -1.521  -9.439  14.222  1.00 70.78     0.131 C 
BRANCH  36  39
HETATM   39  C75   D T 401       0.920  -9.705  14.287  1.00 74.33     0.152 C 
BRANCH  39  40
HETATM   40  C77   D T 401       1.439  -8.801  15.357  1.00 76.44     0.088 A 
HETATM   41  C80   D T 401       0.901  -8.713  16.647  1.00 78.25     0.053 A 
HETATM   42  S81   D T 401       1.800  -7.564  17.575  1.00 82.00    -0.070 SA
HETATM   43  C82   D T 401       2.870  -7.235  16.234  1.00 80.73     0.088 A 
HETATM   44  N83   D T 401       2.524  -7.989  15.150  1.00 78.96    -0.245 NA
BRANCH  43  45
HETATM   45  C85   D T 401       3.960  -6.244  16.441  1.00 81.61     0.047 C 
HETATM   46  C86   D T 401       3.417  -4.913  16.977  1.00 81.16     0.007 C 
HETATM   47  C90   D T 401       4.745  -6.081  15.129  1.00 82.31     0.007 C 
ENDBRANCH  43  45
ENDBRANCH  39  40
ENDBRANCH  36  39
ENDBRANCH  33  34
BRANCH  33  48
HETATM   48  C62   D T 401      -2.789  -6.840  11.051  1.00 64.68     0.032 C 
HETATM   49  C64   D T 401      -3.158  -7.255   9.638  1.00 64.29     0.003 C 
HETATM   50  C68   D T 401      -3.412  -7.785  12.076  1.00 63.77     0.003 C 
ENDBRANCH  33  48
ENDBRANCH  31  33
ENDBRANCH   1  30
TORSDOF 18
ENDMDL
MODEL 4
REMARK VINA RESULT:      -8.5      2.254      7.252
REMARK  18 active torsions:
REMARK  status: ('A' for Active; 'I' for Inactive)
REMARK    1  A    between atoms: C2_2  and  C6_6 
REMARK    2  A    between atoms: C6_6  and  O7_7 
REMARK    3  A    between atoms: O7_7  and  C10_8 
REMARK       I    between atoms: C10_8  and  N11_10 
REMARK    4  A    between atoms: N11_10  and  C12_11 
REMARK    5  A    between atoms: C12_11  and  C13_12 
REMARK    6  A    between atoms: C12_11  and  C26_15 
REMARK    7  A    between atoms: C13_12  and  C14_13 
REMARK    8  A    between atoms: C14_13  and  C15_14 
REMARK    9  A    between atoms: C15_14  and  C44_23 
REMARK   10  A    between atoms: C15_14  and  N58_30 
REMARK   11  A    between atoms: C26_15  and  C28_16 
REMARK   12  A    between atoms: C44_23  and  C45_24 
REMARK       I    between atoms: N58_30  and  C18_33 
REMARK   13  A    between atoms: N20_31  and  C19_32 
REMARK       I    between atoms: N20_31  and  C21_38 
REMARK   14  A    between atoms: C19_32  and  C18_33 
REMARK   15  A    between atoms: C19_32  and  C62_35 
REMARK       I    between atoms: C21_38  and  N74_39 
REMARK   16  A    between atoms: N74_39  and  C75_40 
REMARK   17  A    between atoms: C75_40  and  C77_42 
REMARK   18  A    between atoms: C82_45  and  C85_47 
ROOT
HETATM    1  C15   D T 401      -0.710   0.107  11.148  1.00 59.81     0.113 C 
ENDROOT
BRANCH   1   2
HETATM    2  C14   D T 401      -1.053  -1.196  10.413  1.00 58.93     0.060 C 
BRANCH   2   3
HETATM    3  C13   D T 401      -0.598  -2.516  11.078  1.00 59.07     0.177 C 
HETATM    4  O41   D T 401       0.502  -3.028  10.335  1.00 58.43    -0.221 OA
BRANCH   3   5
HETATM    5  C12   D T 401      -1.665  -3.612  11.150  1.00 59.52     0.143 C 
BRANCH   5   6
HETATM    6  N11   D T 401      -1.109  -4.708  11.928  1.00 58.37    -0.211 NA
HETATM    7  C10   D T 401      -1.080  -5.916  11.393  1.00 59.08     0.384 C 
HETATM    8  O24   D T 401      -1.601  -6.132  10.299  1.00 59.19    -0.236 OA
BRANCH   7   9
HETATM    9  O7    D T 401      -0.406  -6.999  12.094  1.00 58.33    -0.278 OA
BRANCH   9  10
HETATM   10  C6    D T 401      -0.331  -8.242  11.422  1.00 59.85     0.188 C 
BRANCH  10  11
HETATM   11  C2    D T 401      -1.097  -9.234  12.235  1.00 62.87     0.058 A 
HETATM   12  C1    D T 401      -0.863 -10.550  12.621  1.00 63.59     0.104 A 
HETATM   13  N5    D T 401      -1.919 -11.047  13.357  1.00 65.21    -0.235 NA
HETATM   14  C4    D T 401      -2.971 -10.203  13.572  1.00 64.03     0.134 A 
HETATM   15  S3    D T 401      -2.647  -8.695  12.797  1.00 63.44    -0.066 SA
ENDBRANCH  10  11
ENDBRANCH   9  10
ENDBRANCH   7   9
ENDBRANCH   5   6
BRANCH   5  16
HETATM   16  C26   D T 401      -3.037  -3.184  11.714  1.00 59.99     0.053 C 
BRANCH  16  17
HETATM   17  C28   D T 401      -4.143  -3.304  10.671  1.00 61.27    -0.020 A 
HETATM   18  C31   D T 401      -4.782  -4.537  10.447  1.00 62.70    -0.004 A 
HETATM   19  C32   D T 401      -5.806  -4.669   9.488  1.00 62.25    -0.000 A 
HETATM   20  C33   D T 401      -6.221  -3.566   8.740  1.00 60.89    -0.000 A 
HETATM   21  C34   D T 401      -5.596  -2.335   8.952  1.00 61.83    -0.000 A 
HETATM   22  C35   D T 401      -4.559  -2.202   9.909  1.00 61.69    -0.004 A 
ENDBRANCH  16  17
ENDBRANCH   5  16
ENDBRANCH   3   5
ENDBRANCH   2   3
ENDBRANCH   1   2
BRANCH   1  23
HETATM   23  C44   D T 401      -1.206   1.320  10.341  1.00 61.03     0.051 C 
BRANCH  23  24
HETATM   24  C45   D T 401      -2.694   1.351  10.008  1.00 62.14    -0.020 A 
HETATM   25  C48   D T 401      -3.014   1.322   8.652  1.00 62.95    -0.004 A 
HETATM   26  C49   D T 401      -4.343   1.311   8.198  1.00 63.23    -0.000 A 
HETATM   27  C50   D T 401      -5.382   1.319   9.124  1.00 64.66    -0.000 A 
HETATM   28  C51   D T 401      -5.079   1.344  10.494  1.00 64.50    -0.000 A 
HETATM   29  C52   D T 401      -3.748   1.353  10.942  1.00 63.39    -0.004 A 
ENDBRANCH  23  24
ENDBRANCH   1  23
BRANCH   1  30
HETATM   30  N58   D T 401       0.705   0.324  11.271  1.00 60.63    -0.238 NA
HETATM   31  C18   D T 401       1.345   0.980  12.224  1.00 62.24     0.274 C 
HETATM   32  O61   D T 401       0.887   1.498  13.242  1.00 61.50    -0.268 OA
BRANCH  31  33
HETATM   33  C19   D T 401       2.797   1.055  11.890  1.00 64.75     0.188 C 
BRANCH  33  34
HETATM   34  N20   D T 401       3.181  -0.140  11.169  1.00 65.69    -0.211 NA
HETATM   35  C21   D T 401       4.317  -0.734  11.429  1.00 66.79     0.343 C 
HETATM   36  N74   D T 401       4.984  -1.310  10.444  1.00 71.41    -0.294 N 
HETATM   37  O76   D T 401       4.831  -0.632  12.511  1.00 67.85    -0.245 OA
HETATM   38  C95   D T 401       4.994  -0.835   9.057  1.00 70.78     0.131 C 
BRANCH  36  39
HETATM   39  C75   D T 401       5.840  -2.459  10.694  1.00 74.33     0.152 C 
BRANCH  39  40
HETATM   40  C77   D T 401       4.940  -3.592  11.064  1.00 76.44     0.088 A 
HETATM   41  C80   D T 401       4.036  -4.201  10.186  1.00 78.25     0.053 A 
HETATM   42  S81   D T 401       3.201  -5.476  11.003  1.00 82.00    -0.070 SA
HETATM   43  C82   D T 401       4.076  -5.175  12.485  1.00 80.73     0.088 A 
HETATM   44  N83   D T 401       4.955  -4.143  12.319  1.00 78.96    -0.245 NA
BRANCH  43  45
HETATM   45  C85   D T 401       3.775  -6.037  13.658  1.00 81.61     0.047 C 
HETATM   46  C86   D T 401       5.042  -6.352  14.465  1.00 81.16     0.007 C 
HETATM   47  C90   D T 401       3.048  -7.304  13.177  1.00 82.31     0.007 C 
ENDBRANCH  43  45
ENDBRANCH  39  40
ENDBRANCH  36  39
ENDBRANCH  33  34
BRANCH  33  48
HETATM   48  C62   D T 401       3.109   2.289  11.020  1.00 64.68     0.032 C 
HETATM   49  C64   D T 401       2.735   2.067   9.565  1.00 64.29     0.003 C 
HETATM   50  C68   D T 401       2.452   3.556  11.564  1.00 63.77     0.003 C 
ENDBRANCH  33  48
ENDBRANCH  31  33
ENDBRANCH   1  30
TORSDOF 18
ENDMDL
MODEL 5
REMARK VINA RESULT:      -8.5      2.753      9.184
REMARK  18 active torsions:
REMARK  status: ('A' for Active; 'I' for Inactive)
REMARK    1  A    between atoms: C2_2  and  C6_6 
REMARK    2  A    between atoms: C6_6  and  O7_7 
REMARK    3  A    between atoms: O7_7  and  C10_8 
REMARK       I    between atoms: C10_8  and  N11_10 
REMARK    4  A    between atoms: N11_10  and  C12_11 
REMARK    5  A    between atoms: C12_11  and  C13_12 
REMARK    6  A    between atoms: C12_11  and  C26_15 
REMARK    7  A    between atoms: C13_12  and  C14_13 
REMARK    8  A    between atoms: C14_13  and  C15_14 
REMARK    9  A    between atoms: C15_14  and  C44_23 
REMARK   10  A    between atoms: C15_14  and  N58_30 
REMARK   11  A    between atoms: C26_15  and  C28_16 
REMARK   12  A    between atoms: C44_23  and  C45_24 
REMARK       I    between atoms: N58_30  and  C18_33 
REMARK   13  A    between atoms: N20_31  and  C19_32 
REMARK       I    between atoms: N20_31  and  C21_38 
REMARK   14  A    between atoms: C19_32  and  C18_33 
REMARK   15  A    between atoms: C19_32  and  C62_35 
REMARK       I    between atoms: C21_38  and  N74_39 
REMARK   16  A    between atoms: N74_39  and  C75_40 
REMARK   17  A    between atoms: C75_40  and  C77_42 
REMARK   18  A    between atoms: C82_45  and  C85_47 
ROOT
HETATM    1  C15   D T 401      -0.776   0.352  10.647  1.00 59.81     0.113 C 
ENDROOT
BRANCH   1   2
HETATM    2  C14   D T 401      -0.481  -1.154  10.639  1.00 58.93     0.060 C 
BRANCH   2   3
HETATM    3  C13   D T 401      -1.085  -1.992  11.790  1.00 59.07     0.177 C 
HETATM    4  O41   D T 401      -0.083  -2.161  12.786  1.00 58.43    -0.221 OA
BRANCH   3   5
HETATM    5  C12   D T 401      -1.586  -3.383  11.391  1.00 59.52     0.143 C 
BRANCH   5   6
HETATM    6  N11   D T 401      -0.612  -4.350  11.871  1.00 58.37    -0.211 NA
HETATM    7  C10   D T 401       0.215  -4.903  11.001  1.00 59.08     0.384 C 
HETATM    8  O24   D T 401       0.102  -4.682   9.796  1.00 59.19    -0.236 OA
BRANCH   7   9
HETATM    9  O7    D T 401       1.287  -5.767  11.475  1.00 58.33    -0.278 OA
BRANCH   9  10
HETATM   10  C6    D T 401       2.238  -5.183  12.345  1.00 59.85     0.188 C 
BRANCH  10  11
HETATM   11  C2    D T 401       3.086  -4.266  11.526  1.00 62.87     0.058 A 
HETATM   12  C1    D T 401       3.182  -2.882  11.418  1.00 63.59     0.104 A 
HETATM   13  N5    D T 401       4.119  -2.522  10.469  1.00 65.21    -0.235 NA
HETATM   14  C4    D T 401       4.764  -3.539   9.825  1.00 64.03     0.134 A 
HETATM   15  S3    D T 401       4.162  -5.046  10.412  1.00 63.44    -0.066 SA
ENDBRANCH  10  11
ENDBRANCH   9  10
ENDBRANCH   7   9
ENDBRANCH   5   6
BRANCH   5  16
HETATM   16  C26   D T 401      -3.005  -3.755  11.874  1.00 59.99     0.053 C 
BRANCH  16  17
HETATM   17  C28   D T 401      -4.047  -3.561  10.777  1.00 61.27    -0.020 A 
HETATM   18  C31   D T 401      -4.337  -2.274  10.288  1.00 62.70    -0.004 A 
HETATM   19  C32   D T 401      -5.297  -2.073   9.276  1.00 62.25    -0.000 A 
HETATM   20  C33   D T 401      -5.980  -3.158   8.723  1.00 60.89    -0.000 A 
HETATM   21  C34   D T 401      -5.703  -4.442   9.200  1.00 61.83    -0.000 A 
HETATM   22  C35   D T 401      -4.745  -4.646  10.225  1.00 61.69    -0.004 A 
ENDBRANCH  16  17
ENDBRANCH   5  16
ENDBRANCH   3   5
ENDBRANCH   2   3
ENDBRANCH   1   2
BRANCH   1  23
HETATM   23  C44   D T 401      -1.270   0.805   9.261  1.00 61.03     0.051 C 
BRANCH  23  24
HETATM   24  C45   D T 401      -2.773   1.015   9.112  1.00 62.14    -0.020 A 
HETATM   25  C48   D T 401      -3.473   1.256  10.292  1.00 62.95    -0.004 A 
HETATM   26  C49   D T 401      -4.855   1.501  10.304  1.00 63.23    -0.000 A 
HETATM   27  C50   D T 401      -5.558   1.517   9.102  1.00 64.66    -0.000 A 
HETATM   28  C51   D T 401      -4.869   1.280   7.903  1.00 64.50    -0.000 A 
HETATM   29  C52   D T 401      -3.486   1.037   7.897  1.00 63.39    -0.004 A 
ENDBRANCH  23  24
ENDBRANCH   1  23
BRANCH   1  30
HETATM   30  N58   D T 401       0.396   1.151  10.878  1.00 60.63    -0.238 NA
HETATM   31  C18   D T 401       1.051   1.320  12.013  1.00 62.24     0.274 C 
HETATM   32  O61   D T 401       0.844   0.793  13.106  1.00 61.50    -0.268 OA
BRANCH  31  33
HETATM   33  C19   D T 401       2.139   2.321  11.819  1.00 64.75     0.188 C 
BRANCH  33  34
HETATM   34  N20   D T 401       2.726   2.136  10.508  1.00 65.69    -0.211 NA
HETATM   35  C21   D T 401       4.019   2.240  10.341  1.00 66.79     0.343 C 
HETATM   36  N74   D T 401       4.486   2.751   9.214  1.00 71.41    -0.294 N 
HETATM   37  O76   D T 401       4.777   2.022  11.249  1.00 67.85    -0.245 OA
HETATM   38  C95   D T 401       3.812   3.793   8.432  1.00 70.78     0.131 C 
BRANCH  36  39
HETATM   39  C75   D T 401       5.780   2.345   8.691  1.00 74.33     0.152 C 
BRANCH  39  40
HETATM   40  C77   D T 401       6.692   3.519   8.845  1.00 76.44     0.088 A 
HETATM   41  C80   D T 401       7.603   3.680   9.895  1.00 78.25     0.053 A 
HETATM   42  S81   D T 401       8.470   5.161   9.691  1.00 82.00    -0.070 SA
HETATM   43  C82   D T 401       7.610   5.527   8.215  1.00 80.73     0.088 A 
HETATM   44  N83   D T 401       6.714   4.537   7.928  1.00 78.96    -0.245 NA
BRANCH  43  45
HETATM   45  C85   D T 401       7.954   6.785   7.503  1.00 81.61     0.047 C 
HETATM   46  C86   D T 401       9.038   7.576   8.247  1.00 81.16     0.007 C 
HETATM   47  C90   D T 401       6.671   7.603   7.279  1.00 82.31     0.007 C 
ENDBRANCH  43  45
ENDBRANCH  39  40
ENDBRANCH  36  39
ENDBRANCH  33  34
BRANCH  33  48
HETATM   48  C62   D T 401       1.601   3.762  11.928  1.00 64.68     0.032 C 
HETATM   49  C64   D T 401       0.834   4.178  10.686  1.00 64.29     0.003 C 
HETATM   50  C68   D T 401       0.756   3.964  13.184  1.00 63.77     0.003 C 
ENDBRANCH  33  48
ENDBRANCH  31  33
ENDBRANCH   1  30
TORSDOF 18
ENDMDL
MODEL 6
REMARK VINA RESULT:      -8.4      2.057      4.726
REMARK  18 active torsions:
REMARK  status: ('A' for Active; 'I' for Inactive)
REMARK    1  A    between atoms: C2_2  and  C6_6 
REMARK    2  A    between atoms: C6_6  and  O7_7 
REMARK    3  A    between atoms: O7_7  and  C10_8 
REMARK       I    between atoms: C10_8  and  N11_10 
REMARK    4  A    between atoms: N11_10  and  C12_11 
REMARK    5  A    between atoms: C12_11  and  C13_12 
REMARK    6  A    between atoms: C12_11  and  C26_15 
REMARK    7  A    between atoms: C13_12  and  C14_13 
REMARK    8  A    between atoms: C14_13  and  C15_14 
REMARK    9  A    between atoms: C15_14  and  C44_23 
REMARK   10  A    between atoms: C15_14  and  N58_30 
REMARK   11  A    between atoms: C26_15  and  C28_16 
REMARK   12  A    between atoms: C44_23  and  C45_24 
REMARK       I    between atoms: N58_30  and  C18_33 
REMARK   13  A    between atoms: N20_31  and  C19_32 
REMARK       I    between atoms: N20_31  and  C21_38 
REMARK   14  A    between atoms: C19_32  and  C18_33 
REMARK   15  A    between atoms: C19_32  and  C62_35 
REMARK       I    between atoms: C21_38  and  N74_39 
REMARK   16  A    between atoms: N74_39  and  C75_40 
REMARK   17  A    between atoms: C75_40  and  C77_42 
REMARK   18  A    between atoms: C82_45  and  C85_47 
ROOT
HETATM    1  C15   D T 401       0.643  -2.500  10.824  1.00 59.81     0.113 C 
ENDROOT
BRANCH   1   2
HETATM    2  C14   D T 401       0.275  -1.019  10.987  1.00 58.93     0.060 C 
BRANCH   2   3
HETATM    3  C13   D T 401      -0.056  -0.234   9.696  1.00 59.07     0.177 C 
HETATM    4  O41   D T 401       1.165   0.249   9.147  1.00 58.43    -0.221 OA
BRANCH   3   5
HETATM    5  C12   D T 401      -0.992   0.964   9.882  1.00 59.52     0.143 C 
BRANCH   5   6
HETATM    6  N11   D T 401      -0.165   2.160   9.910  1.00 58.37    -0.211 NA
HETATM    7  C10   D T 401      -0.077   2.845  11.037  1.00 59.08     0.384 C 
HETATM    8  O24   D T 401      -0.756   2.537  12.016  1.00 59.19    -0.236 OA
BRANCH   7   9
HETATM    9  O7    D T 401       0.849   3.965  11.130  1.00 58.33    -0.278 OA
BRANCH   9  10
HETATM   10  C6    D T 401       2.048   3.740  11.849  1.00 59.85     0.188 C 
BRANCH  10  11
HETATM   11  C2    D T 401       3.118   3.448  10.848  1.00 62.87     0.058 A 
HETATM   12  C1    D T 401       3.616   4.131   9.743  1.00 63.59     0.104 A 
HETATM   13  N5    D T 401       4.605   3.401   9.113  1.00 65.21    -0.235 NA
HETATM   14  C4    D T 401       4.912   2.186   9.654  1.00 64.03     0.134 A 
HETATM   15  S3    D T 401       3.901   1.910  11.025  1.00 63.44    -0.066 SA
ENDBRANCH  10  11
ENDBRANCH   9  10
ENDBRANCH   7   9
ENDBRANCH   5   6
BRANCH   5  16
HETATM   16  C26   D T 401      -2.122   1.108   8.840  1.00 59.99     0.053 C 
BRANCH  16  17
HETATM   17  C28   D T 401      -3.489   0.786   9.436  1.00 61.27    -0.020 A 
HETATM   18  C31   D T 401      -3.709   0.904  10.820  1.00 62.70    -0.004 A 
HETATM   19  C32   D T 401      -4.964   0.610  11.390  1.00 62.25    -0.000 A 
HETATM   20  C33   D T 401      -6.029   0.203  10.585  1.00 60.89    -0.000 A 
HETATM   21  C34   D T 401      -5.824   0.081   9.208  1.00 61.83    -0.000 A 
HETATM   22  C35   D T 401      -4.561   0.366   8.633  1.00 61.69    -0.004 A 
ENDBRANCH  16  17
ENDBRANCH   5  16
ENDBRANCH   3   5
ENDBRANCH   2   3
ENDBRANCH   1   2
BRANCH   1  23
HETATM   23  C44   D T 401       1.362  -2.725   9.482  1.00 61.03     0.051 C 
BRANCH  23  24
HETATM   24  C45   D T 401       2.822  -3.157   9.560  1.00 62.14    -0.020 A 
HETATM   25  C48   D T 401       3.089  -4.469   9.174  1.00 62.95    -0.004 A 
HETATM   26  C49   D T 401       4.392  -4.994   9.161  1.00 63.23    -0.000 A 
HETATM   27  C50   D T 401       5.460  -4.183   9.535  1.00 64.66    -0.000 A 
HETATM   28  C51   D T 401       5.210  -2.858   9.921  1.00 64.50    -0.000 A 
HETATM   29  C52   D T 401       3.906  -2.337   9.930  1.00 63.39    -0.004 A 
ENDBRANCH  23  24
ENDBRANCH   1  23
BRANCH   1  30
HETATM   30  N58   D T 401      -0.508  -3.357  10.751  1.00 60.63    -0.238 NA
HETATM   31  C18   D T 401      -1.367  -3.646  11.715  1.00 62.24     0.274 C 
HETATM   32  O61   D T 401      -1.409  -3.206  12.864  1.00 61.50    -0.268 OA
BRANCH  31  33
HETATM   33  C19   D T 401      -2.339  -4.666  11.228  1.00 64.75     0.188 C 
BRANCH  33  34
HETATM   34  N20   D T 401      -2.252  -5.844  12.066  1.00 65.69    -0.211 NA
HETATM   35  C21   D T 401      -1.841  -6.982  11.568  1.00 66.79     0.343 C 
HETATM   36  N74   D T 401      -2.367  -8.109  12.015  1.00 71.41    -0.294 N 
HETATM   37  O76   D T 401      -1.110  -7.008  10.613  1.00 67.85    -0.245 OA
HETATM   38  C95   D T 401      -3.752  -8.256  12.476  1.00 70.78     0.131 C 
BRANCH  36  39
HETATM   39  C75   D T 401      -1.597  -9.343  12.015  1.00 74.33     0.152 C 
BRANCH  39  40
HETATM   40  C77   D T 401      -1.556  -9.822  13.429  1.00 76.44     0.088 A 
HETATM   41  C80   D T 401      -2.106 -11.032  13.870  1.00 78.25     0.053 A 
HETATM   42  S81   D T 401      -1.829 -11.213  15.566  1.00 82.00    -0.070 SA
HETATM   43  C82   D T 401      -0.985  -9.686  15.648  1.00 80.73     0.088 A 
HETATM   44  N83   D T 401      -0.937  -9.100  14.416  1.00 78.96    -0.245 NA
BRANCH  43  45
HETATM   45  C85   D T 401      -0.450  -9.257  16.967  1.00 81.61     0.047 C 
HETATM   46  C86   D T 401       0.975  -8.701  16.844  1.00 81.16     0.007 C 
HETATM   47  C90   D T 401      -0.546 -10.432  17.955  1.00 82.31     0.007 C 
ENDBRANCH  43  45
ENDBRANCH  39  40
ENDBRANCH  36  39
ENDBRANCH  33  34
BRANCH  33  48
HETATM   48  C62   D T 401      -3.784  -4.128  11.269  1.00 64.68     0.032 C 
HETATM   49  C64   D T 401      -3.903  -2.769  10.601  1.00 64.29     0.003 C 
HETATM   50  C68   D T 401      -4.782  -5.118  10.672  1.00 63.77     0.003 C 
ENDBRANCH  33  48
ENDBRANCH  31  33
ENDBRANCH   1  30
TORSDOF 18
ENDMDL
MODEL 7
REMARK VINA RESULT:      -8.4      1.802      2.942
REMARK  18 active torsions:
REMARK  status: ('A' for Active; 'I' for Inactive)
REMARK    1  A    between atoms: C2_2  and  C6_6 
REMARK    2  A    between atoms: C6_6  and  O7_7 
REMARK    3  A    between atoms: O7_7  and  C10_8 
REMARK       I    between atoms: C10_8  and  N11_10 
REMARK    4  A    between atoms: N11_10  and  C12_11 
REMARK    5  A    between atoms: C12_11  and  C13_12 
REMARK    6  A    between atoms: C12_11  and  C26_15 
REMARK    7  A    between atoms: C13_12  and  C14_13 
REMARK    8  A    between atoms: C14_13  and  C15_14 
REMARK    9  A    between atoms: C15_14  and  C44_23 
REMARK   10  A    between atoms: C15_14  and  N58_30 
REMARK   11  A    between atoms: C26_15  and  C28_16 
REMARK   12  A    between atoms: C44_23  and  C45_24 
REMARK       I    between atoms: N58_30  and  C18_33 
REMARK   13  A    between atoms: N20_31  and  C19_32 
REMARK       I    between atoms: N20_31  and  C21_38 
REMARK   14  A    between atoms: C19_32  and  C18_33 
REMARK   15  A    between atoms: C19_32  and  C62_35 
REMARK       I    between atoms: C21_38  and  N74_39 
REMARK   16  A    between atoms: N74_39  and  C75_40 
REMARK   17  A    between atoms: C75_40  and  C77_42 
REMARK   18  A    between atoms: C82_45  and  C85_47 
ROOT
HETATM    1  C15   D T 401      -0.442  -1.969  10.669  1.00 59.81     0.113 C 
ENDROOT
BRANCH   1   2
HETATM    2  C14   D T 401      -0.567  -0.478  11.011  1.00 58.93     0.060 C 
BRANCH   2   3
HETATM    3  C13   D T 401      -1.264   0.424   9.965  1.00 59.07     0.177 C 
HETATM    4  O41   D T 401      -0.351   0.650   8.898  1.00 58.43    -0.221 OA
BRANCH   3   5
HETATM    5  C12   D T 401      -1.724   1.789  10.484  1.00 59.52     0.143 C 
BRANCH   5   6
HETATM    6  N11   D T 401      -0.631   2.725  10.270  1.00 58.37    -0.211 NA
HETATM    7  C10   D T 401       0.040   3.168  11.319  1.00 59.08     0.384 C 
HETATM    8  O24   D T 401      -0.312   2.874  12.461  1.00 59.19    -0.236 OA
BRANCH   7   9
HETATM    9  O7    D T 401       1.221   3.996  11.122  1.00 58.33    -0.278 OA
BRANCH   9  10
HETATM   10  C6    D T 401       2.472   3.394  11.400  1.00 59.85     0.188 C 
BRANCH  10  11
HETATM   11  C2    D T 401       3.177   3.212  10.095  1.00 62.87     0.058 A 
HETATM   12  C1    D T 401       3.885   4.066   9.255  1.00 63.59     0.104 A 
HETATM   13  N5    D T 401       4.320   3.403   8.125  1.00 65.21    -0.235 NA
HETATM   14  C4    D T 401       3.995   2.081   8.025  1.00 64.03     0.134 A 
HETATM   15  S3    D T 401       3.073   1.623   9.409  1.00 63.44    -0.066 SA
ENDBRANCH  10  11
ENDBRANCH   9  10
ENDBRANCH   7   9
ENDBRANCH   5   6
BRANCH   5  16
HETATM   16  C26   D T 401      -3.035   2.336   9.880  1.00 59.99     0.053 C 
BRANCH  16  17
HETATM   17  C28   D T 401      -4.177   1.332   9.995  1.00 61.27    -0.020 A 
HETATM   18  C31   D T 401      -4.645   0.926  11.258  1.00 62.70    -0.004 A 
HETATM   19  C32   D T 401      -5.698  -0.001  11.387  1.00 62.25    -0.000 A 
HETATM   20  C33   D T 401      -6.314  -0.534  10.253  1.00 60.89    -0.000 A 
HETATM   21  C34   D T 401      -5.859  -0.141   8.992  1.00 61.83    -0.000 A 
HETATM   22  C35   D T 401      -4.793   0.784   8.860  1.00 61.69    -0.004 A 
ENDBRANCH  16  17
ENDBRANCH   5  16
ENDBRANCH   3   5
ENDBRANCH   2   3
ENDBRANCH   1   2
BRANCH   1  23
HETATM   23  C44   D T 401      -1.228  -2.815  11.686  1.00 61.03     0.051 C 
BRANCH  23  24
HETATM   24  C45   D T 401      -2.475  -3.520  11.162  1.00 62.14    -0.020 A 
HETATM   25  C48   D T 401      -2.460  -4.912  11.230  1.00 62.95    -0.004 A 
HETATM   26  C49   D T 401      -3.552  -5.692  10.817  1.00 63.23    -0.000 A 
HETATM   27  C50   D T 401      -4.695  -5.065  10.330  1.00 64.66    -0.000 A 
HETATM   28  C51   D T 401      -4.730  -3.665  10.258  1.00 64.50    -0.000 A 
HETATM   29  C52   D T 401      -3.636  -2.889  10.675  1.00 63.39    -0.004 A 
ENDBRANCH  23  24
ENDBRANCH   1  23
BRANCH   1  30
HETATM   30  N58   D T 401       0.905  -2.456  10.777  1.00 60.63    -0.238 NA
HETATM   31  C18   D T 401       1.476  -3.424  10.079  1.00 62.24     0.274 C 
HETATM   32  O61   D T 401       1.007  -4.080   9.149  1.00 61.50    -0.268 OA
BRANCH  31  33
HETATM   33  C19   D T 401       2.850  -3.673  10.601  1.00 64.75     0.188 C 
BRANCH  33  34
HETATM   34  N20   D T 401       2.967  -5.065  10.985  1.00 65.69    -0.211 NA
HETATM   35  C21   D T 401       2.668  -5.445  12.200  1.00 66.79     0.343 C 
HETATM   36  N74   D T 401       3.360  -6.422  12.760  1.00 71.41    -0.294 N 
HETATM   37  O76   D T 401       1.883  -4.821  12.864  1.00 67.85    -0.245 OA
HETATM   38  C95   D T 401       4.781  -6.686  12.507  1.00 70.78     0.131 C 
BRANCH  36  39
HETATM   39  C75   D T 401       2.752  -7.293  13.753  1.00 74.33     0.152 C 
BRANCH  39  40
HETATM   40  C77   D T 401       3.387  -6.958  15.063  1.00 76.44     0.088 A 
HETATM   41  C80   D T 401       4.213  -7.827  15.786  1.00 78.25     0.053 A 
HETATM   42  S81   D T 401       4.750  -7.050  17.234  1.00 82.00    -0.070 SA
HETATM   43  C82   D T 401       3.873  -5.590  16.842  1.00 80.73     0.088 A 
HETATM   44  N83   D T 401       3.218  -5.732  15.653  1.00 78.96    -0.245 NA
BRANCH  43  45
HETATM   45  C85   D T 401       3.961  -4.450  17.792  1.00 81.61     0.047 C 
HETATM   46  C86   D T 401       5.363  -3.828  17.797  1.00 81.16     0.007 C 
HETATM   47  C90   D T 401       3.515  -4.922  19.186  1.00 82.31     0.007 C 
ENDBRANCH  43  45
ENDBRANCH  39  40
ENDBRANCH  36  39
ENDBRANCH  33  34
BRANCH  33  48
HETATM   48  C62   D T 401       3.920  -3.354   9.538  1.00 64.68     0.032 C 
HETATM   49  C64   D T 401       4.440  -1.933   9.665  1.00 64.29     0.003 C 
HETATM   50  C68   D T 401       5.070  -4.358   9.563  1.00 63.77     0.003 C 
ENDBRANCH  33  48
ENDBRANCH  31  33
ENDBRANCH   1  30
TORSDOF 18
ENDMDL
MODEL 8
REMARK VINA RESULT:      -8.4      2.272      7.136
REMARK  18 active torsions:
REMARK  status: ('A' for Active; 'I' for Inactive)
REMARK    1  A    between atoms: C2_2  and  C6_6 
REMARK    2  A    between atoms: C6_6  and  O7_7 
REMARK    3  A    between atoms: O7_7  and  C10_8 
REMARK       I    between atoms: C10_8  and  N11_10 
REMARK    4  A    between atoms: N11_10  and  C12_11 
REMARK    5  A    between atoms: C12_11  and  C13_12 
REMARK    6  A    between atoms: C12_11  and  C26_15 
REMARK    7  A    between atoms: C13_12  and  C14_13 
REMARK    8  A    between atoms: C14_13  and  C15_14 
REMARK    9  A    between atoms: C15_14  and  C44_23 
REMARK   10  A    between atoms: C15_14  and  N58_30 
REMARK   11  A    between atoms: C26_15  and  C28_16 
REMARK   12  A    between atoms: C44_23  and  C45_24 
REMARK       I    between atoms: N58_30  and  C18_33 
REMARK   13  A    between atoms: N20_31  and  C19_32 
REMARK       I    between atoms: N20_31  and  C21_38 
REMARK   14  A    between atoms: C19_32  and  C18_33 
REMARK   15  A    between atoms: C19_32  and  C62_35 
REMARK       I    between atoms: C21_38  and  N74_39 
REMARK   16  A    between atoms: N74_39  and  C75_40 
REMARK   17  A    between atoms: C75_40  and  C77_42 
REMARK   18  A    between atoms: C82_45  and  C85_47 
ROOT
HETATM    1  C15   D T 401      -0.232   0.126  10.482  1.00 59.81     0.113 C 
ENDROOT
BRANCH   1   2
HETATM    2  C14   D T 401      -0.595  -1.339  10.200  1.00 58.93     0.060 C 
BRANCH   2   3
HETATM    3  C13   D T 401      -0.582  -2.307  11.406  1.00 59.07     0.177 C 
HETATM    4  O41   D T 401       0.734  -2.830  11.539  1.00 58.43    -0.221 OA
BRANCH   3   5
HETATM    5  C12   D T 401      -1.548  -3.491  11.301  1.00 59.52     0.143 C 
BRANCH   5   6
HETATM    6  N11   D T 401      -0.917  -4.624  11.961  1.00 58.37    -0.211 NA
HETATM    7  C10   D T 401      -0.783  -5.755  11.291  1.00 59.08     0.384 C 
HETATM    8  O24   D T 401      -1.268  -5.883  10.168  1.00 59.19    -0.236 OA
BRANCH   7   9
HETATM    9  O7    D T 401      -0.035  -6.857  11.879  1.00 58.33    -0.278 OA
BRANCH   9  10
HETATM   10  C6    D T 401      -0.790  -7.954  12.360  1.00 59.85     0.188 C 
BRANCH  10  11
HETATM   11  C2    D T 401      -0.098  -9.200  11.913  1.00 62.87     0.058 A 
HETATM   12  C1    D T 401      -0.207 -10.012  10.789  1.00 63.59     0.104 A 
HETATM   13  N5    D T 401       0.654 -11.090  10.869  1.00 65.21    -0.235 NA
HETATM   14  C4    D T 401       1.431 -11.173  11.988  1.00 64.03     0.134 A 
HETATM   15  S3    D T 401       1.066  -9.843  13.026  1.00 63.44    -0.066 SA
ENDBRANCH  10  11
ENDBRANCH   9  10
ENDBRANCH   7   9
ENDBRANCH   5   6
BRANCH   5  16
HETATM   16  C26   D T 401      -2.968  -3.258  11.859  1.00 59.99     0.053 C 
BRANCH  16  17
HETATM   17  C28   D T 401      -4.029  -3.346  10.768  1.00 61.27    -0.020 A 
HETATM   18  C31   D T 401      -4.473  -2.185  10.109  1.00 62.70    -0.004 A 
HETATM   19  C32   D T 401      -5.453  -2.245   9.098  1.00 62.25    -0.000 A 
HETATM   20  C33   D T 401      -6.002  -3.470   8.716  1.00 60.89    -0.000 A 
HETATM   21  C34   D T 401      -5.571  -4.632   9.362  1.00 61.83    -0.000 A 
HETATM   22  C35   D T 401      -4.593  -4.573  10.386  1.00 61.69    -0.004 A 
ENDBRANCH  16  17
ENDBRANCH   5  16
ENDBRANCH   3   5
ENDBRANCH   2   3
ENDBRANCH   1   2
BRANCH   1  23
HETATM   23  C44   D T 401      -0.859   1.043   9.416  1.00 61.03     0.051 C 
BRANCH  23  24
HETATM   24  C45   D T 401      -2.380   1.152   9.425  1.00 62.14    -0.020 A 
HETATM   25  C48   D T 401      -2.974   1.273  10.680  1.00 62.95    -0.004 A 
HETATM   26  C49   D T 401      -4.361   1.416  10.840  1.00 63.23    -0.000 A 
HETATM   27  C50   D T 401      -5.179   1.451   9.714  1.00 64.66    -0.000 A 
HETATM   28  C51   D T 401      -4.599   1.336   8.442  1.00 64.50    -0.000 A 
HETATM   29  C52   D T 401      -3.210   1.195   8.288  1.00 63.39    -0.004 A 
ENDBRANCH  23  24
ENDBRANCH   1  23
BRANCH   1  30
HETATM   30  N58   D T 401       1.178   0.383  10.378  1.00 60.63    -0.238 NA
HETATM   31  C18   D T 401       1.842   1.446  10.800  1.00 62.24     0.274 C 
HETATM   32  O61   D T 401       1.418   2.419  11.423  1.00 61.50    -0.268 OA
BRANCH  31  33
HETATM   33  C19   D T 401       3.269   1.343  10.381  1.00 64.75     0.188 C 
BRANCH  33  34
HETATM   34  N20   D T 401       3.695  -0.038  10.480  1.00 65.69    -0.211 NA
HETATM   35  C21   D T 401       4.525  -0.409  11.420  1.00 66.79     0.343 C 
HETATM   36  N74   D T 401       5.413  -1.353  11.161  1.00 71.41    -0.294 N 
HETATM   37  O76   D T 401       4.592   0.197  12.457  1.00 67.85    -0.245 OA
HETATM   38  C95   D T 401       6.037  -1.571   9.851  1.00 70.78     0.131 C 
BRANCH  36  39
HETATM   39  C75   D T 401       5.900  -2.229  12.214  1.00 74.33     0.152 C 
BRANCH  39  40
HETATM   40  C77   D T 401       5.383  -3.597  11.907  1.00 76.44     0.088 A 
HETATM   41  C80   D T 401       4.039  -3.895  11.654  1.00 78.25     0.053 A 
HETATM   42  S81   D T 401       3.870  -5.585  11.330  1.00 82.00    -0.070 SA
HETATM   43  C82   D T 401       5.585  -5.853  11.531  1.00 80.73     0.088 A 
HETATM   44  N83   D T 401       6.219  -4.680  11.828  1.00 78.96    -0.245 NA
BRANCH  43  45
HETATM   45  C85   D T 401       6.099  -7.236  11.351  1.00 81.61     0.047 C 
HETATM   46  C86   D T 401       5.555  -8.183  12.428  1.00 81.16     0.007 C 
HETATM   47  C90   D T 401       7.636  -7.199  11.314  1.00 82.31     0.007 C 
ENDBRANCH  43  45
ENDBRANCH  39  40
ENDBRANCH  36  39
ENDBRANCH  33  34
BRANCH  33  48
HETATM   48  C62   D T 401       3.464   1.825   8.930  1.00 64.68     0.032 C 
HETATM   49  C64   D T 401       4.328   3.072   8.857  1.00 64.29     0.003 C 
HETATM   50  C68   D T 401       4.019   0.724   8.029  1.00 63.77     0.003 C 
ENDBRANCH  33  48
ENDBRANCH  31  33
ENDBRANCH   1  30
TORSDOF 18
ENDMDL
MODEL 9
REMARK VINA RESULT:      -8.2      3.155     10.625
REMARK  18 active torsions:
REMARK  status: ('A' for Active; 'I' for Inactive)
REMARK    1  A    between atoms: C2_2  and  C6_6 
REMARK    2  A    between atoms: C6_6  and  O7_7 
REMARK    3  A    between atoms: O7_7  and  C10_8 
REMARK       I    between atoms: C10_8  and  N11_10 
REMARK    4  A    between atoms: N11_10  and  C12_11 
REMARK    5  A    between atoms: C12_11  and  C13_12 
REMARK    6  A    between atoms: C12_11  and  C26_15 
REMARK    7  A    between atoms: C13_12  and  C14_13 
REMARK    8  A    between atoms: C14_13  and  C15_14 
REMARK    9  A    between atoms: C15_14  and  C44_23 
REMARK   10  A    between atoms: C15_14  and  N58_30 
REMARK   11  A    between atoms: C26_15  and  C28_16 
REMARK   12  A    between atoms: C44_23  and  C45_24 
REMARK       I    between atoms: N58_30  and  C18_33 
REMARK   13  A    between atoms: N20_31  and  C19_32 
REMARK       I    between atoms: N20_31  and  C21_38 
REMARK   14  A    between atoms: C19_32  and  C18_33 
REMARK   15  A    between atoms: C19_32  and  C62_35 
REMARK       I    between atoms: C21_38  and  N74_39 
REMARK   16  A    between atoms: N74_39  and  C75_40 
REMARK   17  A    between atoms: C75_40  and  C77_42 
REMARK   18  A    between atoms: C82_45  and  C85_47 
ROOT
HETATM    1  C15   D T 401      -2.473  -4.463  11.689  1.00 59.81     0.113 C 
ENDROOT
BRANCH   1   2
HETATM    2  C14   D T 401      -2.047  -5.767  12.378  1.00 58.93     0.060 C 
BRANCH   2   3
HETATM    3  C13   D T 401      -2.587  -7.085  11.775  1.00 59.07     0.177 C 
HETATM    4  O41   D T 401      -3.906  -7.289  12.268  1.00 58.43    -0.221 OA
BRANCH   3   5
HETATM    5  C12   D T 401      -1.766  -8.336  12.102  1.00 59.52     0.143 C 
BRANCH   5   6
HETATM    6  N11   D T 401      -2.678  -9.316  12.671  1.00 58.37    -0.211 NA
HETATM    7  C10   D T 401      -2.501  -9.695  13.925  1.00 59.08     0.384 C 
HETATM    8  O24   D T 401      -1.530  -9.303  14.570  1.00 59.19    -0.236 OA
BRANCH   7   9
HETATM    9  O7    D T 401      -3.479 -10.568  14.559  1.00 58.33    -0.278 OA
BRANCH   9  10
HETATM   10  C6    D T 401      -3.022 -11.844  14.966  1.00 59.85     0.188 C 
BRANCH  10  11
HETATM   11  C2    D T 401      -3.154 -12.758  13.792  1.00 62.87     0.058 A 
HETATM   12  C1    D T 401      -2.297 -13.136  12.764  1.00 63.59     0.104 A 
HETATM   13  N5    D T 401      -2.923 -14.000  11.887  1.00 65.21    -0.235 NA
HETATM   14  C4    D T 401      -4.220 -14.323  12.164  1.00 64.03     0.134 A 
HETATM   15  S3    D T 401      -4.714 -13.490  13.593  1.00 63.44    -0.066 SA
ENDBRANCH  10  11
ENDBRANCH   9  10
ENDBRANCH   7   9
ENDBRANCH   5   6
BRANCH   5  16
HETATM   16  C26   D T 401      -0.971  -8.949  10.929  1.00 59.99     0.053 C 
BRANCH  16  17
HETATM   17  C28   D T 401       0.168  -9.838  11.417  1.00 61.27    -0.020 A 
HETATM   18  C31   D T 401       0.363 -11.116  10.863  1.00 62.70    -0.004 A 
HETATM   19  C32   D T 401       1.410 -11.953  11.301  1.00 62.25    -0.000 A 
HETATM   20  C33   D T 401       2.290 -11.523  12.295  1.00 60.89    -0.000 A 
HETATM   21  C34   D T 401       2.108 -10.256  12.854  1.00 61.83    -0.000 A 
HETATM   22  C35   D T 401       1.051  -9.417  12.424  1.00 61.69    -0.004 A 
ENDBRANCH  16  17
ENDBRANCH   5  16
ENDBRANCH   3   5
ENDBRANCH   2   3
ENDBRANCH   1   2
BRANCH   1  23
HETATM   23  C44   D T 401      -3.380  -4.769  10.484  1.00 61.03     0.051 C 
BRANCH  23  24
HETATM   24  C45   D T 401      -4.416  -3.708  10.128  1.00 62.14    -0.020 A 
HETATM   25  C48   D T 401      -5.430  -4.115   9.264  1.00 62.95    -0.004 A 
HETATM   26  C49   D T 401      -6.471  -3.256   8.876  1.00 63.23    -0.000 A 
HETATM   27  C50   D T 401      -6.506  -1.956   9.373  1.00 64.66    -0.000 A 
HETATM   28  C51   D T 401      -5.495  -1.530  10.248  1.00 64.50    -0.000 A 
HETATM   29  C52   D T 401      -4.458  -2.394  10.633  1.00 63.39    -0.004 A 
ENDBRANCH  23  24
ENDBRANCH   1  23
BRANCH   1  30
HETATM   30  N58   D T 401      -1.366  -3.744  11.119  1.00 60.63    -0.238 NA
HETATM   31  C18   D T 401      -0.405  -4.217  10.344  1.00 62.24     0.274 C 
HETATM   32  O61   D T 401      -0.273  -5.354   9.890  1.00 61.50    -0.268 OA
BRANCH  31  33
HETATM   33  C19   D T 401       0.597  -3.145  10.079  1.00 64.75     0.188 C 
BRANCH  33  34
HETATM   34  N20   D T 401       0.062  -1.875  10.524  1.00 65.69    -0.211 NA
HETATM   35  C21   D T 401       0.195  -0.805   9.784  1.00 66.79     0.343 C 
HETATM   36  N74   D T 401       0.370   0.367  10.369  1.00 71.41    -0.294 N 
HETATM   37  O76   D T 401       0.312  -0.893   8.590  1.00 67.85    -0.245 OA
HETATM   38  C95   D T 401       1.080   0.566  11.637  1.00 70.78     0.131 C 
BRANCH  36  39
HETATM   39  C75   D T 401      -0.089   1.593   9.736  1.00 74.33     0.152 C 
BRANCH  39  40
HETATM   40  C77   D T 401      -1.569   1.650   9.934  1.00 76.44     0.088 A 
HETATM   41  C80   D T 401      -2.198   1.675  11.184  1.00 78.25     0.053 A 
HETATM   42  S81   D T 401      -3.912   1.755  10.970  1.00 82.00    -0.070 SA
HETATM   43  C82   D T 401      -3.751   1.763   9.230  1.00 80.73     0.088 A 
HETATM   44  N83   D T 401      -2.434   1.707   8.873  1.00 78.96    -0.245 NA
BRANCH  43  45
HETATM   45  C85   D T 401      -4.993   1.836   8.417  1.00 81.61     0.047 C 
HETATM   46  C86   D T 401      -5.039   0.727   7.359  1.00 81.16     0.007 C 
HETATM   47  C90   D T 401      -5.112   3.244   7.808  1.00 82.31     0.007 C 
ENDBRANCH  43  45
ENDBRANCH  39  40
ENDBRANCH  36  39
ENDBRANCH  33  34
BRANCH  33  48
HETATM   48  C62   D T 401       1.920  -3.420  10.821  1.00 64.68     0.032 C 
HETATM   49  C64   D T 401       3.113  -2.823  10.093  1.00 64.29     0.003 C 
HETATM   50  C68   D T 401       1.874  -2.945  12.271  1.00 63.77     0.003 C 
ENDBRANCH  33  48
ENDBRANCH  31  33
ENDBRANCH   1  30
TORSDOF 18
ENDMDL
