MODEL 1
REMARK VINA RESULT:    -7.077      0.000      0.000
REMARK INTER + INTRA:         -11.185
REMARK INTER:                 -10.387
REMARK INTRA:                  -0.799
REMARK UNBOUND:                -0.799
REMARK  8 active torsions:
REMARK  status: ('A' for Active; 'I' for Inactive)
REMARK    1  A    between atoms: C3_5  and  N2_12 
REMARK    2  A    between atoms: N2_12  and  C10_13 
REMARK    3  A    between atoms: C10_13  and  C11_14 
REMARK    4  A    between atoms: C11_14  and  C12_15 
REMARK    5  A    between atoms: C12_15  and  C13_16 
REMARK    6  A    between atoms: C13_16  and  N3_17 
REMARK    7  A    between atoms: N3_17  and  C14_18 
REMARK    8  A    between atoms: N3_17  and  C16_20 
ROOT
HETATM    1 CL     D T1001       8.461  10.364   4.770  1.00 22.69    -0.082 Cl
HETATM    2  N1    D T1001       3.478  10.216   3.489  1.00 34.43    -0.244 NA
HETATM    3  C1    D T1001       2.392  10.604   2.789  1.00 35.26     0.101 A 
HETATM    4  C2    D T1001       2.463  11.607   1.832  1.00 34.24     0.039 A 
HETATM    5  C3    D T1001       3.715  12.310   1.558  1.00 31.96     0.079 A 
HETATM    6  C4    D T1001       4.910  11.901   2.326  1.00 33.68     0.035 A 
HETATM    7  C5    D T1001       6.247  12.475   2.179  1.00 34.90     0.004 A 
HETATM    8  C6    D T1001       7.330  12.012   2.939  1.00 32.93     0.012 A 
HETATM    9  C7    D T1001       7.118  10.945   3.872  1.00 31.88     0.059 A 
HETATM   10  C8    D T1001       5.859  10.354   4.056  1.00 32.37     0.031 A 
HETATM   11  C9    D T1001       4.748  10.814   3.296  1.00 35.42     0.084 A 
ENDROOT
BRANCH   5  12
HETATM   12  N2    D T1001       3.815  13.305   0.622  1.00 30.60    -0.273 NA
BRANCH  12  13
HETATM   13  C10   D T1001       3.756  13.167  -0.872  1.00 29.84     0.103 C 
HETATM   14  C18   D T1001       5.156  12.983  -1.442  1.00 30.59     0.026 C 
BRANCH  13  15
HETATM   15  C11   D T1001       3.015  14.372  -1.469  1.00 31.56     0.026 C 
BRANCH  15  16
HETATM   16  C12   D T1001       1.679  14.730  -0.844  1.00 32.62     0.037 C 
BRANCH  16  17
HETATM   17  C13   D T1001       0.759  13.519  -0.877  1.00 31.65     0.250 C 
BRANCH  17  18
HETATM   18  N3    D T1001      -0.603  13.778  -0.295  1.00 36.76     0.137 N 
BRANCH  18  19
HETATM   19  C14   D T1001      -1.743  13.466  -1.290  1.00 36.54     0.250 C 
HETATM   20  C15   D T1001      -2.883  12.573  -0.815  1.00 37.02     0.037 C 
ENDBRANCH  18  19
BRANCH  18  21
HETATM   21  C16   D T1001      -0.758  13.261   1.108  1.00 33.74     0.250 C 
HETATM   22  C17   D T1001       0.047  13.979   2.140  1.00 35.69     0.037 C 
ENDBRANCH  18  21
ENDBRANCH  17  18
ENDBRANCH  16  17
ENDBRANCH  15  16
ENDBRANCH  13  15
ENDBRANCH  12  13
ENDBRANCH   5  12
TORSDOF 8
ENDMDL
MODEL 2
REMARK VINA RESULT:    -6.884      3.481      5.869
REMARK INTER + INTRA:         -10.903
REMARK INTER:                  -9.594
REMARK INTRA:                  -1.309
REMARK UNBOUND:                -0.799
REMARK  8 active torsions:
REMARK  status: ('A' for Active; 'I' for Inactive)
REMARK    1  A    between atoms: C3_5  and  N2_12 
REMARK    2  A    between atoms: N2_12  and  C10_13 
REMARK    3  A    between atoms: C10_13  and  C11_14 
REMARK    4  A    between atoms: C11_14  and  C12_15 
REMARK    5  A    between atoms: C12_15  and  C13_16 
REMARK    6  A    between atoms: C13_16  and  N3_17 
REMARK    7  A    between atoms: N3_17  and  C14_18 
REMARK    8  A    between atoms: N3_17  and  C16_20 
ROOT
HETATM    1 CL     D T1001      -2.285  13.715   0.209  1.00 22.69    -0.082 Cl
HETATM    2  N1    D T1001       2.027  12.100   2.508  1.00 34.43    -0.244 NA
HETATM    3  C1    D T1001       3.362  11.933   2.606  1.00 35.26     0.101 A 
HETATM    4  C2    D T1001       4.226  12.378   1.613  1.00 34.24     0.039 A 
HETATM    5  C3    D T1001       3.724  13.023   0.401  1.00 31.96     0.079 A 
HETATM    6  C4    D T1001       2.262  13.201   0.278  1.00 33.68     0.035 A 
HETATM    7  C5    D T1001       1.580  13.837  -0.849  1.00 34.90     0.004 A 
HETATM    8  C6    D T1001       0.186  13.980  -0.875  1.00 32.93     0.012 A 
HETATM    9  C7    D T1001      -0.582  13.501   0.236  1.00 31.88     0.059 A 
HETATM   10  C8    D T1001       0.017  12.884   1.346  1.00 32.37     0.031 A 
HETATM   11  C9    D T1001       1.430  12.727   1.387  1.00 35.42     0.084 A 
ENDROOT
BRANCH   5  12
HETATM   12  N2    D T1001       4.551  13.469  -0.595  1.00 30.60    -0.273 NA
BRANCH  12  13
HETATM   13  C10   D T1001       5.262  12.649  -1.633  1.00 29.84     0.103 C 
HETATM   14  C18   D T1001       6.717  12.442  -1.235  1.00 30.59     0.026 C 
BRANCH  13  15
HETATM   15  C11   D T1001       5.101  13.310  -3.009  1.00 31.56     0.026 C 
BRANCH  15  16
HETATM   16  C12   D T1001       4.222  14.546  -3.074  1.00 32.62     0.037 C 
BRANCH  16  17
HETATM   17  C13   D T1001       5.030  15.718  -3.612  1.00 31.65     0.250 C 
BRANCH  17  18
HETATM   18  N3    D T1001       5.083  16.895  -2.677  1.00 36.76     0.137 N 
BRANCH  18  19
HETATM   19  C14   D T1001       3.771  17.083  -1.884  1.00 36.54     0.250 C 
HETATM   20  C15   D T1001       2.582  17.708  -2.605  1.00 37.02     0.037 C 
ENDBRANCH  18  19
BRANCH  18  21
HETATM   21  C16   D T1001       6.369  16.982  -1.903  1.00 33.74     0.250 C 
HETATM   22  C17   D T1001       6.305  16.457  -0.507  1.00 35.69     0.037 C 
ENDBRANCH  18  21
ENDBRANCH  17  18
ENDBRANCH  16  17
ENDBRANCH  15  16
ENDBRANCH  13  15
ENDBRANCH  12  13
ENDBRANCH   5  12
TORSDOF 8
ENDMDL
MODEL 3
REMARK VINA RESULT:    -6.841      2.366      3.638
REMARK INTER + INTRA:         -10.839
REMARK INTER:                  -9.777
REMARK INTRA:                  -1.062
REMARK UNBOUND:                -0.799
REMARK  8 active torsions:
REMARK  status: ('A' for Active; 'I' for Inactive)
REMARK    1  A    between atoms: C3_5  and  N2_12 
REMARK    2  A    between atoms: N2_12  and  C10_13 
REMARK    3  A    between atoms: C10_13  and  C11_14 
REMARK    4  A    between atoms: C11_14  and  C12_15 
REMARK    5  A    between atoms: C12_15  and  C13_16 
REMARK    6  A    between atoms: C13_16  and  N3_17 
REMARK    7  A    between atoms: N3_17  and  C14_18 
REMARK    8  A    between atoms: N3_17  and  C16_20 
ROOT
HETATM    1 CL     D T1001       8.098  10.484   4.695  1.00 22.69    -0.082 Cl
HETATM    2  N1    D T1001       3.369  11.428   2.896  1.00 34.43    -0.244 NA
HETATM    3  C1    D T1001       2.482  11.990   2.050  1.00 35.26     0.101 A 
HETATM    4  C2    D T1001       2.888  12.830   1.021  1.00 34.24     0.039 A 
HETATM    5  C3    D T1001       4.297  13.166   0.824  1.00 31.96     0.079 A 
HETATM    6  C4    D T1001       5.277  12.564   1.751  1.00 33.68     0.035 A 
HETATM    7  C5    D T1001       6.724  12.769   1.701  1.00 34.90     0.004 A 
HETATM    8  C6    D T1001       7.586  12.142   2.612  1.00 32.93     0.012 A 
HETATM    9  C7    D T1001       7.030  11.274   3.607  1.00 31.88     0.059 A 
HETATM   10  C8    D T1001       5.650  11.037   3.704  1.00 32.37     0.031 A 
HETATM   11  C9    D T1001       4.762  11.668   2.790  1.00 35.42     0.084 A 
ENDROOT
BRANCH   5  12
HETATM   12  N2    D T1001       4.726  13.992  -0.179  1.00 30.60    -0.273 NA
BRANCH  12  13
HETATM   13  C10   D T1001       4.934  13.647  -1.626  1.00 29.84     0.103 C 
HETATM   14  C18   D T1001       5.839  12.430  -1.754  1.00 30.59     0.026 C 
BRANCH  13  15
HETATM   15  C11   D T1001       5.465  14.877  -2.376  1.00 31.56     0.026 C 
BRANCH  15  16
HETATM   16  C12   D T1001       5.677  16.137  -1.557  1.00 32.62     0.037 C 
BRANCH  16  17
HETATM   17  C13   D T1001       4.844  17.270  -2.138  1.00 31.65     0.250 C 
BRANCH  17  18
HETATM   18  N3    D T1001       3.510  17.444  -1.466  1.00 36.76     0.137 N 
BRANCH  18  19
HETATM   19  C14   D T1001       3.265  18.897  -1.001  1.00 36.54     0.250 C 
HETATM   20  C15   D T1001       2.221  19.721  -1.745  1.00 37.02     0.037 C 
ENDBRANCH  18  19
BRANCH  18  21
HETATM   21  C16   D T1001       2.386  16.759  -2.191  1.00 33.74     0.250 C 
HETATM   22  C17   D T1001       1.842  15.544  -1.513  1.00 35.69     0.037 C 
ENDBRANCH  18  21
ENDBRANCH  17  18
ENDBRANCH  16  17
ENDBRANCH  15  16
ENDBRANCH  13  15
ENDBRANCH  12  13
ENDBRANCH   5  12
TORSDOF 8
ENDMDL
MODEL 4
REMARK VINA RESULT:    -6.771      3.830      5.819
REMARK INTER + INTRA:         -10.736
REMARK INTER:                  -9.778
REMARK INTRA:                  -0.958
REMARK UNBOUND:                -0.799
REMARK  8 active torsions:
REMARK  status: ('A' for Active; 'I' for Inactive)
REMARK    1  A    between atoms: C3_5  and  N2_12 
REMARK    2  A    between atoms: N2_12  and  C10_13 
REMARK    3  A    between atoms: C10_13  and  C11_14 
REMARK    4  A    between atoms: C11_14  and  C12_15 
REMARK    5  A    between atoms: C12_15  and  C13_16 
REMARK    6  A    between atoms: C13_16  and  N3_17 
REMARK    7  A    between atoms: N3_17  and  C14_18 
REMARK    8  A    between atoms: N3_17  and  C16_20 
ROOT
HETATM    1 CL     D T1001      -2.457  14.019   0.704  1.00 22.69    -0.082 Cl
HETATM    2  N1    D T1001       2.016  12.373   2.644  1.00 34.43    -0.244 NA
HETATM    3  C1    D T1001       3.318  12.027   2.571  1.00 35.26     0.101 A 
HETATM    4  C2    D T1001       4.014  12.063   1.370  1.00 34.24     0.039 A 
HETATM    5  C3    D T1001       3.359  12.452   0.122  1.00 31.96     0.079 A 
HETATM    6  C4    D T1001       1.930  12.824   0.189  1.00 33.68     0.035 A 
HETATM    7  C5    D T1001       1.115  13.253  -0.947  1.00 34.90     0.004 A 
HETATM    8  C6    D T1001      -0.233  13.606  -0.789  1.00 32.93     0.012 A 
HETATM    9  C7    D T1001      -0.816  13.551   0.519  1.00 31.88     0.059 A 
HETATM   10  C8    D T1001      -0.084  13.148   1.646  1.00 32.37     0.031 A 
HETATM   11  C9    D T1001       1.284  12.784   1.503  1.00 35.42     0.084 A 
ENDROOT
BRANCH   5  12
HETATM   12  N2    D T1001       4.018  12.495  -1.077  1.00 30.60    -0.273 NA
BRANCH  12  13
HETATM   13  C10   D T1001       4.867  13.609  -1.618  1.00 29.84     0.103 C 
HETATM   14  C18   D T1001       6.324  13.399  -1.232  1.00 30.59     0.026 C 
BRANCH  13  15
HETATM   15  C11   D T1001       4.306  14.958  -1.146  1.00 31.56     0.026 C 
BRANCH  15  16
HETATM   16  C12   D T1001       3.854  15.925  -2.225  1.00 32.62     0.037 C 
BRANCH  16  17
HETATM   17  C13   D T1001       2.788  16.854  -1.664  1.00 31.65     0.250 C 
BRANCH  17  18
HETATM   18  N3    D T1001       2.924  18.279  -2.125  1.00 36.76     0.137 N 
BRANCH  18  19
HETATM   19  C14   D T1001       2.114  18.568  -3.409  1.00 36.54     0.250 C 
HETATM   20  C15   D T1001       2.867  19.088  -4.628  1.00 37.02     0.037 C 
ENDBRANCH  18  19
BRANCH  18  21
HETATM   21  C16   D T1001       2.814  19.277  -1.007  1.00 33.74     0.250 C 
HETATM   22  C17   D T1001       1.532  20.043  -0.964  1.00 35.69     0.037 C 
ENDBRANCH  18  21
ENDBRANCH  17  18
ENDBRANCH  16  17
ENDBRANCH  15  16
ENDBRANCH  13  15
ENDBRANCH  12  13
ENDBRANCH   5  12
TORSDOF 8
ENDMDL
MODEL 5
REMARK VINA RESULT:    -6.748      3.158      4.830
REMARK INTER + INTRA:         -10.702
REMARK INTER:                  -9.727
REMARK INTRA:                  -0.975
REMARK UNBOUND:                -0.799
REMARK  8 active torsions:
REMARK  status: ('A' for Active; 'I' for Inactive)
REMARK    1  A    between atoms: C3_5  and  N2_12 
REMARK    2  A    between atoms: N2_12  and  C10_13 
REMARK    3  A    between atoms: C10_13  and  C11_14 
REMARK    4  A    between atoms: C11_14  and  C12_15 
REMARK    5  A    between atoms: C12_15  and  C13_16 
REMARK    6  A    between atoms: C13_16  and  N3_17 
REMARK    7  A    between atoms: N3_17  and  C14_18 
REMARK    8  A    between atoms: N3_17  and  C16_20 
ROOT
HETATM    1 CL     D T1001       4.769  10.526   4.392  1.00 22.69    -0.082 Cl
HETATM    2  N1    D T1001       1.675  12.059   0.575  1.00 34.43    -0.244 NA
HETATM    3  C1    D T1001       1.366  12.781  -0.522  1.00 35.26     0.101 A 
HETATM    4  C2    D T1001       2.263  13.683  -1.077  1.00 34.24     0.039 A 
HETATM    5  C3    D T1001       3.578  13.913  -0.480  1.00 31.96     0.079 A 
HETATM    6  C4    D T1001       3.924  13.136   0.728  1.00 33.68     0.035 A 
HETATM    7  C5    D T1001       5.193  13.218   1.451  1.00 34.90     0.004 A 
HETATM    8  C6    D T1001       5.444  12.428   2.582  1.00 32.93     0.012 A 
HETATM    9  C7    D T1001       4.435  11.514   3.028  1.00 31.88     0.059 A 
HETATM   10  C8    D T1001       3.200  11.390   2.374  1.00 32.37     0.031 A 
HETATM   11  C9    D T1001       2.926  12.186   1.228  1.00 35.42     0.084 A 
ENDROOT
BRANCH   5  12
HETATM   12  N2    D T1001       4.483  14.798  -1.003  1.00 30.60    -0.273 NA
BRANCH  12  13
HETATM   13  C10   D T1001       5.264  14.664  -2.278  1.00 29.84     0.103 C 
HETATM   14  C18   D T1001       6.040  13.354  -2.288  1.00 30.59     0.026 C 
BRANCH  13  15
HETATM   15  C11   D T1001       6.159  15.898  -2.464  1.00 31.56     0.026 C 
BRANCH  15  16
HETATM   16  C12   D T1001       5.471  17.251  -2.438  1.00 32.62     0.037 C 
BRANCH  16  17
HETATM   17  C13   D T1001       4.383  17.290  -3.501  1.00 31.65     0.250 C 
BRANCH  17  18
HETATM   18  N3    D T1001       3.111  17.945  -3.040  1.00 36.76     0.137 N 
BRANCH  18  19
HETATM   19  C14   D T1001       3.156  18.346  -1.549  1.00 36.54     0.250 C 
HETATM   20  C15   D T1001       2.327  19.546  -1.104  1.00 37.02     0.037 C 
ENDBRANCH  18  19
BRANCH  18  21
HETATM   21  C16   D T1001       2.584  18.968  -4.007  1.00 33.74     0.250 C 
HETATM   22  C17   D T1001       3.304  19.033  -5.314  1.00 35.69     0.037 C 
ENDBRANCH  18  21
ENDBRANCH  17  18
ENDBRANCH  16  17
ENDBRANCH  15  16
ENDBRANCH  13  15
ENDBRANCH  12  13
ENDBRANCH   5  12
TORSDOF 8
ENDMDL
MODEL 6
REMARK VINA RESULT:    -6.747      1.821      3.590
REMARK INTER + INTRA:         -10.701
REMARK INTER:                  -9.434
REMARK INTRA:                  -1.266
REMARK UNBOUND:                -0.799
REMARK  8 active torsions:
REMARK  status: ('A' for Active; 'I' for Inactive)
REMARK    1  A    between atoms: C3_5  and  N2_12 
REMARK    2  A    between atoms: N2_12  and  C10_13 
REMARK    3  A    between atoms: C10_13  and  C11_14 
REMARK    4  A    between atoms: C11_14  and  C12_15 
REMARK    5  A    between atoms: C12_15  and  C13_16 
REMARK    6  A    between atoms: C13_16  and  N3_17 
REMARK    7  A    between atoms: N3_17  and  C14_18 
REMARK    8  A    between atoms: N3_17  and  C16_20 
ROOT
HETATM    1 CL     D T1001       8.363  10.418   4.617  1.00 22.69    -0.082 Cl
HETATM    2  N1    D T1001       3.342   9.782   3.682  1.00 34.43    -0.244 NA
HETATM    3  C1    D T1001       2.165  10.098   3.103  1.00 35.26     0.101 A 
HETATM    4  C2    D T1001       2.042  11.186   2.250  1.00 34.24     0.039 A 
HETATM    5  C3    D T1001       3.179  12.059   1.961  1.00 31.96     0.079 A 
HETATM    6  C4    D T1001       4.471  11.729   2.597  1.00 33.68     0.035 A 
HETATM    7  C5    D T1001       5.717  12.473   2.416  1.00 34.90     0.004 A 
HETATM    8  C6    D T1001       6.905  12.078   3.046  1.00 32.93     0.012 A 
HETATM    9  C7    D T1001       6.893  10.912   3.879  1.00 31.88     0.059 A 
HETATM   10  C8    D T1001       5.729  10.157   4.090  1.00 32.37     0.031 A 
HETATM   11  C9    D T1001       4.514  10.546   3.461  1.00 35.42     0.084 A 
ENDROOT
BRANCH   5  12
HETATM   12  N2    D T1001       3.087  13.141   1.126  1.00 30.60    -0.273 NA
BRANCH  12  13
HETATM   13  C10   D T1001       1.887  13.601   0.349  1.00 29.84     0.103 C 
HETATM   14  C18   D T1001       1.526  12.578  -0.720  1.00 30.59     0.026 C 
BRANCH  13  15
HETATM   15  C11   D T1001       2.150  15.002  -0.220  1.00 31.56     0.026 C 
BRANCH  15  16
HETATM   16  C12   D T1001       2.158  15.134  -1.732  1.00 32.62     0.037 C 
BRANCH  16  17
HETATM   17  C13   D T1001       3.555  15.511  -2.204  1.00 31.65     0.250 C 
BRANCH  17  18
HETATM   18  N3    D T1001       4.651  14.742  -1.521  1.00 36.76     0.137 N 
BRANCH  18  19
HETATM   19  C14   D T1001       4.967  13.404  -2.226  1.00 36.54     0.250 C 
HETATM   20  C15   D T1001       5.432  12.233  -1.367  1.00 37.02     0.037 C 
ENDBRANCH  18  19
BRANCH  18  21
HETATM   21  C16   D T1001       5.820  15.599  -1.123  1.00 33.74     0.250 C 
HETATM   22  C17   D T1001       6.269  15.441   0.293  1.00 35.69     0.037 C 
ENDBRANCH  18  21
ENDBRANCH  17  18
ENDBRANCH  16  17
ENDBRANCH  15  16
ENDBRANCH  13  15
ENDBRANCH  12  13
ENDBRANCH   5  12
TORSDOF 8
ENDMDL
MODEL 7
REMARK VINA RESULT:    -6.627      1.892      3.173
REMARK INTER + INTRA:         -10.525
REMARK INTER:                  -9.585
REMARK INTRA:                  -0.940
REMARK UNBOUND:                -0.799
REMARK  8 active torsions:
REMARK  status: ('A' for Active; 'I' for Inactive)
REMARK    1  A    between atoms: C3_5  and  N2_12 
REMARK    2  A    between atoms: N2_12  and  C10_13 
REMARK    3  A    between atoms: C10_13  and  C11_14 
REMARK    4  A    between atoms: C11_14  and  C12_15 
REMARK    5  A    between atoms: C12_15  and  C13_16 
REMARK    6  A    between atoms: C13_16  and  N3_17 
REMARK    7  A    between atoms: N3_17  and  C14_18 
REMARK    8  A    between atoms: N3_17  and  C16_20 
ROOT
HETATM    1 CL     D T1001       7.459  10.595   4.418  1.00 22.69    -0.082 Cl
HETATM    2  N1    D T1001       8.344  14.094   0.748  1.00 34.43    -0.244 NA
HETATM    3  C1    D T1001       7.975  14.958  -0.219  1.00 35.26     0.101 A 
HETATM    4  C2    D T1001       6.644  15.132  -0.572  1.00 34.24     0.039 A 
HETATM    5  C3    D T1001       5.579  14.364   0.072  1.00 31.96     0.079 A 
HETATM    6  C4    D T1001       5.972  13.406   1.126  1.00 33.68     0.035 A 
HETATM    7  C5    D T1001       5.051  12.565   1.890  1.00 34.90     0.004 A 
HETATM    8  C6    D T1001       5.510  11.694   2.888  1.00 32.93     0.012 A 
HETATM    9  C7    D T1001       6.914  11.639   3.169  1.00 31.88     0.059 A 
HETATM   10  C8    D T1001       7.845  12.423   2.471  1.00 32.37     0.031 A 
HETATM   11  C9    D T1001       7.397  13.309   1.452  1.00 35.42     0.084 A 
ENDROOT
BRANCH   5  12
HETATM   12  N2    D T1001       4.258  14.512  -0.256  1.00 30.60    -0.273 NA
BRANCH  12  13
HETATM   13  C10   D T1001       3.654  14.555  -1.630  1.00 29.84     0.103 C 
HETATM   14  C18   D T1001       2.972  15.897  -1.865  1.00 30.59     0.026 C 
BRANCH  13  15
HETATM   15  C11   D T1001       2.710  13.358  -1.814  1.00 31.56     0.026 C 
BRANCH  15  16
HETATM   16  C12   D T1001       2.009  12.844  -0.569  1.00 32.62     0.037 C 
BRANCH  16  17
HETATM   17  C13   D T1001       0.508  13.053  -0.706  1.00 31.65     0.250 C 
BRANCH  17  18
HETATM   18  N3    D T1001      -0.148  13.564   0.546  1.00 36.76     0.137 N 
BRANCH  18  19
HETATM   19  C14   D T1001      -1.690  13.514   0.471  1.00 36.54     0.250 C 
HETATM   20  C15   D T1001      -2.329  13.010  -0.818  1.00 37.02     0.037 C 
ENDBRANCH  18  19
BRANCH  18  21
HETATM   21  C16   D T1001       0.493  13.050   1.805  1.00 33.74     0.250 C 
HETATM   22  C17   D T1001       0.364  13.946   2.993  1.00 35.69     0.037 C 
ENDBRANCH  18  21
ENDBRANCH  17  18
ENDBRANCH  16  17
ENDBRANCH  15  16
ENDBRANCH  13  15
ENDBRANCH  12  13
ENDBRANCH   5  12
TORSDOF 8
ENDMDL
MODEL 8
REMARK VINA RESULT:    -6.599      2.039      4.385
REMARK INTER + INTRA:         -10.484
REMARK INTER:                  -9.471
REMARK INTRA:                  -1.013
REMARK UNBOUND:                -0.799
REMARK  8 active torsions:
REMARK  status: ('A' for Active; 'I' for Inactive)
REMARK    1  A    between atoms: C3_5  and  N2_12 
REMARK    2  A    between atoms: N2_12  and  C10_13 
REMARK    3  A    between atoms: C10_13  and  C11_14 
REMARK    4  A    between atoms: C11_14  and  C12_15 
REMARK    5  A    between atoms: C12_15  and  C13_16 
REMARK    6  A    between atoms: C13_16  and  N3_17 
REMARK    7  A    between atoms: N3_17  and  C14_18 
REMARK    8  A    between atoms: N3_17  and  C16_20 
ROOT
HETATM    1 CL     D T1001       8.333  10.336   4.714  1.00 22.69    -0.082 Cl
HETATM    2  N1    D T1001       3.337   9.798   3.603  1.00 34.43    -0.244 NA
HETATM    3  C1    D T1001       2.184  10.143   2.993  1.00 35.26     0.101 A 
HETATM    4  C2    D T1001       2.105  11.251   2.160  1.00 34.24     0.039 A 
HETATM    5  C3    D T1001       3.264  12.112   1.927  1.00 31.96     0.079 A 
HETATM    6  C4    D T1001       4.529  11.749   2.598  1.00 33.68     0.035 A 
HETATM    7  C5    D T1001       5.791  12.478   2.473  1.00 34.90     0.004 A 
HETATM    8  C6    D T1001       6.952  12.051   3.133  1.00 32.93     0.012 A 
HETATM    9  C7    D T1001       6.896  10.868   3.939  1.00 31.88     0.059 A 
HETATM   10  C8    D T1001       5.715  10.127   4.096  1.00 32.37     0.031 A 
HETATM   11  C9    D T1001       4.527  10.548   3.436  1.00 35.42     0.084 A 
ENDROOT
BRANCH   5  12
HETATM   12  N2    D T1001       3.215  13.213   1.113  1.00 30.60    -0.273 NA
BRANCH  12  13
HETATM   13  C10   D T1001       3.398  13.260  -0.377  1.00 29.84     0.103 C 
HETATM   14  C18   D T1001       2.054  13.120  -1.078  1.00 30.59     0.026 C 
BRANCH  13  15
HETATM   15  C11   D T1001       4.416  12.193  -0.804  1.00 31.56     0.026 C 
BRANCH  15  16
HETATM   16  C12   D T1001       5.731  12.694  -1.373  1.00 32.62     0.037 C 
BRANCH  16  17
HETATM   17  C13   D T1001       5.780  14.212  -1.285  1.00 31.65     0.250 C 
BRANCH  17  18
HETATM   18  N3    D T1001       5.645  14.899  -2.616  1.00 36.76     0.137 N 
BRANCH  18  19
HETATM   19  C14   D T1001       4.636  16.068  -2.581  1.00 36.54     0.250 C 
HETATM   20  C15   D T1001       4.917  17.229  -1.634  1.00 37.02     0.037 C 
ENDBRANCH  18  19
BRANCH  18  21
HETATM   21  C16   D T1001       6.964  15.153  -3.289  1.00 33.74     0.250 C 
HETATM   22  C17   D T1001       7.257  14.276  -4.462  1.00 35.69     0.037 C 
ENDBRANCH  18  21
ENDBRANCH  17  18
ENDBRANCH  16  17
ENDBRANCH  15  16
ENDBRANCH  13  15
ENDBRANCH  12  13
ENDBRANCH   5  12
TORSDOF 8
ENDMDL
MODEL 9
REMARK VINA RESULT:    -6.453      3.821      5.919
REMARK INTER + INTRA:         -10.270
REMARK INTER:                  -9.149
REMARK INTRA:                  -1.121
REMARK UNBOUND:                -0.799
REMARK  8 active torsions:
REMARK  status: ('A' for Active; 'I' for Inactive)
REMARK    1  A    between atoms: C3_5  and  N2_12 
REMARK    2  A    between atoms: N2_12  and  C10_13 
REMARK    3  A    between atoms: C10_13  and  C11_14 
REMARK    4  A    between atoms: C11_14  and  C12_15 
REMARK    5  A    between atoms: C12_15  and  C13_16 
REMARK    6  A    between atoms: C13_16  and  N3_17 
REMARK    7  A    between atoms: N3_17  and  C14_18 
REMARK    8  A    between atoms: N3_17  and  C16_20 
ROOT
HETATM    1 CL     D T1001      -1.438  13.536   0.466  1.00 22.69    -0.082 Cl
HETATM    2  N1    D T1001       3.280  12.325   2.129  1.00 34.43    -0.244 NA
HETATM    3  C1    D T1001       4.624  12.260   2.028  1.00 35.26     0.101 A 
HETATM    4  C2    D T1001       5.293  12.730   0.906  1.00 34.24     0.039 A 
HETATM    5  C3    D T1001       4.568  13.292  -0.232  1.00 31.96     0.079 A 
HETATM    6  C4    D T1001       3.095  13.359  -0.138  1.00 33.68     0.035 A 
HETATM    7  C5    D T1001       2.206  13.901  -1.165  1.00 34.90     0.004 A 
HETATM    8  C6    D T1001       0.816  13.941  -0.984  1.00 32.93     0.012 A 
HETATM    9  C7    D T1001       0.262  13.448   0.242  1.00 31.88     0.059 A 
HETATM   10  C8    D T1001       1.065  12.917   1.264  1.00 32.37     0.031 A 
HETATM   11  C9    D T1001       2.476  12.866   1.095  1.00 35.42     0.084 A 
ENDROOT
BRANCH   5  12
HETATM   12  N2    D T1001       5.201  13.761  -1.353  1.00 30.60    -0.273 NA
BRANCH  12  13
HETATM   13  C10   D T1001       6.154  14.917  -1.452  1.00 29.84     0.103 C 
HETATM   14  C18   D T1001       5.916  15.898  -0.312  1.00 30.59     0.026 C 
BRANCH  13  15
HETATM   15  C11   D T1001       6.035  15.564  -2.840  1.00 31.56     0.026 C 
BRANCH  15  16
HETATM   16  C12   D T1001       4.631  15.853  -3.339  1.00 32.62     0.037 C 
BRANCH  16  17
HETATM   17  C13   D T1001       4.359  17.348  -3.261  1.00 31.65     0.250 C 
BRANCH  17  18
HETATM   18  N3    D T1001       2.909  17.689  -3.054  1.00 36.76     0.137 N 
BRANCH  18  19
HETATM   19  C14   D T1001       2.545  17.854  -1.562  1.00 36.54     0.250 C 
HETATM   20  C15   D T1001       3.246  18.953  -0.771  1.00 37.02     0.037 C 
ENDBRANCH  18  19
BRANCH  18  21
HETATM   21  C16   D T1001       2.405  18.739  -4.003  1.00 33.74     0.250 C 
HETATM   22  C17   D T1001       3.248  18.956  -5.216  1.00 35.69     0.037 C 
ENDBRANCH  18  21
ENDBRANCH  17  18
ENDBRANCH  16  17
ENDBRANCH  15  16
ENDBRANCH  13  15
ENDBRANCH  12  13
ENDBRANCH   5  12
TORSDOF 8
ENDMDL
