MODEL 1
REMARK VINA RESULT:   -11.722      0.000      0.000
REMARK INTER + INTRA:         -13.421
REMARK INTER:                 -13.093
REMARK INTRA:                  -0.328
REMARK UNBOUND:                -0.328
REMARK  2 active torsions:
REMARK  status: ('A' for Active; 'I' for Inactive)
REMARK    1  A    between atoms: CBF_31  and  CBG_32 
REMARK    2  A    between atoms: CBG_32  and  NBH_33 
ROOT
HETATM    1  CBD   D T1374       4.542  13.740  -2.689  1.00 18.24     0.056 C 
HETATM    2  CBB   D T1374       3.180  13.199  -2.328  1.00 13.77     0.109 C 
HETATM    3  NAW   D T1374       2.861  13.018  -0.902  1.00 11.00    -0.326 N 
HETATM    4  CAV   D T1374       3.684  12.383   0.007  1.00  9.70     0.076 A 
HETATM    5  CAX   D T1374       1.694  13.186  -0.316  1.00 10.89     0.060 A 
HETATM    6  CAY   D T1374       0.483  13.708  -0.812  1.00 13.31     0.017 A 
HETATM    7  CAZ   D T1374      -0.629  13.800   0.054  1.00 12.88     0.002 A 
HETATM    8  CAP   D T1374      -0.569  13.413   1.395  1.00 12.85     0.000 A 
HETATM    9  CAO   D T1374       0.643  12.872   1.891  1.00 12.21     0.002 A 
HETATM   10  CAN   D T1374       1.774  12.753   1.016  1.00 11.16     0.017 A 
HETATM   11  CAM   D T1374       3.074  12.292   1.221  1.00 10.47     0.023 A 
HETATM   12  CAH   D T1374       3.690  11.591   2.325  1.00 11.61     0.064 A 
HETATM   13  CAE   D T1374       3.029  10.579   3.095  1.00 11.67     0.282 A 
HETATM   14  OAF   D T1374       1.834  10.224   3.018  1.00 12.38    -0.265 OA
HETATM   15  NAD   D T1374       3.887  10.008   3.987  1.00 11.58    -0.169 NA
HETATM   16  CAC   D T1374       5.064  10.574   3.809  1.00 11.36     0.282 A 
HETATM   17  OAB   D T1374       6.074  10.219   4.435  1.00 13.28    -0.265 OA
HETATM   18  CAG   D T1374       5.038  11.592   2.812  1.00 10.54     0.064 A 
HETATM   19  CAL   D T1374       6.114  12.388   2.298  1.00 12.92     0.023 A 
HETATM   20  CAU   D T1374       5.914  13.618   1.751  1.00 12.44     0.076 A 
HETATM   21  CAK   D T1374       7.497  12.120   2.141  1.00 12.61     0.017 A 
HETATM   22  CAJ   D T1374       8.338  11.017   2.492  1.00 13.95     0.002 A 
HETATM   23  CAI   D T1374       9.695  11.090   2.156  1.00 15.63     0.000 A 
HETATM   24  CAQ   D T1374      10.240  12.201   1.492  1.00 14.37     0.002 A 
HETATM   25  CAR   D T1374       9.416  13.272   1.142  1.00 13.26     0.017 A 
HETATM   26  CAS   D T1374       8.046  13.216   1.471  1.00 11.92     0.060 A 
HETATM   27  NAT   D T1374       7.072  14.103   1.256  1.00 12.89    -0.324 N 
HETATM   28  CBA   D T1374       7.131  15.410   0.544  1.00 13.69     0.138 C 
HETATM   29  CBC   D T1374       6.780  15.109  -0.921  1.00 16.12     0.167 C 
HETATM   30  OBE   D T1374       5.333  15.191  -0.940  1.00 16.41    -0.352 OA
HETATM   31  CBF   D T1374       4.725  15.191  -2.240  1.00 19.48     0.151 C 
ENDROOT
BRANCH  31  32
HETATM   32  CBG   D T1374       3.394  15.930  -1.959  1.00 23.41     0.280 C 
BRANCH  32  33
HETATM   33  NBH   D T1374       3.201  17.157  -2.801  1.00 26.24     0.144 N 
HETATM   34  CBI   D T1374       3.006  18.327  -1.928  1.00 27.90     0.286 C 
HETATM   35  CBJ   D T1374       4.432  17.491  -3.567  1.00 27.31     0.286 C 
ENDBRANCH  32  33
ENDBRANCH  31  32
TORSDOF 2
ENDMDL
MODEL 2
REMARK VINA RESULT:   -10.102      1.349      5.972
REMARK INTER + INTRA:         -11.611
REMARK INTER:                 -11.288
REMARK INTRA:                  -0.323
REMARK UNBOUND:                -0.328
REMARK  2 active torsions:
REMARK  status: ('A' for Active; 'I' for Inactive)
REMARK    1  A    between atoms: CBF_31  and  CBG_32 
REMARK    2  A    between atoms: CBG_32  and  NBH_33 
ROOT
HETATM    1  CBD   D T1374       6.254  16.359  -0.458  1.00 18.24     0.056 C 
HETATM    2  CBB   D T1374       7.329  15.809   0.447  1.00 13.77     0.109 C 
HETATM    3  NAW   D T1374       7.231  14.400   0.863  1.00 11.00    -0.326 N 
HETATM    4  CAV   D T1374       6.087  13.813   1.367  1.00  9.70     0.076 A 
HETATM    5  CAX   D T1374       8.220  13.554   1.064  1.00 10.89     0.060 A 
HETATM    6  CAY   D T1374       9.601  13.680   0.813  1.00 13.31     0.017 A 
HETATM    7  CAZ   D T1374      10.452  12.590   1.104  1.00 12.88     0.002 A 
HETATM    8  CAP   D T1374       9.972  11.380   1.612  1.00 12.85     0.000 A 
HETATM    9  CAO   D T1374       8.587  11.258   1.881  1.00 12.21     0.002 A 
HETATM   10  CAN   D T1374       7.714  12.366   1.610  1.00 11.16     0.017 A 
HETATM   11  CAM   D T1374       6.336  12.529   1.746  1.00 10.47     0.023 A 
HETATM   12  CAH   D T1374       5.325  11.721   2.388  1.00 11.61     0.064 A 
HETATM   13  CAE   D T1374       5.532  11.009   3.615  1.00 11.67     0.282 A 
HETATM   14  OAF   D T1374       6.600  10.885   4.250  1.00 12.38    -0.265 OA
HETATM   15  NAD   D T1374       4.374  10.436   4.046  1.00 11.58    -0.169 NA
HETATM   16  CAC   D T1374       3.433  10.765   3.184  1.00 11.36     0.282 A 
HETATM   17  OAB   D T1374       2.246  10.443   3.340  1.00 13.28    -0.265 OA
HETATM   18  CAG   D T1374       3.932  11.545   2.100  1.00 10.54     0.064 A 
HETATM   19  CAL   D T1374       3.221  12.138   1.005  1.00 12.92     0.023 A 
HETATM   20  CAU   D T1374       3.816  12.411  -0.188  1.00 12.44     0.076 A 
HETATM   21  CAK   D T1374       1.898  12.634   0.894  1.00 12.61     0.017 A 
HETATM   22  CAJ   D T1374       0.775  12.667   1.780  1.00 13.95     0.002 A 
HETATM   23  CAI   D T1374      -0.403  13.272   1.328  1.00 15.63     0.000 A 
HETATM   24  CAQ   D T1374      -0.507  13.840   0.048  1.00 14.37     0.002 A 
HETATM   25  CAR   D T1374       0.593  13.815  -0.811  1.00 13.26     0.017 A 
HETATM   26  CAS   D T1374       1.790  13.211  -0.374  1.00 11.92     0.060 A 
HETATM   27  NAT   D T1374       2.956  13.056  -1.003  1.00 12.89    -0.324 N 
HETATM   28  CBA   D T1374       3.366  13.530  -2.355  1.00 13.69     0.138 C 
HETATM   29  CBC   D T1374       4.000  14.913  -2.141  1.00 16.12     0.167 C 
HETATM   30  OBE   D T1374       5.386  14.604  -1.855  1.00 16.41    -0.352 OA
HETATM   31  CBF   D T1374       6.287  15.721  -1.848  1.00 19.48     0.151 C 
ENDROOT
BRANCH  31  32
HETATM   32  CBG   D T1374       7.632  15.036  -2.189  1.00 23.41     0.280 C 
BRANCH  32  33
HETATM   33  NBH   D T1374       8.108  15.313  -3.585  1.00 26.24     0.144 N 
HETATM   34  CBI   D T1374       7.533  14.318  -4.507  1.00 27.90     0.286 C 
HETATM   35  CBJ   D T1374       7.583  16.608  -4.093  1.00 27.31     0.286 C 
ENDBRANCH  32  33
ENDBRANCH  31  32
TORSDOF 2
ENDMDL
MODEL 3
REMARK VINA RESULT:    -9.932      1.296      1.686
REMARK INTER + INTRA:         -11.421
REMARK INTER:                 -11.092
REMARK INTRA:                  -0.329
REMARK UNBOUND:                -0.328
REMARK  2 active torsions:
REMARK  status: ('A' for Active; 'I' for Inactive)
REMARK    1  A    between atoms: CBF_31  and  CBG_32 
REMARK    2  A    between atoms: CBG_32  and  NBH_33 
ROOT
HETATM    1  CBD   D T1374       5.730  13.505  -3.130  1.00 18.24     0.056 C 
HETATM    2  CBB   D T1374       4.467  12.879  -2.592  1.00 13.77     0.109 C 
HETATM    3  NAW   D T1374       4.262  12.873  -1.134  1.00 11.00    -0.326 N 
HETATM    4  CAV   D T1374       5.211  12.469  -0.215  1.00  9.70     0.076 A 
HETATM    5  CAX   D T1374       3.123  12.997  -0.485  1.00 10.89     0.060 A 
HETATM    6  CAY   D T1374       1.830  13.308  -0.951  1.00 13.31     0.017 A 
HETATM    7  CAZ   D T1374       0.772  13.405  -0.020  1.00 12.88     0.002 A 
HETATM    8  CAP   D T1374       0.963  13.225   1.353  1.00 12.85     0.000 A 
HETATM    9  CAO   D T1374       2.259  12.895   1.820  1.00 12.21     0.002 A 
HETATM   10  CAN   D T1374       3.338  12.773   0.883  1.00 11.16     0.017 A 
HETATM   11  CAM   D T1374       4.694  12.489   1.045  1.00 10.47     0.023 A 
HETATM   12  CAH   D T1374       5.456  12.026   2.181  1.00 11.61     0.064 A 
HETATM   13  CAE   D T1374       4.970  11.071   3.133  1.00 11.67     0.282 A 
HETATM   14  OAF   D T1374       3.822  10.581   3.200  1.00 12.38    -0.265 OA
HETATM   15  NAD   D T1374       5.944  10.731   4.023  1.00 11.58    -0.169 NA
HETATM   16  CAC   D T1374       7.032  11.388   3.678  1.00 11.36     0.282 A 
HETATM   17  OAB   D T1374       8.114  11.238   4.264  1.00 13.28    -0.265 OA
HETATM   18  CAG   D T1374       6.823  12.243   2.555  1.00 10.54     0.064 A 
HETATM   19  CAL   D T1374       7.763  13.067   1.854  1.00 12.92     0.023 A 
HETATM   20  CAU   D T1374       7.386  14.176   1.162  1.00 12.44     0.076 A 
HETATM   21  CAK   D T1374       9.155  12.930   1.626  1.00 12.61     0.017 A 
HETATM   22  CAJ   D T1374      10.141  11.986   2.056  1.00 13.95     0.002 A 
HETATM   23  CAI   D T1374      11.455  12.156   1.607  1.00 15.63     0.000 A 
HETATM   24  CAQ   D T1374      11.824  13.210   0.756  1.00 14.37     0.002 A 
HETATM   25  CAR   D T1374      10.858  14.124   0.330  1.00 13.26     0.017 A 
HETATM   26  CAS   D T1374       9.527  13.970   0.770  1.00 11.92     0.060 A 
HETATM   27  NAT   D T1374       8.444  14.706   0.514  1.00 12.89    -0.324 N 
HETATM   28  CBA   D T1374       8.304  15.895  -0.372  1.00 13.69     0.138 C 
HETATM   29  CBC   D T1374       7.899  15.349  -1.749  1.00 16.12     0.167 C 
HETATM   30  OBE   D T1374       6.454  15.271  -1.664  1.00 16.41    -0.352 OA
HETATM   31  CBF   D T1374       5.769  15.017  -2.900  1.00 19.48     0.151 C 
ENDROOT
BRANCH  31  32
HETATM   32  CBG   D T1374       4.381  15.641  -2.617  1.00 23.41     0.280 C 
BRANCH  32  33
HETATM   33  NBH   D T1374       4.153  16.942  -3.332  1.00 26.24     0.144 N 
HETATM   34  CBI   D T1374       4.095  18.039  -2.351  1.00 27.90     0.286 C 
HETATM   35  CBJ   D T1374       5.310  17.300  -4.194  1.00 27.31     0.286 C 
ENDBRANCH  32  33
ENDBRANCH  31  32
TORSDOF 2
ENDMDL
MODEL 4
REMARK VINA RESULT:    -9.650      2.390      6.454
REMARK INTER + INTRA:         -11.106
REMARK INTER:                 -10.803
REMARK INTRA:                  -0.303
REMARK UNBOUND:                -0.328
REMARK  2 active torsions:
REMARK  status: ('A' for Active; 'I' for Inactive)
REMARK    1  A    between atoms: CBF_31  and  CBG_32 
REMARK    2  A    between atoms: CBG_32  and  NBH_33 
ROOT
HETATM    1  CBD   D T1374       7.271  16.685  -1.484  1.00 18.24     0.056 C 
HETATM    2  CBB   D T1374       8.523  16.540  -0.655  1.00 13.77     0.109 C 
HETATM    3  NAW   D T1374       8.798  15.232  -0.037  1.00 11.00    -0.326 N 
HETATM    4  CAV   D T1374       7.875  14.501   0.686  1.00  9.70     0.076 A 
HETATM    5  CAX   D T1374       9.973  14.668   0.154  1.00 10.89     0.060 A 
HETATM    6  CAY   D T1374      11.257  15.049  -0.285  1.00 13.31     0.017 A 
HETATM    7  CAZ   D T1374      12.362  14.234   0.045  1.00 12.88     0.002 A 
HETATM    8  CAP   D T1374      12.230  13.050   0.775  1.00 12.85     0.000 A 
HETATM    9  CAO   D T1374      10.942  12.675   1.231  1.00 12.21     0.002 A 
HETATM   10  CAN   D T1374       9.813  13.504   0.920  1.00 11.16     0.017 A 
HETATM   11  CAM   D T1374       8.453  13.383   1.206  1.00 10.47     0.023 A 
HETATM   12  CAH   D T1374       7.724  12.492   2.077  1.00 11.61     0.064 A 
HETATM   13  CAE   D T1374       8.203  12.054   3.356  1.00 11.67     0.282 A 
HETATM   14  OAF   D T1374       9.324  12.273   3.862  1.00 12.38    -0.265 OA
HETATM   15  NAD   D T1374       7.257  11.322   4.006  1.00 11.58    -0.169 NA
HETATM   16  CAC   D T1374       6.191  11.291   3.233  1.00 11.36     0.282 A 
HETATM   17  OAB   D T1374       5.132  10.748   3.582  1.00 13.28    -0.265 OA
HETATM   18  CAG   D T1374       6.391  11.971   1.996  1.00 10.54     0.064 A 
HETATM   19  CAL   D T1374       5.464  12.204   0.928  1.00 12.92     0.023 A 
HETATM   20  CAU   D T1374       5.866  12.400  -0.357  1.00 12.44     0.076 A 
HETATM   21  CAK   D T1374       4.057  12.374   0.917  1.00 12.61     0.017 A 
HETATM   22  CAJ   D T1374       3.043  12.308   1.925  1.00 13.95     0.002 A 
HETATM   23  CAI   D T1374       1.719  12.557   1.545  1.00 15.63     0.000 A 
HETATM   24  CAQ   D T1374       1.368  12.869   0.222  1.00 14.37     0.002 A 
HETATM   25  CAR   D T1374       2.360  12.944  -0.758  1.00 13.26     0.017 A 
HETATM   26  CAS   D T1374       3.700  12.697  -0.395  1.00 11.92     0.060 A 
HETATM   27  NAT   D T1374       4.808  12.697  -1.139  1.00 12.89    -0.324 N 
HETATM   28  CBA   D T1374       4.969  13.020  -2.585  1.00 13.69     0.138 C 
HETATM   29  CBC   D T1374       5.276  14.524  -2.649  1.00 16.12     0.167 C 
HETATM   30  OBE   D T1374       6.717  14.576  -2.500  1.00 16.41    -0.352 OA
HETATM   31  CBF   D T1374       7.326  15.849  -2.764  1.00 19.48     0.151 C 
ENDROOT
BRANCH  31  32
HETATM   32  CBG   D T1374       8.758  15.427  -3.173  1.00 23.41     0.280 C 
BRANCH  32  33
HETATM   33  NBH   D T1374       8.865  14.979  -4.602  1.00 26.24     0.144 N 
HETATM   34  CBI   D T1374       8.157  15.934  -5.471  1.00 27.90     0.286 C 
HETATM   35  CBJ   D T1374      10.269  15.034  -5.086  1.00 27.31     0.286 C 
ENDBRANCH  32  33
ENDBRANCH  31  32
TORSDOF 2
ENDMDL
MODEL 5
REMARK VINA RESULT:    -9.149      2.001      4.859
REMARK INTER + INTRA:         -10.546
REMARK INTER:                 -10.222
REMARK INTRA:                  -0.325
REMARK UNBOUND:                -0.328
REMARK  2 active torsions:
REMARK  status: ('A' for Active; 'I' for Inactive)
REMARK    1  A    between atoms: CBF_31  and  CBG_32 
REMARK    2  A    between atoms: CBG_32  and  NBH_33 
ROOT
HETATM    1  CBD   D T1374       7.092  12.865  -1.839  1.00 18.24     0.056 C 
HETATM    2  CBB   D T1374       6.138  13.580  -2.764  1.00 13.77     0.109 C 
HETATM    3  NAW   D T1374       4.932  14.192  -2.179  1.00 11.00    -0.326 N 
HETATM    4  CAV   D T1374       4.077  13.549  -1.306  1.00  9.70     0.076 A 
HETATM    5  CAX   D T1374       4.337  15.305  -2.555  1.00 10.89     0.060 A 
HETATM    6  CAY   D T1374       4.730  16.287  -3.486  1.00 13.31     0.017 A 
HETATM    7  CAZ   D T1374       3.902  17.415  -3.681  1.00 12.88     0.002 A 
HETATM    8  CAP   D T1374       2.715  17.605  -2.969  1.00 12.85     0.000 A 
HETATM    9  CAO   D T1374       2.310  16.610  -2.046  1.00 12.21     0.002 A 
HETATM   10  CAN   D T1374       3.132  15.449  -1.853  1.00 11.16     0.017 A 
HETATM   11  CAM   D T1374       3.007  14.341  -1.016  1.00 10.47     0.023 A 
HETATM   12  CAH   D T1374       1.919  13.868  -0.192  1.00 11.61     0.064 A 
HETATM   13  CAE   D T1374       0.539  13.949  -0.569  1.00 11.67     0.282 A 
HETATM   14  OAF   D T1374       0.058  14.511  -1.576  1.00 12.38    -0.265 OA
HETATM   15  NAD   D T1374      -0.253  13.318   0.342  1.00 11.58    -0.169 NA
HETATM   16  CAC   D T1374       0.542  12.812   1.262  1.00 11.36     0.282 A 
HETATM   17  OAB   D T1374       0.119  12.119   2.200  1.00 13.28    -0.265 OA
HETATM   18  CAG   D T1374       1.915  13.122   1.032  1.00 10.54     0.064 A 
HETATM   19  CAL   D T1374       3.075  12.711   1.767  1.00 12.92     0.023 A 
HETATM   20  CAU   D T1374       4.226  13.435   1.777  1.00 12.44     0.076 A 
HETATM   21  CAK   D T1374       3.354  11.540   2.515  1.00 12.61     0.017 A 
HETATM   22  CAJ   D T1374       2.586  10.387   2.875  1.00 13.95     0.002 A 
HETATM   23  CAI   D T1374       3.212   9.388   3.628  1.00 15.63     0.000 A 
HETATM   24  CAQ   D T1374       4.554   9.485   4.031  1.00 14.37     0.002 A 
HETATM   25  CAR   D T1374       5.304  10.606   3.670  1.00 13.26     0.017 A 
HETATM   26  CAS   D T1374       4.692  11.624   2.909  1.00 11.92     0.060 A 
HETATM   27  NAT   D T1374       5.188  12.777   2.457  1.00 12.89    -0.324 N 
HETATM   28  CBA   D T1374       6.572  13.316   2.574  1.00 13.69     0.138 C 
HETATM   29  CBC   D T1374       7.316  12.841   1.317  1.00 16.12     0.167 C 
HETATM   30  OBE   D T1374       7.021  13.874   0.344  1.00 16.41    -0.352 OA
HETATM   31  CBF   D T1374       7.785  13.826  -0.870  1.00 19.48     0.151 C 
ENDROOT
BRANCH  31  32
HETATM   32  CBG   D T1374       7.743  15.306  -1.321  1.00 23.41     0.280 C 
BRANCH  32  33
HETATM   33  NBH   D T1374       9.012  15.768  -1.976  1.00 26.24     0.144 N 
HETATM   34  CBI   D T1374       8.699  16.372  -3.283  1.00 27.90     0.286 C 
HETATM   35  CBJ   D T1374       9.644  16.879  -1.216  1.00 27.31     0.286 C 
ENDBRANCH  32  33
ENDBRANCH  31  32
TORSDOF 2
ENDMDL
MODEL 6
REMARK VINA RESULT:    -8.958      2.481      4.180
REMARK INTER + INTRA:         -10.333
REMARK INTER:                 -10.047
REMARK INTRA:                  -0.286
REMARK UNBOUND:                -0.328
REMARK  2 active torsions:
REMARK  status: ('A' for Active; 'I' for Inactive)
REMARK    1  A    between atoms: CBF_31  and  CBG_32 
REMARK    2  A    between atoms: CBG_32  and  NBH_33 
ROOT
HETATM    1  CBD   D T1374       6.352  13.647  -2.874  1.00 18.24     0.056 C 
HETATM    2  CBB   D T1374       5.589  12.674  -2.009  1.00 13.77     0.109 C 
HETATM    3  NAW   D T1374       5.962  12.569  -0.588  1.00 11.00    -0.326 N 
HETATM    4  CAV   D T1374       7.257  12.423  -0.130  1.00  9.70     0.076 A 
HETATM    5  CAX   D T1374       5.162  12.347   0.435  1.00 10.89     0.060 A 
HETATM    6  CAY   D T1374       3.756  12.293   0.507  1.00 13.31     0.017 A 
HETATM    7  CAZ   D T1374       3.144  12.060   1.759  1.00 12.88     0.002 A 
HETATM    8  CAP   D T1374       3.880  11.902   2.935  1.00 12.85     0.000 A 
HETATM    9  CAO   D T1374       5.294  11.939   2.862  1.00 12.21     0.002 A 
HETATM   10  CAN   D T1374       5.930  12.154   1.593  1.00 11.16     0.017 A 
HETATM   11  CAM   D T1374       7.270  12.261   1.222  1.00 10.47     0.023 A 
HETATM   12  CAH   D T1374       8.496  12.000   1.939  1.00 11.61     0.064 A 
HETATM   13  CAE   D T1374       8.665  10.920   2.866  1.00 11.67     0.282 A 
HETATM   14  OAF   D T1374       7.792  10.124   3.272  1.00 12.38    -0.265 OA
HETATM   15  NAD   D T1374       9.955  10.844   3.296  1.00 11.58    -0.169 NA
HETATM   16  CAC   D T1374      10.627  11.792   2.675  1.00 11.36     0.282 A 
HETATM   17  OAB   D T1374      11.852  11.938   2.811  1.00 13.28    -0.265 OA
HETATM   18  CAG   D T1374       9.800  12.584   1.826  1.00 10.54     0.064 A 
HETATM   19  CAL   D T1374      10.164  13.660   0.951  1.00 12.92     0.023 A 
HETATM   20  CAU   D T1374       9.287  14.636   0.593  1.00 12.44     0.076 A 
HETATM   21  CAK   D T1374      11.351  13.929   0.225  1.00 12.61     0.017 A 
HETATM   22  CAJ   D T1374      12.630  13.291   0.146  1.00 13.95     0.002 A 
HETATM   23  CAI   D T1374      13.587  13.838  -0.716  1.00 15.63     0.000 A 
HETATM   24  CAQ   D T1374      13.326  14.978  -1.494  1.00 14.37     0.002 A 
HETATM   25  CAR   D T1374      12.075  15.593  -1.423  1.00 13.26     0.017 A 
HETATM   26  CAS   D T1374      11.096  15.055  -0.561  1.00 11.92     0.060 A 
HETATM   27  NAT   D T1374       9.850  15.462  -0.314  1.00 12.89    -0.324 N 
HETATM   28  CBA   D T1374       9.089  16.588  -0.925  1.00 13.69     0.138 C 
HETATM   29  CBC   D T1374       8.343  15.989  -2.127  1.00 16.12     0.167 C 
HETATM   30  OBE   D T1374       7.108  15.503  -1.543  1.00 16.41    -0.352 OA
HETATM   31  CBF   D T1374       6.093  15.101  -2.474  1.00 19.48     0.151 C 
ENDROOT
BRANCH  31  32
HETATM   32  CBG   D T1374       4.808  15.299  -1.635  1.00 23.41     0.280 C 
BRANCH  32  33
HETATM   33  NBH   D T1374       3.618  15.713  -2.451  1.00 26.24     0.144 N 
HETATM   34  CBI   D T1374       2.388  15.506  -1.667  1.00 27.90     0.286 C 
HETATM   35  CBJ   D T1374       3.624  17.175  -2.718  1.00 27.31     0.286 C 
ENDBRANCH  32  33
ENDBRANCH  31  32
TORSDOF 2
ENDMDL
MODEL 7
REMARK VINA RESULT:    -8.903      2.723      4.686
REMARK INTER + INTRA:         -10.272
REMARK INTER:                  -9.906
REMARK INTRA:                  -0.366
REMARK UNBOUND:                -0.328
REMARK  2 active torsions:
REMARK  status: ('A' for Active; 'I' for Inactive)
REMARK    1  A    between atoms: CBF_31  and  CBG_32 
REMARK    2  A    between atoms: CBG_32  and  NBH_33 
ROOT
HETATM    1  CBD   D T1374       8.269  15.245  -4.452  1.00 18.24     0.056 C 
HETATM    2  CBB   D T1374       6.851  15.564  -4.858  1.00 13.77     0.109 C 
HETATM    3  NAW   D T1374       5.855  15.773  -3.793  1.00 11.00    -0.326 N 
HETATM    4  CAV   D T1374       5.674  14.926  -2.717  1.00  9.70     0.076 A 
HETATM    5  CAX   D T1374       4.839  16.611  -3.802  1.00 10.89     0.060 A 
HETATM    6  CAY   D T1374       4.490  17.623  -4.718  1.00 13.31     0.017 A 
HETATM    7  CAZ   D T1374       3.342  18.407  -4.468  1.00 12.88     0.002 A 
HETATM    8  CAP   D T1374       2.546  18.230  -3.333  1.00 12.85     0.000 A 
HETATM    9  CAO   D T1374       2.885  17.201  -2.420  1.00 12.21     0.002 A 
HETATM   10  CAN   D T1374       4.038  16.384  -2.672  1.00 11.16     0.017 A 
HETATM   11  CAM   D T1374       4.619  15.336  -1.959  1.00 10.47     0.023 A 
HETATM   12  CAH   D T1374       4.165  14.572  -0.821  1.00 11.61     0.064 A 
HETATM   13  CAE   D T1374       2.802  14.178  -0.616  1.00 11.67     0.282 A 
HETATM   14  OAF   D T1374       1.807  14.504  -1.296  1.00 12.38    -0.265 OA
HETATM   15  NAD   D T1374       2.688  13.365   0.471  1.00 11.58    -0.169 NA
HETATM   16  CAC   D T1374       3.901  13.191   0.954  1.00 11.36     0.282 A 
HETATM   17  OAB   D T1374       4.134  12.442   1.915  1.00 13.28    -0.265 OA
HETATM   18  CAG   D T1374       4.889  13.923   0.233  1.00 10.54     0.064 A 
HETATM   19  CAL   D T1374       6.311  13.949   0.411  1.00 12.92     0.023 A 
HETATM   20  CAU   D T1374       7.074  15.011   0.035  1.00 12.44     0.076 A 
HETATM   21  CAK   D T1374       7.224  12.971   0.879  1.00 12.61     0.017 A 
HETATM   22  CAJ   D T1374       7.075  11.648   1.405  1.00 13.95     0.002 A 
HETATM   23  CAI   D T1374       8.233  10.945   1.757  1.00 15.63     0.000 A 
HETATM   24  CAQ   D T1374       9.516  11.496   1.607  1.00 14.37     0.002 A 
HETATM   25  CAR   D T1374       9.659  12.783   1.084  1.00 13.26     0.017 A 
HETATM   26  CAS   D T1374       8.504  13.507   0.722  1.00 11.92     0.060 A 
HETATM   27  NAT   D T1374       8.382  14.737   0.219  1.00 12.89    -0.324 N 
HETATM   28  CBA   D T1374       9.447  15.704  -0.169  1.00 13.69     0.138 C 
HETATM   29  CBC   D T1374       9.734  15.442  -1.655  1.00 16.12     0.167 C 
HETATM   30  OBE   D T1374       8.761  16.275  -2.334  1.00 16.41    -0.352 OA
HETATM   31  CBF   D T1374       8.946  16.423  -3.750  1.00 19.48     0.151 C 
ENDROOT
BRANCH  31  32
HETATM   32  CBG   D T1374       8.259  17.785  -4.010  1.00 23.41     0.280 C 
BRANCH  32  33
HETATM   33  NBH   D T1374       9.043  18.688  -4.917  1.00 26.24     0.144 N 
HETATM   34  CBI   D T1374      10.462  18.293  -4.897  1.00 27.90     0.286 C 
HETATM   35  CBJ   D T1374       8.647  18.509  -6.339  1.00 27.31     0.286 C 
ENDBRANCH  32  33
ENDBRANCH  31  32
TORSDOF 2
ENDMDL
