MODEL 1
REMARK VINA RESULT:    -6.872      0.000      0.000
REMARK INTER + INTRA:          -9.404
REMARK INTER:                  -8.881
REMARK INTRA:                  -0.523
REMARK UNBOUND:                -0.523
REMARK  10 active torsions:
REMARK  status: ('A' for Active; 'I' for Inactive)
REMARK    1  A    between atoms: C1_1  and  C21_25 
REMARK    2  A    between atoms: N1_14  and  C13_15 
REMARK    3  A    between atoms: C13_15  and  C14_16 
REMARK    4  A    between atoms: C14_16  and  C15_17 
REMARK    5  A    between atoms: C15_17  and  N2_18 
REMARK    6  A    between atoms: C1_29  and  C21_53 
REMARK    7  A    between atoms: N1_42  and  C13_43 
REMARK    8  A    between atoms: C13_43  and  C14_44 
REMARK    9  A    between atoms: C14_44  and  C15_45 
REMARK   10  A    between atoms: C15_45  and  N2_46 
ROOT
HETATM    1  C1    D T 153      -9.682  -7.976  22.255  0.85 32.23     0.073 C 
HETATM    2  C2    D T 153     -10.580  -9.043  22.274  0.85 32.23     0.004 C 
HETATM    3  C3    D T 153     -10.198 -10.216  22.876  0.85 32.23     0.008 C 
HETATM    4  C4    D T 153      -9.149 -10.216  23.778  0.85 32.23     0.045 C 
HETATM    5  C5    D T 153      -8.317  -9.096  23.908  0.85 32.23     0.066 C 
HETATM    6  C6    D T 153      -8.569  -7.967  23.101  0.85 32.23     0.022 C 
HETATM    7  S     D T 153      -8.914 -11.658  24.766  0.85 32.23    -0.084 SA
HETATM    8  C7    D T 153      -8.001 -11.062  26.123  0.85 32.23     0.045 C 
HETATM    9  C8    D T 153      -8.116 -11.750  27.341  0.85 32.23     0.008 C 
HETATM   10  C9    D T 153      -7.510 -11.257  28.481  0.85 32.23     0.001 C 
HETATM   11  C10   D T 153      -6.830 -10.049  28.419  0.85 32.23     0.002 C 
HETATM   12  C11   D T 153      -6.642  -9.433  27.190  0.85 32.23     0.018 C 
HETATM   13  C12   D T 153      -7.182  -9.931  25.980  0.85 32.23     0.066 C 
HETATM   14  N1    D T 153      -7.109  -9.208  24.679  0.85 82.40    -0.327 N 
ENDROOT
BRANCH  14  15
HETATM   15  C13   D T 153      -6.155  -8.107  24.516  0.85 82.40     0.108 C 
BRANCH  15  16
HETATM   16  C14   D T 153      -5.306  -8.261  23.247  0.85 82.40     0.060 C 
BRANCH  16  17
HETATM   17  C15   D T 153      -4.059  -7.354  23.247  0.85 82.40     0.252 C 
BRANCH  17  18
HETATM   18  N2    D T 153      -3.019  -7.714  22.312  0.85 82.40     0.141 N 
HETATM   19  C16   D T 153      -1.794  -7.195  22.846  0.85 82.40     0.285 C 
HETATM   20  C17   D T 153      -0.674  -7.618  22.024  0.85 82.40     0.285 C 
HETATM   21  N3    D T 153      -1.135  -8.459  20.955  0.85 82.40     0.143 N 
HETATM   22  C18   D T 153      -1.816  -9.591  21.513  0.85 82.40     0.285 C 
HETATM   23  C20   D T 153       0.025  -8.966  20.304  0.85 82.40     0.285 C 
HETATM   24  C19   D T 153      -2.957  -9.150  22.293  0.85 82.40     0.285 C 
ENDBRANCH  17  18
ENDBRANCH  16  17
ENDBRANCH  15  16
ENDBRANCH  14  15
BRANCH   1  25
HETATM   25  C21   D T 153      -9.909  -6.869  21.336  0.85 32.23     0.419 C 
HETATM   26  F1    D T 153     -10.299  -7.220  20.148  0.85 32.23    -0.166 F 
HETATM   27  F2    D T 153      -8.865  -6.153  21.105  0.85 32.23    -0.166 F 
HETATM   28  F3    D T 153     -10.798  -5.994  21.715  0.85 32.23    -0.166 F 
ENDBRANCH   1  25
TORSDOF 10
ENDMDL
MODEL 2
REMARK VINA RESULT:    -6.188      3.499      4.842
REMARK INTER + INTRA:          -8.521
REMARK INTER:                  -7.454
REMARK INTRA:                  -1.066
REMARK UNBOUND:                -0.523
REMARK  10 active torsions:
REMARK  status: ('A' for Active; 'I' for Inactive)
REMARK    1  A    between atoms: C1_1  and  C21_25 
REMARK    2  A    between atoms: N1_14  and  C13_15 
REMARK    3  A    between atoms: C13_15  and  C14_16 
REMARK    4  A    between atoms: C14_16  and  C15_17 
REMARK    5  A    between atoms: C15_17  and  N2_18 
REMARK    6  A    between atoms: C1_29  and  C21_53 
REMARK    7  A    between atoms: N1_42  and  C13_43 
REMARK    8  A    between atoms: C13_43  and  C14_44 
REMARK    9  A    between atoms: C14_44  and  C15_45 
REMARK   10  A    between atoms: C15_45  and  N2_46 
ROOT
HETATM    1  C1    D T 153     -10.428  -8.198  21.889  0.85 32.23     0.073 C 
HETATM    2  C2    D T 153     -11.194  -9.323  21.583  0.85 32.23     0.004 C 
HETATM    3  C3    D T 153     -10.994 -10.474  22.305  0.85 32.23     0.008 C 
HETATM    4  C4    D T 153     -10.370 -10.412  23.538  0.85 32.23     0.045 C 
HETATM    5  C5    D T 153      -9.726  -9.240  23.956  0.85 32.23     0.066 C 
HETATM    6  C6    D T 153      -9.725  -8.123  23.094  0.85 32.23     0.022 C 
HETATM    7  S     D T 153     -10.435 -11.844  24.566  0.85 32.23    -0.084 SA
HETATM    8  C7    D T 153     -10.149 -11.200  26.157  0.85 32.23     0.045 C 
HETATM    9  C8    D T 153     -10.674 -11.906  27.252  0.85 32.23     0.008 C 
HETATM   10  C9    D T 153     -10.582 -11.384  28.528  0.85 32.23     0.001 C 
HETATM   11  C10   D T 153     -10.010 -10.133  28.708  0.85 32.23     0.002 C 
HETATM   12  C11   D T 153      -9.409  -9.494  27.633  0.85 32.23     0.018 C 
HETATM   13  C12   D T 153      -9.413 -10.016  26.317  0.85 32.23     0.066 C 
HETATM   14  N1    D T 153      -8.898  -9.278  25.130  0.85 82.40    -0.327 N 
ENDROOT
BRANCH  14  15
HETATM   15  C13   D T 153      -8.028  -8.114  25.324  0.85 82.40     0.108 C 
BRANCH  15  16
HETATM   16  C14   D T 153      -6.574  -8.408  24.932  0.85 82.40     0.060 C 
BRANCH  16  17
HETATM   17  C15   D T 153      -5.569  -8.054  26.046  0.85 82.40     0.252 C 
BRANCH  17  18
HETATM   18  N2    D T 153      -6.130  -7.874  27.365  0.85 82.40     0.141 N 
HETATM   19  C16   D T 153      -5.692  -8.990  28.151  0.85 82.40     0.285 C 
HETATM   20  C17   D T 153      -6.115  -8.825  29.530  0.85 82.40     0.285 C 
HETATM   21  N3    D T 153      -6.805  -7.575  29.689  0.85 82.40     0.143 N 
HETATM   22  C18   D T 153      -5.936  -6.508  29.290  0.85 82.40     0.285 C 
HETATM   23  C20   D T 153      -7.034  -7.409  31.084  0.85 82.40     0.285 C 
HETATM   24  C19   D T 153      -5.560  -6.667  27.897  0.85 82.40     0.285 C 
ENDBRANCH  17  18
ENDBRANCH  16  17
ENDBRANCH  15  16
ENDBRANCH  14  15
BRANCH   1  25
HETATM   25  C21   D T 153     -10.361  -7.101  20.934  0.85 32.23     0.419 C 
HETATM   26  F1    D T 153     -10.287  -7.467  19.690  0.85 32.23    -0.166 F 
HETATM   27  F2    D T 153      -9.333  -6.339  21.079  0.85 32.23    -0.166 F 
HETATM   28  F3    D T 153     -11.362  -6.267  20.960  0.85 32.23    -0.166 F 
ENDBRANCH   1  25
TORSDOF 10
ENDMDL
MODEL 3
REMARK VINA RESULT:    -5.931      5.317      7.437
REMARK INTER + INTRA:          -8.188
REMARK INTER:                  -7.188
REMARK INTRA:                  -1.000
REMARK UNBOUND:                -0.523
REMARK  10 active torsions:
REMARK  status: ('A' for Active; 'I' for Inactive)
REMARK    1  A    between atoms: C1_1  and  C21_25 
REMARK    2  A    between atoms: N1_14  and  C13_15 
REMARK    3  A    between atoms: C13_15  and  C14_16 
REMARK    4  A    between atoms: C14_16  and  C15_17 
REMARK    5  A    between atoms: C15_17  and  N2_18 
REMARK    6  A    between atoms: C1_29  and  C21_53 
REMARK    7  A    between atoms: N1_42  and  C13_43 
REMARK    8  A    between atoms: C13_43  and  C14_44 
REMARK    9  A    between atoms: C14_44  and  C15_45 
REMARK   10  A    between atoms: C15_45  and  N2_46 
ROOT
HETATM    1  C1    D T 153     -11.735 -14.845  24.365  0.85 32.23     0.073 C 
HETATM    2  C2    D T 153     -12.839 -14.141  23.884  0.85 32.23     0.004 C 
HETATM    3  C3    D T 153     -12.881 -12.779  24.058  0.85 32.23     0.008 C 
HETATM    4  C4    D T 153     -11.714 -12.084  24.320  0.85 32.23     0.045 C 
HETATM    5  C5    D T 153     -10.534 -12.764  24.649  0.85 32.23     0.066 C 
HETATM    6  C6    D T 153     -10.558 -14.174  24.709  0.85 32.23     0.022 C 
HETATM    7  S     D T 153     -11.761 -10.324  24.204  0.85 32.23    -0.084 SA
HETATM    8  C7    D T 153     -10.090  -9.901  23.964  0.85 32.23     0.045 C 
HETATM    9  C8    D T 153      -9.811  -8.705  23.283  0.85 32.23     0.008 C 
HETATM   10  C9    D T 153      -8.509  -8.375  22.958  0.85 32.23     0.001 C 
HETATM   11  C10   D T 153      -7.487  -9.261  23.268  0.85 32.23     0.002 C 
HETATM   12  C11   D T 153      -7.767 -10.388  24.027  0.85 32.23     0.018 C 
HETATM   13  C12   D T 153      -9.073 -10.739  24.446  0.85 32.23     0.066 C 
HETATM   14  N1    D T 153      -9.408 -12.016  25.137  0.85 82.40    -0.327 N 
ENDROOT
BRANCH  14  15
HETATM   15  C13   D T 153      -8.337 -12.813  25.741  0.85 82.40     0.108 C 
BRANCH  15  16
HETATM   16  C14   D T 153      -8.070 -12.413  27.199  0.85 82.40     0.060 C 
BRANCH  16  17
HETATM   17  C15   D T 153      -6.671 -11.801  27.406  0.85 82.40     0.252 C 
BRANCH  17  18
HETATM   18  N2    D T 153      -6.605 -10.667  28.297  0.85 82.40     0.141 N 
HETATM   19  C16   D T 153      -6.668  -9.496  27.472  0.85 82.40     0.285 C 
HETATM   20  C17   D T 153      -6.728  -8.306  28.302  0.85 82.40     0.285 C 
HETATM   21  N3    D T 153      -6.748  -8.672  29.691  0.85 82.40     0.143 N 
HETATM   22  C18   D T 153      -7.876  -9.521  29.933  0.85 82.40     0.285 C 
HETATM   23  C20   D T 153      -6.977  -7.474  30.426  0.85 82.40     0.285 C 
HETATM   24  C19   D T 153      -7.775 -10.725  29.129  0.85 82.40     0.285 C 
ENDBRANCH  17  18
ENDBRANCH  16  17
ENDBRANCH  15  16
ENDBRANCH  14  15
BRANCH   1  25
HETATM   25  C21   D T 153     -11.821 -16.291  24.515  0.85 32.23     0.419 C 
HETATM   26  F1    D T 153     -10.685 -16.884  24.725  0.85 32.23    -0.166 F 
HETATM   27  F2    D T 153     -12.286 -16.901  23.481  0.85 32.23    -0.166 F 
HETATM   28  F3    D T 153     -12.584 -16.714  25.484  0.85 32.23    -0.166 F 
ENDBRANCH   1  25
TORSDOF 10
ENDMDL
MODEL 4
REMARK VINA RESULT:    -5.891      5.042      9.384
REMARK INTER + INTRA:          -8.136
REMARK INTER:                  -7.375
REMARK INTRA:                  -0.761
REMARK UNBOUND:                -0.523
REMARK  10 active torsions:
REMARK  status: ('A' for Active; 'I' for Inactive)
REMARK    1  A    between atoms: C1_1  and  C21_25 
REMARK    2  A    between atoms: N1_14  and  C13_15 
REMARK    3  A    between atoms: C13_15  and  C14_16 
REMARK    4  A    between atoms: C14_16  and  C15_17 
REMARK    5  A    between atoms: C15_17  and  N2_18 
REMARK    6  A    between atoms: C1_29  and  C21_53 
REMARK    7  A    between atoms: N1_42  and  C13_43 
REMARK    8  A    between atoms: C13_43  and  C14_44 
REMARK    9  A    between atoms: C14_44  and  C15_45 
REMARK   10  A    between atoms: C15_45  and  N2_46 
ROOT
HETATM    1  C1    D T 153     -10.445  -8.320  21.847  0.85 32.23     0.073 C 
HETATM    2  C2    D T 153      -9.274  -7.900  22.478  0.85 32.23     0.004 C 
HETATM    3  C3    D T 153      -8.963  -8.424  23.709  0.85 32.23     0.008 C 
HETATM    4  C4    D T 153      -9.550  -9.607  24.121  0.85 32.23     0.045 C 
HETATM    5  C5    D T 153     -10.631 -10.153  23.415  0.85 32.23     0.066 C 
HETATM    6  C6    D T 153     -11.110  -9.472  22.276  0.85 32.23     0.022 C 
HETATM    7  S     D T 153      -8.879 -10.408  25.542  0.85 32.23    -0.084 SA
HETATM    8  C7    D T 153      -9.408 -12.055  25.352  0.85 32.23     0.045 C 
HETATM    9  C8    D T 153      -8.630 -13.063  25.942  0.85 32.23     0.008 C 
HETATM   10  C9    D T 153      -8.932 -14.394  25.727  0.85 32.23     0.001 C 
HETATM   11  C10   D T 153      -9.981 -14.723  24.881  0.85 32.23     0.002 C 
HETATM   12  C11   D T 153     -10.800 -13.719  24.385  0.85 32.23     0.018 C 
HETATM   13  C12   D T 153     -10.578 -12.342  24.632  0.85 32.23     0.066 C 
HETATM   14  N1    D T 153     -11.362 -11.248  23.992  0.85 82.40    -0.327 N 
ENDROOT
BRANCH  14  15
HETATM   15  C13   D T 153     -12.643 -11.556  23.352  0.85 82.40     0.108 C 
BRANCH  15  16
HETATM   16  C14   D T 153     -13.837 -11.212  24.253  0.85 82.40     0.060 C 
BRANCH  16  17
HETATM   17  C15   D T 153     -14.262 -12.385  25.158  0.85 82.40     0.252 C 
BRANCH  17  18
HETATM   18  N2    D T 153     -15.590 -12.904  24.933  0.85 82.40     0.141 N 
HETATM   19  C16   D T 153     -15.845 -13.844  25.987  0.85 82.40     0.285 C 
HETATM   20  C17   D T 153     -17.211 -14.326  25.903  0.85 82.40     0.285 C 
HETATM   21  N3    D T 153     -17.898 -13.683  24.818  0.85 82.40     0.143 N 
HETATM   22  C18   D T 153     -17.869 -12.265  25.022  0.85 82.40     0.285 C 
HETATM   23  C20   D T 153     -19.263 -14.077  24.907  0.85 82.40     0.285 C 
HETATM   24  C19   D T 153     -16.496 -11.796  25.058  0.85 82.40     0.285 C 
ENDBRANCH  17  18
ENDBRANCH  16  17
ENDBRANCH  15  16
ENDBRANCH  14  15
BRANCH   1  25
HETATM   25  C21   D T 153     -10.976  -7.540  20.738  0.85 32.23     0.419 C 
HETATM   26  F1    D T 153     -10.195  -7.466  19.703  0.85 32.23    -0.166 F 
HETATM   27  F2    D T 153     -11.205  -6.306  21.024  0.85 32.23    -0.166 F 
HETATM   28  F3    D T 153     -12.112  -7.953  20.250  0.85 32.23    -0.166 F 
ENDBRANCH   1  25
TORSDOF 10
ENDMDL
MODEL 5
REMARK VINA RESULT:    -5.825      4.203      5.539
REMARK INTER + INTRA:          -8.052
REMARK INTER:                  -7.240
REMARK INTRA:                  -0.812
REMARK UNBOUND:                -0.523
REMARK  10 active torsions:
REMARK  status: ('A' for Active; 'I' for Inactive)
REMARK    1  A    between atoms: C1_1  and  C21_25 
REMARK    2  A    between atoms: N1_14  and  C13_15 
REMARK    3  A    between atoms: C13_15  and  C14_16 
REMARK    4  A    between atoms: C14_16  and  C15_17 
REMARK    5  A    between atoms: C15_17  and  N2_18 
REMARK    6  A    between atoms: C1_29  and  C21_53 
REMARK    7  A    between atoms: N1_42  and  C13_43 
REMARK    8  A    between atoms: C13_43  and  C14_44 
REMARK    9  A    between atoms: C14_44  and  C15_45 
REMARK   10  A    between atoms: C15_45  and  N2_46 
ROOT
HETATM    1  C1    D T 153      -8.708  -9.327  23.776  0.85 32.23     0.073 C 
HETATM    2  C2    D T 153      -8.926 -10.576  23.196  0.85 32.23     0.004 C 
HETATM    3  C3    D T 153      -8.428 -11.691  23.823  0.85 32.23     0.008 C 
HETATM    4  C4    D T 153      -8.091 -11.633  25.164  0.85 32.23     0.045 C 
HETATM    5  C5    D T 153      -8.019 -10.402  25.831  0.85 32.23     0.066 C 
HETATM    6  C6    D T 153      -8.298  -9.223  25.108  0.85 32.23     0.022 C 
HETATM    7  S     D T 153      -7.779 -13.153  26.001  0.85 32.23    -0.084 SA
HETATM    8  C7    D T 153      -8.029 -12.741  27.673  0.85 32.23     0.045 C 
HETATM    9  C8    D T 153      -8.422 -13.767  28.547  0.85 32.23     0.008 C 
HETATM   10  C9    D T 153      -8.750 -13.480  29.858  0.85 32.23     0.001 C 
HETATM   11  C10   D T 153      -8.735 -12.160  30.287  0.85 32.23     0.002 C 
HETATM   12  C11   D T 153      -8.250 -11.172  29.442  0.85 32.23     0.018 C 
HETATM   13  C12   D T 153      -7.835 -11.422  28.111  0.85 32.23     0.066 C 
HETATM   14  N1    D T 153      -7.448 -10.353  27.148  0.85 82.40    -0.327 N 
ENDROOT
BRANCH  14  15
HETATM   15  C13   D T 153      -7.131  -9.012  27.647  0.85 82.40     0.108 C 
BRANCH  15  16
HETATM   16  C14   D T 153      -5.674  -8.900  28.117  0.85 82.40     0.060 C 
BRANCH  16  17
HETATM   17  C15   D T 153      -5.162  -7.446  28.140  0.85 82.40     0.252 C 
BRANCH  17  18
HETATM   18  N2    D T 153      -6.121  -6.447  28.548  0.85 82.40     0.141 N 
HETATM   19  C16   D T 153      -5.538  -5.751  29.658  0.85 82.40     0.285 C 
HETATM   20  C17   D T 153      -6.390  -4.645  30.054  0.85 82.40     0.285 C 
HETATM   21  N3    D T 153      -7.533  -4.565  29.187  0.85 82.40     0.143 N 
HETATM   22  C18   D T 153      -7.083  -4.403  27.837  0.85 82.40     0.285 C 
HETATM   23  C20   D T 153      -8.223  -3.367  29.530  0.85 82.40     0.285 C 
HETATM   24  C19   D T 153      -6.270  -5.539  27.444  0.85 82.40     0.285 C 
ENDBRANCH  17  18
ENDBRANCH  16  17
ENDBRANCH  15  16
ENDBRANCH  14  15
BRANCH   1  25
HETATM   25  C21   D T 153      -8.903  -8.125  22.976  0.85 32.23     0.419 C 
HETATM   26  F1    D T 153      -7.810  -7.597  22.514  0.85 32.23    -0.166 F 
HETATM   27  F2    D T 153      -9.454  -7.152  23.613  0.85 32.23    -0.166 F 
HETATM   28  F3    D T 153      -9.658  -8.263  21.923  0.85 32.23    -0.166 F 
ENDBRANCH   1  25
TORSDOF 10
ENDMDL
MODEL 6
REMARK VINA RESULT:    -5.778      5.724     10.127
REMARK INTER + INTRA:          -7.990
REMARK INTER:                  -7.199
REMARK INTRA:                  -0.792
REMARK UNBOUND:                -0.523
REMARK  10 active torsions:
REMARK  status: ('A' for Active; 'I' for Inactive)
REMARK    1  A    between atoms: C1_1  and  C21_25 
REMARK    2  A    between atoms: N1_14  and  C13_15 
REMARK    3  A    between atoms: C13_15  and  C14_16 
REMARK    4  A    between atoms: C14_16  and  C15_17 
REMARK    5  A    between atoms: C15_17  and  N2_18 
REMARK    6  A    between atoms: C1_29  and  C21_53 
REMARK    7  A    between atoms: N1_42  and  C13_43 
REMARK    8  A    between atoms: C13_43  and  C14_44 
REMARK    9  A    between atoms: C14_44  and  C15_45 
REMARK   10  A    between atoms: C15_45  and  N2_46 
ROOT
HETATM    1  C1    D T 153     -10.792  -8.937  21.873  0.85 32.23     0.073 C 
HETATM    2  C2    D T 153      -9.543  -8.912  22.493  0.85 32.23     0.004 C 
HETATM    3  C3    D T 153      -9.370  -9.617  23.659  0.85 32.23     0.008 C 
HETATM    4  C4    D T 153     -10.252 -10.631  23.986  0.85 32.23     0.045 C 
HETATM    5  C5    D T 153     -11.450 -10.793  23.278  0.85 32.23     0.066 C 
HETATM    6  C6    D T 153     -11.740  -9.902  22.223  0.85 32.23     0.022 C 
HETATM    7  S     D T 153      -9.805 -11.717  25.302  0.85 32.23    -0.084 SA
HETATM    8  C7    D T 153     -10.766 -13.134  24.987  0.85 32.23     0.045 C 
HETATM    9  C8    D T 153     -10.285 -14.367  25.455  0.85 32.23     0.008 C 
HETATM   10  C9    D T 153     -10.941 -15.539  25.134  0.85 32.23     0.001 C 
HETATM   11  C10   D T 153     -12.052 -15.489  24.304  0.85 32.23     0.002 C 
HETATM   12  C11   D T 153     -12.572 -14.257  23.932  0.85 32.23     0.018 C 
HETATM   13  C12   D T 153     -11.979 -13.023  24.291  0.85 32.23     0.066 C 
HETATM   14  N1    D T 153     -12.443 -11.701  23.782  0.85 82.40    -0.327 N 
ENDROOT
BRANCH  14  15
HETATM   15  C13   D T 153     -13.769 -11.588  23.168  0.85 82.40     0.108 C 
BRANCH  15  16
HETATM   16  C14   D T 153     -14.796 -10.962  24.121  0.85 82.40     0.060 C 
BRANCH  16  17
HETATM   17  C15   D T 153     -15.655 -12.014  24.851  0.85 82.40     0.252 C 
BRANCH  17  18
HETATM   18  N2    D T 153     -17.044 -11.669  25.044  0.85 82.40     0.141 N 
HETATM   19  C16   D T 153     -17.429 -10.878  23.911  0.85 82.40     0.285 C 
HETATM   20  C17   D T 153     -18.850 -10.588  23.967  0.85 82.40     0.285 C 
HETATM   21  N3    D T 153     -19.439 -11.216  25.116  0.85 82.40     0.143 N 
HETATM   22  C18   D T 153     -19.208 -12.629  25.044  0.85 82.40     0.285 C 
HETATM   23  C20   D T 153     -20.846 -11.029  25.008  0.85 82.40     0.285 C 
HETATM   24  C19   D T 153     -17.783 -12.901  25.035  0.85 82.40     0.285 C 
ENDBRANCH  17  18
ENDBRANCH  16  17
ENDBRANCH  15  16
ENDBRANCH  14  15
BRANCH   1  25
HETATM   25  C21   D T 153     -11.105  -7.939  20.860  0.85 32.23     0.419 C 
HETATM   26  F1    D T 153     -12.245  -8.111  20.262  0.85 32.23    -0.166 F 
HETATM   27  F2    D T 153     -10.265  -7.896  19.886  0.85 32.23    -0.166 F 
HETATM   28  F3    D T 153     -11.149  -6.705  21.276  0.85 32.23    -0.166 F 
ENDBRANCH   1  25
TORSDOF 10
ENDMDL
MODEL 7
REMARK VINA RESULT:    -5.762      7.080      8.730
REMARK INTER + INTRA:          -7.970
REMARK INTER:                  -7.094
REMARK INTRA:                  -0.876
REMARK UNBOUND:                -0.523
REMARK  10 active torsions:
REMARK  status: ('A' for Active; 'I' for Inactive)
REMARK    1  A    between atoms: C1_1  and  C21_25 
REMARK    2  A    between atoms: N1_14  and  C13_15 
REMARK    3  A    between atoms: C13_15  and  C14_16 
REMARK    4  A    between atoms: C14_16  and  C15_17 
REMARK    5  A    between atoms: C15_17  and  N2_18 
REMARK    6  A    between atoms: C1_29  and  C21_53 
REMARK    7  A    between atoms: N1_42  and  C13_43 
REMARK    8  A    between atoms: C13_43  and  C14_44 
REMARK    9  A    between atoms: C14_44  and  C15_45 
REMARK   10  A    between atoms: C15_45  and  N2_46 
ROOT
HETATM    1  C1    D T 153     -11.992  -1.968  23.774  0.85 32.23     0.073 C 
HETATM    2  C2    D T 153     -13.156  -1.214  23.923  0.85 32.23     0.004 C 
HETATM    3  C3    D T 153     -13.669  -1.035  25.185  0.85 32.23     0.008 C 
HETATM    4  C4    D T 153     -12.860  -1.233  26.290  0.85 32.23     0.045 C 
HETATM    5  C5    D T 153     -11.605  -1.843  26.158  0.85 32.23     0.066 C 
HETATM    6  C6    D T 153     -11.182  -2.252  24.876  0.85 32.23     0.022 C 
HETATM    7  S     D T 153     -13.453  -0.673  27.854  0.85 32.23    -0.084 SA
HETATM    8  C7    D T 153     -11.996  -0.508  28.791  0.85 32.23     0.045 C 
HETATM    9  C8    D T 153     -11.999   0.420  29.845  0.85 32.23     0.008 C 
HETATM   10  C9    D T 153     -10.839   0.681  30.548  0.85 32.23     0.001 C 
HETATM   11  C10   D T 153      -9.660   0.054  30.168  0.85 32.23     0.002 C 
HETATM   12  C11   D T 153      -9.694  -0.931  29.192  0.85 32.23     0.018 C 
HETATM   13  C12   D T 153     -10.870  -1.288  28.488  0.85 32.23     0.066 C 
HETATM   14  N1    D T 153     -10.894  -2.240  27.342  0.85 82.40    -0.327 N 
ENDROOT
BRANCH  14  15
HETATM   15  C13   D T 153      -9.752  -3.133  27.120  0.85 82.40     0.108 C 
BRANCH  15  16
HETATM   16  C14   D T 153      -9.922  -4.477  27.840  0.85 82.40     0.060 C 
BRANCH  16  17
HETATM   17  C15   D T 153      -8.798  -4.757  28.858  0.85 82.40     0.252 C 
BRANCH  17  18
HETATM   18  N2    D T 153      -7.905  -5.843  28.526  0.85 82.40     0.141 N 
HETATM   19  C16   D T 153      -8.603  -6.674  27.588  0.85 82.40     0.285 C 
HETATM   20  C17   D T 153      -7.728  -7.728  27.110  0.85 82.40     0.285 C 
HETATM   21  N3    D T 153      -6.422  -7.588  27.691  0.85 82.40     0.143 N 
HETATM   22  C18   D T 153      -5.897  -6.298  27.355  0.85 82.40     0.285 C 
HETATM   23  C20   D T 153      -5.584  -8.545  27.049  0.85 82.40     0.285 C 
HETATM   24  C19   D T 153      -6.762  -5.257  27.881  0.85 82.40     0.285 C 
ENDBRANCH  17  18
ENDBRANCH  16  17
ENDBRANCH  15  16
ENDBRANCH  14  15
BRANCH   1  25
HETATM   25  C21   D T 153     -11.631  -2.468  22.454  0.85 32.23     0.419 C 
HETATM   26  F1    D T 153     -12.625  -2.581  21.626  0.85 32.23    -0.166 F 
HETATM   27  F2    D T 153     -11.116  -3.647  22.460  0.85 32.23    -0.166 F 
HETATM   28  F3    D T 153     -10.754  -1.758  21.802  0.85 32.23    -0.166 F 
ENDBRANCH   1  25
TORSDOF 10
ENDMDL
MODEL 8
REMARK VINA RESULT:    -5.757      4.428      6.832
REMARK INTER + INTRA:          -7.963
REMARK INTER:                  -6.938
REMARK INTRA:                  -1.025
REMARK UNBOUND:                -0.523
REMARK  10 active torsions:
REMARK  status: ('A' for Active; 'I' for Inactive)
REMARK    1  A    between atoms: C1_1  and  C21_25 
REMARK    2  A    between atoms: N1_14  and  C13_15 
REMARK    3  A    between atoms: C13_15  and  C14_16 
REMARK    4  A    between atoms: C14_16  and  C15_17 
REMARK    5  A    between atoms: C15_17  and  N2_18 
REMARK    6  A    between atoms: C1_29  and  C21_53 
REMARK    7  A    between atoms: N1_42  and  C13_43 
REMARK    8  A    between atoms: C13_43  and  C14_44 
REMARK    9  A    between atoms: C14_44  and  C15_45 
REMARK   10  A    between atoms: C15_45  and  N2_46 
ROOT
HETATM    1  C1    D T 153      -9.656  -9.285  23.754  0.85 32.23     0.073 C 
HETATM    2  C2    D T 153      -8.417  -9.666  23.242  0.85 32.23     0.004 C 
HETATM    3  C3    D T 153      -7.285  -9.065  23.737  0.85 32.23     0.008 C 
HETATM    4  C4    D T 153      -7.327  -8.424  24.962  0.85 32.23     0.045 C 
HETATM    5  C5    D T 153      -8.552  -8.166  25.593  0.85 32.23     0.066 C 
HETATM    6  C6    D T 153      -9.742  -8.573  24.954  0.85 32.23     0.022 C 
HETATM    7  S     D T 153      -5.794  -7.966  25.704  0.85 32.23    -0.084 SA
HETATM    8  C7    D T 153      -6.204  -7.809  27.389  0.85 32.23     0.045 C 
HETATM    9  C8    D T 153      -5.184  -8.015  28.331  0.85 32.23     0.008 C 
HETATM   10  C9    D T 153      -5.473  -8.021  29.682  0.85 32.23     0.001 C 
HETATM   11  C10   D T 153      -6.789  -7.871  30.094  0.85 32.23     0.002 C 
HETATM   12  C11   D T 153      -7.769  -7.570  29.159  0.85 32.23     0.018 C 
HETATM   13  C12   D T 153      -7.515  -7.483  27.769  0.85 32.23     0.066 C 
HETATM   14  N1    D T 153      -8.579  -7.302  26.741  0.85 82.40    -0.327 N 
ENDROOT
BRANCH  14  15
HETATM   15  C13   D T 153      -9.909  -6.842  27.151  0.85 82.40     0.108 C 
BRANCH  15  16
HETATM   16  C14   D T 153     -10.170  -5.388  26.734  0.85 82.40     0.060 C 
BRANCH  16  17
HETATM   17  C15   D T 153     -10.341  -4.441  27.939  0.85 82.40     0.252 C 
BRANCH  17  18
HETATM   18  N2    D T 153      -9.209  -4.347  28.831  0.85 82.40     0.141 N 
HETATM   19  C16   D T 153      -8.554  -3.108  28.529  0.85 82.40     0.285 C 
HETATM   20  C17   D T 153      -7.469  -2.878  29.467  0.85 82.40     0.285 C 
HETATM   21  N3    D T 153      -7.414  -3.941  30.431  0.85 82.40     0.143 N 
HETATM   22  C18   D T 153      -8.672  -4.017  31.113  0.85 82.40     0.285 C 
HETATM   23  C20   D T 153      -6.447  -3.561  31.404  0.85 82.40     0.285 C 
HETATM   24  C19   D T 153      -9.737  -4.292  30.166  0.85 82.40     0.285 C 
ENDBRANCH  17  18
ENDBRANCH  16  17
ENDBRANCH  15  16
ENDBRANCH  14  15
BRANCH   1  25
HETATM   25  C21   D T 153     -10.867  -9.628  23.021  0.85 32.23     0.419 C 
HETATM   26  F1    D T 153     -10.820 -10.766  22.397  0.85 32.23    -0.166 F 
HETATM   27  F2    D T 153     -11.174  -8.794  22.090  0.85 32.23    -0.166 F 
HETATM   28  F3    D T 153     -11.957  -9.702  23.732  0.85 32.23    -0.166 F 
ENDBRANCH   1  25
TORSDOF 10
ENDMDL
MODEL 9
REMARK VINA RESULT:    -5.737      4.594      6.775
REMARK INTER + INTRA:          -7.937
REMARK INTER:                  -6.975
REMARK INTRA:                  -0.963
REMARK UNBOUND:                -0.523
REMARK  10 active torsions:
REMARK  status: ('A' for Active; 'I' for Inactive)
REMARK    1  A    between atoms: C1_1  and  C21_25 
REMARK    2  A    between atoms: N1_14  and  C13_15 
REMARK    3  A    between atoms: C13_15  and  C14_16 
REMARK    4  A    between atoms: C14_16  and  C15_17 
REMARK    5  A    between atoms: C15_17  and  N2_18 
REMARK    6  A    between atoms: C1_29  and  C21_53 
REMARK    7  A    between atoms: N1_42  and  C13_43 
REMARK    8  A    between atoms: C13_43  and  C14_44 
REMARK    9  A    between atoms: C14_44  and  C15_45 
REMARK   10  A    between atoms: C15_45  and  N2_46 
ROOT
HETATM    1  C1    D T 153      -8.822  -9.361  23.321  0.85 32.23     0.073 C 
HETATM    2  C2    D T 153      -9.641  -8.691  22.412  0.85 32.23     0.004 C 
HETATM    3  C3    D T 153     -10.792  -9.305  21.983  0.85 32.23     0.008 C 
HETATM    4  C4    D T 153     -11.331 -10.346  22.718  0.85 32.23     0.045 C 
HETATM    5  C5    D T 153     -10.600 -10.943  23.754  0.85 32.23     0.066 C 
HETATM    6  C6    D T 153      -9.304 -10.463  24.034  0.85 32.23     0.022 C 
HETATM    7  S     D T 153     -12.966 -10.874  22.319  0.85 32.23    -0.084 SA
HETATM    8  C7    D T 153     -13.488 -11.672  23.775  0.85 32.23     0.045 C 
HETATM    9  C8    D T 153     -14.866 -11.712  24.040  0.85 32.23     0.008 C 
HETATM   10  C9    D T 153     -15.333 -12.225  25.235  0.85 32.23     0.001 C 
HETATM   11  C10   D T 153     -14.422 -12.653  26.190  0.85 32.23     0.002 C 
HETATM   12  C11   D T 153     -13.071 -12.699  25.875  0.85 32.23     0.018 C 
HETATM   13  C12   D T 153     -12.546 -12.251  24.639  0.85 32.23     0.066 C 
HETATM   14  N1    D T 153     -11.088 -12.161  24.341  0.85 82.40    -0.327 N 
ENDROOT
BRANCH  14  15
HETATM   15  C13   D T 153     -10.132 -12.878  25.190  0.85 82.40     0.108 C 
BRANCH  15  16
HETATM   16  C14   D T 153      -9.946 -14.335  24.747  0.85 82.40     0.060 C 
BRANCH  16  17
HETATM   17  C15   D T 153      -8.552 -14.894  25.093  0.85 82.40     0.252 C 
BRANCH  17  18
HETATM   18  N2    D T 153      -7.782 -15.398  23.980  0.85 82.40     0.141 N 
HETATM   19  C16   D T 153      -8.713 -16.039  23.097  0.85 82.40     0.285 C 
HETATM   20  C17   D T 153      -8.035 -16.471  21.889  0.85 82.40     0.285 C 
HETATM   21  N3    D T 153      -6.652 -16.088  21.933  0.85 82.40     0.143 N 
HETATM   22  C18   D T 153      -6.567 -14.666  22.085  0.85 82.40     0.285 C 
HETATM   23  C20   D T 153      -6.102 -16.392  20.655  0.85 82.40     0.285 C 
HETATM   24  C19   D T 153      -7.210 -14.257  23.320  0.85 82.40     0.285 C 
ENDBRANCH  17  18
ENDBRANCH  16  17
ENDBRANCH  15  16
ENDBRANCH  14  15
BRANCH   1  25
HETATM   25  C21   D T 153      -7.452  -8.908  23.516  0.85 32.23     0.419 C 
HETATM   26  F1    D T 153      -7.105  -7.896  22.780  0.85 32.23    -0.166 F 
HETATM   27  F2    D T 153      -6.560  -9.793  23.241  0.85 32.23    -0.166 F 
HETATM   28  F3    D T 153      -7.147  -8.537  24.728  0.85 32.23    -0.166 F 
ENDBRANCH   1  25
TORSDOF 10
ENDMDL
