MODEL 1
REMARK VINA RESULT:    -6.976      0.000      0.000
REMARK INTER + INTRA:         -10.156
REMARK INTER:                  -9.015
REMARK INTRA:                  -1.141
REMARK UNBOUND:                -1.141
REMARK  10 active torsions:
REMARK  status: ('A' for Active; 'I' for Inactive)
REMARK    1  A    between atoms: C1_1  and  C21_25 
REMARK    2  A    between atoms: N1_14  and  C13_15 
REMARK    3  A    between atoms: C13_15  and  C14_16 
REMARK    4  A    between atoms: C14_16  and  C15_17 
REMARK    5  A    between atoms: C15_17  and  N2_18 
REMARK    6  A    between atoms: C1_29  and  C21_53 
REMARK    7  A    between atoms: N1_42  and  C13_43 
REMARK    8  A    between atoms: C13_43  and  C14_44 
REMARK    9  A    between atoms: C14_44  and  C15_45 
REMARK   10  A    between atoms: C15_45  and  N2_46 
ROOT
HETATM    1  C1    D T 153      26.483   6.743 -12.421  0.85 32.23     0.073 C 
HETATM    2  C2    D T 153      27.136   6.497 -13.628  0.85 32.23     0.004 C 
HETATM    3  C3    D T 153      28.361   5.874 -13.604  0.85 32.23     0.008 C 
HETATM    4  C4    D T 153      28.741   5.153 -12.485  0.85 32.23     0.045 C 
HETATM    5  C5    D T 153      28.012   5.245 -11.293  0.85 32.23     0.066 C 
HETATM    6  C6    D T 153      26.881   6.087 -11.251  0.85 32.23     0.022 C 
HETATM    7  S     D T 153      30.154   4.105 -12.624  0.85 32.23    -0.084 SA
HETATM    8  C7    D T 153      29.924   2.962 -11.332  0.85 32.23     0.045 C 
HETATM    9  C8    D T 153      30.503   1.691 -11.474  0.85 32.23     0.008 C 
HETATM   10  C9    D T 153      30.259   0.704 -10.539  0.85 32.23     0.001 C 
HETATM   11  C10   D T 153      29.393   0.968  -9.488  0.85 32.23     0.002 C 
HETATM   12  C11   D T 153      28.908   2.254  -9.306  0.85 32.23     0.018 C 
HETATM   13  C12   D T 153      29.184   3.321 -10.194  0.85 32.23     0.066 C 
HETATM   14  N1    D T 153      28.557   4.670 -10.093  0.85 82.40    -0.327 N 
ENDROOT
BRANCH  14  15
HETATM   15  C13   D T 153      27.896   5.066  -8.847  0.85 82.40     0.108 C 
BRANCH  15  16
HETATM   16  C14   D T 153      28.791   5.957  -7.976  0.85 82.40     0.060 C 
BRANCH  16  17
HETATM   17  C15   D T 153      28.615   7.458  -8.276  0.85 82.40     0.252 C 
BRANCH  17  18
HETATM   18  N2    D T 153      29.816   8.174  -8.637  0.85 82.40     0.141 N 
HETATM   19  C16   D T 153      29.867   8.187 -10.071  0.85 82.40     0.285 C 
HETATM   20  C17   D T 153      30.987   8.995 -10.520  0.85 82.40     0.285 C 
HETATM   21  N3    D T 153      31.673   9.561  -9.393  0.85 82.40     0.143 N 
HETATM   22  C18   D T 153      30.747  10.350  -8.634  0.85 82.40     0.285 C 
HETATM   23  C20   D T 153      32.641  10.465  -9.916  0.85 82.40     0.285 C 
HETATM   24  C19   D T 153      29.660   9.518  -8.155  0.85 82.40     0.285 C 
ENDBRANCH  17  18
ENDBRANCH  16  17
ENDBRANCH  15  16
ENDBRANCH  14  15
BRANCH   1  25
HETATM   25  C21   D T 153      25.385   7.697 -12.385  0.85 32.23     0.419 C 
HETATM   26  F1    D T 153      24.242   7.224 -12.785  0.85 32.23    -0.166 F 
HETATM   27  F2    D T 153      25.557   8.727 -13.134  0.85 32.23    -0.166 F 
HETATM   28  F3    D T 153      25.121   8.212 -11.218  0.85 32.23    -0.166 F 
ENDBRANCH   1  25
TORSDOF 10
ENDMDL
MODEL 2
REMARK VINA RESULT:    -6.614      2.102      2.825
REMARK INTER + INTRA:          -9.689
REMARK INTER:                  -8.711
REMARK INTRA:                  -0.978
REMARK UNBOUND:                -1.141
REMARK  10 active torsions:
REMARK  status: ('A' for Active; 'I' for Inactive)
REMARK    1  A    between atoms: C1_1  and  C21_25 
REMARK    2  A    between atoms: N1_14  and  C13_15 
REMARK    3  A    between atoms: C13_15  and  C14_16 
REMARK    4  A    between atoms: C14_16  and  C15_17 
REMARK    5  A    between atoms: C15_17  and  N2_18 
REMARK    6  A    between atoms: C1_29  and  C21_53 
REMARK    7  A    between atoms: N1_42  and  C13_43 
REMARK    8  A    between atoms: C13_43  and  C14_44 
REMARK    9  A    between atoms: C14_44  and  C15_45 
REMARK   10  A    between atoms: C15_45  and  N2_46 
ROOT
HETATM    1  C1    D T 153      26.453   6.865 -12.293  0.85 32.23     0.073 C 
HETATM    2  C2    D T 153      27.047   6.572 -13.520  0.85 32.23     0.004 C 
HETATM    3  C3    D T 153      28.256   5.920 -13.531  0.85 32.23     0.008 C 
HETATM    4  C4    D T 153      28.668   5.219 -12.411  0.85 32.23     0.045 C 
HETATM    5  C5    D T 153      27.993   5.360 -11.191  0.85 32.23     0.066 C 
HETATM    6  C6    D T 153      26.886   6.231 -11.124  0.85 32.23     0.022 C 
HETATM    7  S     D T 153      30.048   4.133 -12.582  0.85 32.23    -0.084 SA
HETATM    8  C7    D T 153      29.848   3.030 -11.251  0.85 32.23     0.045 C 
HETATM    9  C8    D T 153      30.390   1.743 -11.383  0.85 32.23     0.008 C 
HETATM   10  C9    D T 153      30.164   0.787 -10.411  0.85 32.23     0.001 C 
HETATM   11  C10   D T 153      29.352   1.099  -9.331  0.85 32.23     0.002 C 
HETATM   12  C11   D T 153      28.905   2.401  -9.164  0.85 32.23     0.018 C 
HETATM   13  C12   D T 153      29.167   3.438 -10.092  0.85 32.23     0.066 C 
HETATM   14  N1    D T 153      28.577   4.803 -10.000  0.85 82.40    -0.327 N 
ENDROOT
BRANCH  14  15
HETATM   15  C13   D T 153      27.981   5.248  -8.739  0.85 82.40     0.108 C 
BRANCH  15  16
HETATM   16  C14   D T 153      29.029   5.818  -7.774  0.85 82.40     0.060 C 
BRANCH  16  17
HETATM   17  C15   D T 153      28.422   6.770  -6.725  0.85 82.40     0.252 C 
BRANCH  17  18
HETATM   18  N2    D T 153      27.348   7.616  -7.189  0.85 82.40     0.141 N 
HETATM   19  C16   D T 153      26.257   7.428  -6.277  0.85 82.40     0.285 C 
HETATM   20  C17   D T 153      25.173   8.337  -6.605  0.85 82.40     0.285 C 
HETATM   21  N3    D T 153      25.543   9.170  -7.714  0.85 82.40     0.143 N 
HETATM   22  C18   D T 153      26.733   9.895  -7.374  0.85 82.40     0.285 C 
HETATM   23  C20   D T 153      24.510  10.137  -7.862  0.85 82.40     0.285 C 
HETATM   24  C19   D T 153      27.817   8.971  -7.095  0.85 82.40     0.285 C 
ENDBRANCH  17  18
ENDBRANCH  16  17
ENDBRANCH  15  16
ENDBRANCH  14  15
BRANCH   1  25
HETATM   25  C21   D T 153      25.379   7.846 -12.236  0.85 32.23     0.419 C 
HETATM   26  F1    D T 153      24.213   7.396 -12.590  0.85 32.23    -0.166 F 
HETATM   27  F2    D T 153      25.552   8.861 -13.007  0.85 32.23    -0.166 F 
HETATM   28  F3    D T 153      25.168   8.386 -11.069  0.85 32.23    -0.166 F 
ENDBRANCH   1  25
TORSDOF 10
ENDMDL
MODEL 3
REMARK VINA RESULT:    -6.570      1.237      1.757
REMARK INTER + INTRA:          -9.632
REMARK INTER:                  -8.822
REMARK INTRA:                  -0.810
REMARK UNBOUND:                -1.141
REMARK  10 active torsions:
REMARK  status: ('A' for Active; 'I' for Inactive)
REMARK    1  A    between atoms: C1_1  and  C21_25 
REMARK    2  A    between atoms: N1_14  and  C13_15 
REMARK    3  A    between atoms: C13_15  and  C14_16 
REMARK    4  A    between atoms: C14_16  and  C15_17 
REMARK    5  A    between atoms: C15_17  and  N2_18 
REMARK    6  A    between atoms: C1_29  and  C21_53 
REMARK    7  A    between atoms: N1_42  and  C13_43 
REMARK    8  A    between atoms: C13_43  and  C14_44 
REMARK    9  A    between atoms: C14_44  and  C15_45 
REMARK   10  A    between atoms: C15_45  and  N2_46 
ROOT
HETATM    1  C1    D T 153      26.498   6.725 -12.471  0.85 32.23     0.073 C 
HETATM    2  C2    D T 153      27.224   6.548 -13.649  0.85 32.23     0.004 C 
HETATM    3  C3    D T 153      28.461   5.953 -13.581  0.85 32.23     0.008 C 
HETATM    4  C4    D T 153      28.797   5.194 -12.474  0.85 32.23     0.045 C 
HETATM    5  C5    D T 153      28.001   5.217 -11.322  0.85 32.23     0.066 C 
HETATM    6  C6    D T 153      26.848   6.030 -11.309  0.85 32.23     0.022 C 
HETATM    7  S     D T 153      30.242   4.187 -12.576  0.85 32.23    -0.084 SA
HETATM    8  C7    D T 153      29.971   2.984 -11.348  0.85 32.23     0.045 C 
HETATM    9  C8    D T 153      30.590   1.735 -11.510  0.85 32.23     0.008 C 
HETATM   10  C9    D T 153      30.320   0.703 -10.631  0.85 32.23     0.001 C 
HETATM   11  C10   D T 153      29.391   0.900  -9.620  0.85 32.23     0.002 C 
HETATM   12  C11   D T 153      28.863   2.165  -9.413  0.85 32.23     0.018 C 
HETATM   13  C12   D T 153      29.160   3.277 -10.240  0.85 32.23     0.066 C 
HETATM   14  N1    D T 153      28.493   4.604 -10.118  0.85 82.40    -0.327 N 
ENDROOT
BRANCH  14  15
HETATM   15  C13   D T 153      27.754   4.931  -8.896  0.85 82.40     0.108 C 
BRANCH  15  16
HETATM   16  C14   D T 153      28.520   5.917  -8.004  0.85 82.40     0.060 C 
BRANCH  16  17
HETATM   17  C15   D T 153      27.944   7.345  -8.058  0.85 82.40     0.252 C 
BRANCH  17  18
HETATM   18  N2    D T 153      28.664   8.344  -7.304  0.85 82.40     0.141 N 
HETATM   19  C16   D T 153      29.540   9.002  -8.230  0.85 82.40     0.285 C 
HETATM   20  C17   D T 153      30.217  10.106  -7.574  0.85 82.40     0.285 C 
HETATM   21  N3    D T 153      29.772  10.223  -6.214  0.85 82.40     0.143 N 
HETATM   22  C18   D T 153      28.351  10.417  -6.205  0.85 82.40     0.285 C 
HETATM   23  C20   D T 153      30.346  11.418  -5.696  0.85 82.40     0.285 C 
HETATM   24  C19   D T 153      27.689   9.283  -6.822  0.85 82.40     0.285 C 
ENDBRANCH  17  18
ENDBRANCH  16  17
ENDBRANCH  15  16
ENDBRANCH  14  15
BRANCH   1  25
HETATM   25  C21   D T 153      25.375   7.651 -12.458  0.85 32.23     0.419 C 
HETATM   26  F1    D T 153      25.071   8.118 -11.284  0.85 32.23    -0.166 F 
HETATM   27  F2    D T 153      24.268   7.142 -12.870  0.85 32.23    -0.166 F 
HETATM   28  F3    D T 153      25.511   8.716 -13.196  0.85 32.23    -0.166 F 
ENDBRANCH   1  25
TORSDOF 10
ENDMDL
MODEL 4
REMARK VINA RESULT:    -6.541      2.500      4.400
REMARK INTER + INTRA:          -9.594
REMARK INTER:                  -8.676
REMARK INTRA:                  -0.918
REMARK UNBOUND:                -1.141
REMARK  10 active torsions:
REMARK  status: ('A' for Active; 'I' for Inactive)
REMARK    1  A    between atoms: C1_1  and  C21_25 
REMARK    2  A    between atoms: N1_14  and  C13_15 
REMARK    3  A    between atoms: C13_15  and  C14_16 
REMARK    4  A    between atoms: C14_16  and  C15_17 
REMARK    5  A    between atoms: C15_17  and  N2_18 
REMARK    6  A    between atoms: C1_29  and  C21_53 
REMARK    7  A    between atoms: N1_42  and  C13_43 
REMARK    8  A    between atoms: C13_43  and  C14_44 
REMARK    9  A    between atoms: C14_44  and  C15_45 
REMARK   10  A    between atoms: C15_45  and  N2_46 
ROOT
HETATM    1  C1    D T 153      26.487   6.749 -12.446  0.85 32.23     0.073 C 
HETATM    2  C2    D T 153      27.207   6.563 -13.625  0.85 32.23     0.004 C 
HETATM    3  C3    D T 153      28.442   5.965 -13.560  0.85 32.23     0.008 C 
HETATM    4  C4    D T 153      28.780   5.210 -12.451  0.85 32.23     0.045 C 
HETATM    5  C5    D T 153      27.988   5.241 -11.295  0.85 32.23     0.066 C 
HETATM    6  C6    D T 153      26.838   6.058 -11.282  0.85 32.23     0.022 C 
HETATM    7  S     D T 153      30.221   4.198 -12.554  0.85 32.23    -0.084 SA
HETATM    8  C7    D T 153      29.951   3.001 -11.319  0.85 32.23     0.045 C 
HETATM    9  C8    D T 153      30.566   1.750 -11.477  0.85 32.23     0.008 C 
HETATM   10  C9    D T 153      30.296   0.723 -10.593  0.85 32.23     0.001 C 
HETATM   11  C10   D T 153      29.371   0.928  -9.579  0.85 32.23     0.002 C 
HETATM   12  C11   D T 153      28.848   2.196  -9.376  0.85 32.23     0.018 C 
HETATM   13  C12   D T 153      29.145   3.302 -10.209  0.85 32.23     0.066 C 
HETATM   14  N1    D T 153      28.484   4.633 -10.090  0.85 82.40    -0.327 N 
ENDROOT
BRANCH  14  15
HETATM   15  C13   D T 153      27.751   4.967  -8.867  0.85 82.40     0.108 C 
BRANCH  15  16
HETATM   16  C14   D T 153      28.624   5.728  -7.861  0.85 82.40     0.060 C 
BRANCH  16  17
HETATM   17  C15   D T 153      29.037   4.865  -6.653  0.85 82.40     0.252 C 
BRANCH  17  18
HETATM   18  N2    D T 153      27.964   4.173  -5.977  0.85 82.40     0.141 N 
HETATM   19  C16   D T 153      28.449   2.855  -5.686  0.85 82.40     0.285 C 
HETATM   20  C17   D T 153      27.470   2.129  -4.896  0.85 82.40     0.285 C 
HETATM   21  N3    D T 153      26.338   2.968  -4.618  0.85 82.40     0.143 N 
HETATM   22  C18   D T 153      26.787   4.139  -3.924  0.85 82.40     0.285 C 
HETATM   23  C20   D T 153      25.511   2.250  -3.708  0.85 82.40     0.285 C 
HETATM   24  C19   D T 153      27.729   4.875  -4.746  0.85 82.40     0.285 C 
ENDBRANCH  17  18
ENDBRANCH  16  17
ENDBRANCH  15  16
ENDBRANCH  14  15
BRANCH   1  25
HETATM   25  C21   D T 153      25.366   7.678 -12.432  0.85 32.23     0.419 C 
HETATM   26  F1    D T 153      24.243   7.180 -12.856  0.85 32.23    -0.166 F 
HETATM   27  F2    D T 153      25.531   8.713 -13.178  0.85 32.23    -0.166 F 
HETATM   28  F3    D T 153      25.068   8.187 -11.270  0.85 32.23    -0.166 F 
ENDBRANCH   1  25
TORSDOF 10
ENDMDL
MODEL 5
REMARK VINA RESULT:    -6.041      3.344      6.400
REMARK INTER + INTRA:          -8.948
REMARK INTER:                  -7.863
REMARK INTRA:                  -1.085
REMARK UNBOUND:                -1.141
REMARK  10 active torsions:
REMARK  status: ('A' for Active; 'I' for Inactive)
REMARK    1  A    between atoms: C1_1  and  C21_25 
REMARK    2  A    between atoms: N1_14  and  C13_15 
REMARK    3  A    between atoms: C13_15  and  C14_16 
REMARK    4  A    between atoms: C14_16  and  C15_17 
REMARK    5  A    between atoms: C15_17  and  N2_18 
REMARK    6  A    between atoms: C1_29  and  C21_53 
REMARK    7  A    between atoms: N1_42  and  C13_43 
REMARK    8  A    between atoms: C13_43  and  C14_44 
REMARK    9  A    between atoms: C14_44  and  C15_45 
REMARK   10  A    between atoms: C15_45  and  N2_46 
ROOT
HETATM    1  C1    D T 153      31.015  10.489  -8.166  0.85 32.23     0.073 C 
HETATM    2  C2    D T 153      32.047  10.163  -9.046  0.85 32.23     0.004 C 
HETATM    3  C3    D T 153      31.960   8.995  -9.765  0.85 32.23     0.008 C 
HETATM    4  C4    D T 153      30.731   8.380  -9.927  0.85 32.23     0.045 C 
HETATM    5  C5    D T 153      29.621   8.789  -9.176  0.85 32.23     0.066 C 
HETATM    6  C6    D T 153      29.778   9.841  -8.249  0.85 32.23     0.022 C 
HETATM    7  S     D T 153      30.611   7.086 -11.121  0.85 32.23    -0.084 SA
HETATM    8  C7    D T 153      28.907   7.035 -11.475  0.85 32.23     0.045 C 
HETATM    9  C8    D T 153      28.517   6.558 -12.736  0.85 32.23     0.008 C 
HETATM   10  C9    D T 153      27.190   6.603 -13.119  0.85 32.23     0.001 C 
HETATM   11  C10   D T 153      26.258   7.172 -12.264  0.85 32.23     0.002 C 
HETATM   12  C11   D T 153      26.641   7.548 -10.985  0.85 32.23     0.018 C 
HETATM   13  C12   D T 153      27.973   7.458 -10.515  0.85 32.23     0.066 C 
HETATM   14  N1    D T 153      28.427   7.988  -9.198  0.85 82.40    -0.327 N 
ENDROOT
BRANCH  14  15
HETATM   15  C13   D T 153      27.436   8.305  -8.168  0.85 82.40     0.108 C 
BRANCH  15  16
HETATM   16  C14   D T 153      27.202   7.131  -7.208  0.85 82.40     0.060 C 
BRANCH  16  17
HETATM   17  C15   D T 153      28.427   6.204  -7.088  0.85 82.40     0.252 C 
BRANCH  17  18
HETATM   18  N2    D T 153      28.319   4.928  -7.756  0.85 82.40     0.141 N 
HETATM   19  C16   D T 153      29.615   4.643  -8.303  0.85 82.40     0.285 C 
HETATM   20  C17   D T 153      29.624   3.316  -8.891  0.85 82.40     0.285 C 
HETATM   21  N3    D T 153      28.348   2.684  -8.709  0.85 82.40     0.143 N 
HETATM   22  C18   D T 153      28.057   2.618  -7.307  0.85 82.40     0.285 C 
HETATM   23  C20   D T 153      28.489   1.340  -9.156  0.85 82.40     0.285 C 
HETATM   24  C19   D T 153      28.006   3.955  -6.746  0.85 82.40     0.285 C 
ENDBRANCH  17  18
ENDBRANCH  16  17
ENDBRANCH  15  16
ENDBRANCH  14  15
BRANCH   1  25
HETATM   25  C21   D T 153      31.238  11.507  -7.150  0.85 32.23     0.419 C 
HETATM   26  F1    D T 153      31.683  12.640  -7.606  0.85 32.23    -0.166 F 
HETATM   27  F2    D T 153      32.109  11.183  -6.262  0.85 32.23    -0.166 F 
HETATM   28  F3    D T 153      30.195  11.840  -6.444  0.85 32.23    -0.166 F 
ENDBRANCH   1  25
TORSDOF 10
ENDMDL
MODEL 6
REMARK VINA RESULT:    -5.905      2.393      6.303
REMARK INTER + INTRA:          -8.772
REMARK INTER:                  -7.618
REMARK INTRA:                  -1.153
REMARK UNBOUND:                -1.141
REMARK  10 active torsions:
REMARK  status: ('A' for Active; 'I' for Inactive)
REMARK    1  A    between atoms: C1_1  and  C21_25 
REMARK    2  A    between atoms: N1_14  and  C13_15 
REMARK    3  A    between atoms: C13_15  and  C14_16 
REMARK    4  A    between atoms: C14_16  and  C15_17 
REMARK    5  A    between atoms: C15_17  and  N2_18 
REMARK    6  A    between atoms: C1_29  and  C21_53 
REMARK    7  A    between atoms: N1_42  and  C13_43 
REMARK    8  A    between atoms: C13_43  and  C14_44 
REMARK    9  A    between atoms: C14_44  and  C15_45 
REMARK   10  A    between atoms: C15_45  and  N2_46 
ROOT
HETATM    1  C1    D T 153      27.926   7.185 -11.532  0.85 32.23     0.073 C 
HETATM    2  C2    D T 153      26.933   7.298 -10.560  0.85 32.23     0.004 C 
HETATM    3  C3    D T 153      27.303   7.548  -9.261  0.85 32.23     0.008 C 
HETATM    4  C4    D T 153      28.555   8.075  -8.994  0.85 32.23     0.045 C 
HETATM    5  C5    D T 153      29.536   8.131  -9.993  0.85 32.23     0.066 C 
HETATM    6  C6    D T 153      29.224   7.641 -11.279  0.85 32.23     0.022 C 
HETATM    7  S     D T 153      28.859   8.687  -7.367  0.85 32.23    -0.084 SA
HETATM    8  C7    D T 153      30.193   9.781  -7.602  0.85 32.23     0.045 C 
HETATM    9  C8    D T 153      30.334  10.842  -6.694  0.85 32.23     0.008 C 
HETATM   10  C9    D T 153      31.301  11.808  -6.895  0.85 32.23     0.001 C 
HETATM   11  C10   D T 153      32.094  11.746  -8.032  0.85 32.23     0.002 C 
HETATM   12  C11   D T 153      32.010  10.641  -8.866  0.85 32.23     0.018 C 
HETATM   13  C12   D T 153      31.086   9.586  -8.668  0.85 32.23     0.066 C 
HETATM   14  N1    D T 153      30.886   8.466  -9.630  0.85 82.40    -0.327 N 
ENDROOT
BRANCH  14  15
HETATM   15  C13   D T 153      31.897   8.209 -10.658  0.85 82.40     0.108 C 
BRANCH  15  16
HETATM   16  C14   D T 153      32.742   6.968 -10.340  0.85 82.40     0.060 C 
BRANCH  16  17
HETATM   17  C15   D T 153      32.610   5.864 -11.406  0.85 82.40     0.252 C 
BRANCH  17  18
HETATM   18  N2    D T 153      31.391   5.090 -11.364  0.85 82.40     0.141 N 
HETATM   19  C16   D T 153      31.612   3.935 -12.185  0.85 82.40     0.285 C 
HETATM   20  C17   D T 153      30.472   3.040 -12.100  0.85 82.40     0.285 C 
HETATM   21  N3    D T 153      29.494   3.568 -11.190  0.85 82.40     0.143 N 
HETATM   22  C18   D T 153      30.102   3.744  -9.904  0.85 82.40     0.285 C 
HETATM   23  C20   D T 153      28.498   2.564 -11.033  0.85 82.40     0.285 C 
HETATM   24  C19   D T 153      31.210   4.676  -9.999  0.85 82.40     0.285 C 
ENDBRANCH  17  18
ENDBRANCH  16  17
ENDBRANCH  15  16
ENDBRANCH  14  15
BRANCH   1  25
HETATM   25  C21   D T 153      27.603   6.579 -12.815  0.85 32.23     0.419 C 
HETATM   26  F1    D T 153      26.431   6.890 -13.282  0.85 32.23    -0.166 F 
HETATM   27  F2    D T 153      27.585   5.294 -12.801  0.85 32.23    -0.166 F 
HETATM   28  F3    D T 153      28.417   6.860 -13.794  0.85 32.23    -0.166 F 
ENDBRANCH   1  25
TORSDOF 10
ENDMDL
MODEL 7
REMARK VINA RESULT:    -5.819      3.800      6.718
REMARK INTER + INTRA:          -8.661
REMARK INTER:                  -7.713
REMARK INTRA:                  -0.948
REMARK UNBOUND:                -1.141
REMARK  10 active torsions:
REMARK  status: ('A' for Active; 'I' for Inactive)
REMARK    1  A    between atoms: C1_1  and  C21_25 
REMARK    2  A    between atoms: N1_14  and  C13_15 
REMARK    3  A    between atoms: C13_15  and  C14_16 
REMARK    4  A    between atoms: C14_16  and  C15_17 
REMARK    5  A    between atoms: C15_17  and  N2_18 
REMARK    6  A    between atoms: C1_29  and  C21_53 
REMARK    7  A    between atoms: N1_42  and  C13_43 
REMARK    8  A    between atoms: C13_43  and  C14_44 
REMARK    9  A    between atoms: C14_44  and  C15_45 
REMARK   10  A    between atoms: C15_45  and  N2_46 
ROOT
HETATM    1  C1    D T 153      31.045  10.516  -8.137  0.85 32.23     0.073 C 
HETATM    2  C2    D T 153      32.086  10.168  -8.997  0.85 32.23     0.004 C 
HETATM    3  C3    D T 153      32.001   8.989  -9.696  0.85 32.23     0.008 C 
HETATM    4  C4    D T 153      30.770   8.378  -9.864  0.85 32.23     0.045 C 
HETATM    5  C5    D T 153      29.654   8.807  -9.135  0.85 32.23     0.066 C 
HETATM    6  C6    D T 153      29.805   9.874  -8.225  0.85 32.23     0.022 C 
HETATM    7  S     D T 153      30.658   7.065 -11.037  0.85 32.23    -0.084 SA
HETATM    8  C7    D T 153      28.959   7.018 -11.413  0.85 32.23     0.045 C 
HETATM    9  C8    D T 153      28.582   6.522 -12.670  0.85 32.23     0.008 C 
HETATM   10  C9    D T 153      27.260   6.569 -13.072  0.85 32.23     0.001 C 
HETATM   11  C10   D T 153      26.320   7.158 -12.239  0.85 32.23     0.002 C 
HETATM   12  C11   D T 153      26.689   7.554 -10.962  0.85 32.23     0.018 C 
HETATM   13  C12   D T 153      28.015   7.464 -10.473  0.85 32.23     0.066 C 
HETATM   14  N1    D T 153      28.455   8.013  -9.159  0.85 82.40    -0.327 N 
ENDROOT
BRANCH  14  15
HETATM   15  C13   D T 153      27.452   8.355  -8.148  0.85 82.40     0.108 C 
BRANCH  15  16
HETATM   16  C14   D T 153      27.130   7.168  -7.230  0.85 82.40     0.060 C 
BRANCH  16  17
HETATM   17  C15   D T 153      28.381   6.582  -6.547  0.85 82.40     0.252 C 
BRANCH  17  18
HETATM   18  N2    D T 153      28.233   5.257  -5.993  0.85 82.40     0.141 N 
HETATM   19  C16   D T 153      27.004   5.260  -5.252  0.85 82.40     0.285 C 
HETATM   20  C17   D T 153      26.719   3.923  -4.759  0.85 82.40     0.285 C 
HETATM   21  N3    D T 153      27.733   3.006  -5.199  0.85 82.40     0.143 N 
HETATM   22  C18   D T 153      27.784   3.022  -6.632  0.85 82.40     0.285 C 
HETATM   23  C20   D T 153      27.296   1.704  -4.825  0.85 82.40     0.285 C 
HETATM   24  C19   D T 153      28.116   4.353  -7.104  0.85 82.40     0.285 C 
ENDBRANCH  17  18
ENDBRANCH  16  17
ENDBRANCH  15  16
ENDBRANCH  14  15
BRANCH   1  25
HETATM   25  C21   D T 153      31.262  11.550  -7.135  0.85 32.23     0.419 C 
HETATM   26  F1    D T 153      32.154  11.257  -6.238  0.85 32.23    -0.166 F 
HETATM   27  F2    D T 153      30.220  11.833  -6.436  0.85 32.23    -0.166 F 
HETATM   28  F3    D T 153      31.643  12.709  -7.593  0.85 32.23    -0.166 F 
ENDBRANCH   1  25
TORSDOF 10
ENDMDL
MODEL 8
REMARK VINA RESULT:    -5.776      1.855      2.637
REMARK INTER + INTRA:          -8.605
REMARK INTER:                  -7.530
REMARK INTRA:                  -1.076
REMARK UNBOUND:                -1.141
REMARK  10 active torsions:
REMARK  status: ('A' for Active; 'I' for Inactive)
REMARK    1  A    between atoms: C1_1  and  C21_25 
REMARK    2  A    between atoms: N1_14  and  C13_15 
REMARK    3  A    between atoms: C13_15  and  C14_16 
REMARK    4  A    between atoms: C14_16  and  C15_17 
REMARK    5  A    between atoms: C15_17  and  N2_18 
REMARK    6  A    between atoms: C1_29  and  C21_53 
REMARK    7  A    between atoms: N1_42  and  C13_43 
REMARK    8  A    between atoms: C13_43  and  C14_44 
REMARK    9  A    between atoms: C14_44  and  C15_45 
REMARK   10  A    between atoms: C15_45  and  N2_46 
ROOT
HETATM    1  C1    D T 153      27.424   5.815 -11.558  0.85 32.23     0.073 C 
HETATM    2  C2    D T 153      28.092   4.787 -12.221  0.85 32.23     0.004 C 
HETATM    3  C3    D T 153      28.992   4.021 -11.520  0.85 32.23     0.008 C 
HETATM    4  C4    D T 153      28.935   3.991 -10.137  0.85 32.23     0.045 C 
HETATM    5  C5    D T 153      28.142   4.906  -9.433  0.85 32.23     0.066 C 
HETATM    6  C6    D T 153      27.401   5.862 -10.160  0.85 32.23     0.022 C 
HETATM    7  S     D T 153      29.875   2.752  -9.303  0.85 32.23    -0.084 SA
HETATM    8  C7    D T 153      29.080   2.629  -7.759  0.85 32.23     0.045 C 
HETATM    9  C8    D T 153      29.169   1.407  -7.075  0.85 32.23     0.008 C 
HETATM   10  C9    D T 153      28.464   1.209  -5.903  0.85 32.23     0.001 C 
HETATM   11  C10   D T 153      27.626   2.214  -5.441  0.85 32.23     0.002 C 
HETATM   12  C11   D T 153      27.623   3.448  -6.072  0.85 32.23     0.018 C 
HETATM   13  C12   D T 153      28.381   3.728  -7.235  0.85 32.23     0.066 C 
HETATM   14  N1    D T 153      28.281   5.000  -8.005  0.85 82.40    -0.327 N 
ENDROOT
BRANCH  14  15
HETATM   15  C13   D T 153      27.656   6.171  -7.386  0.85 82.40     0.108 C 
BRANCH  15  16
HETATM   16  C14   D T 153      28.680   7.263  -7.048  0.85 82.40     0.060 C 
BRANCH  16  17
HETATM   17  C15   D T 153      28.362   8.611  -7.723  0.85 82.40     0.252 C 
BRANCH  17  18
HETATM   18  N2    D T 153      29.458   9.237  -8.426  0.85 82.40     0.141 N 
HETATM   19  C16   D T 153      30.583   9.208  -7.536  0.85 82.40     0.285 C 
HETATM   20  C17   D T 153      31.765   9.712  -8.213  0.85 82.40     0.285 C 
HETATM   21  N3    D T 153      31.451  10.045  -9.574  0.85 82.40     0.143 N 
HETATM   22  C18   D T 153      30.944   8.877 -10.233  0.85 82.40     0.285 C 
HETATM   23  C20   D T 153      32.683  10.365 -10.211  0.85 82.40     0.285 C 
HETATM   24  C19   D T 153      29.738   8.415  -9.572  0.85 82.40     0.285 C 
ENDBRANCH  17  18
ENDBRANCH  16  17
ENDBRANCH  15  16
ENDBRANCH  14  15
BRANCH   1  25
HETATM   25  C21   D T 153      26.753   6.848 -12.334  0.85 32.23     0.419 C 
HETATM   26  F1    D T 153      25.578   6.516 -12.776  0.85 32.23    -0.166 F 
HETATM   27  F2    D T 153      27.383   7.198 -13.399  0.85 32.23    -0.166 F 
HETATM   28  F3    D T 153      26.551   7.977 -11.716  0.85 32.23    -0.166 F 
ENDBRANCH   1  25
TORSDOF 10
ENDMDL
MODEL 9
REMARK VINA RESULT:    -5.706      2.304      3.903
REMARK INTER + INTRA:          -8.515
REMARK INTER:                  -7.437
REMARK INTRA:                  -1.078
REMARK UNBOUND:                -1.141
REMARK  10 active torsions:
REMARK  status: ('A' for Active; 'I' for Inactive)
REMARK    1  A    between atoms: C1_1  and  C21_25 
REMARK    2  A    between atoms: N1_14  and  C13_15 
REMARK    3  A    between atoms: C13_15  and  C14_16 
REMARK    4  A    between atoms: C14_16  and  C15_17 
REMARK    5  A    between atoms: C15_17  and  N2_18 
REMARK    6  A    between atoms: C1_29  and  C21_53 
REMARK    7  A    between atoms: N1_42  and  C13_43 
REMARK    8  A    between atoms: C13_43  and  C14_44 
REMARK    9  A    between atoms: C14_44  and  C15_45 
REMARK   10  A    between atoms: C15_45  and  N2_46 
ROOT
HETATM    1  C1    D T 153      27.565   5.897 -11.579  0.85 32.23     0.073 C 
HETATM    2  C2    D T 153      27.967   4.564 -11.506  0.85 32.23     0.004 C 
HETATM    3  C3    D T 153      28.498   4.096 -10.329  0.85 32.23     0.008 C 
HETATM    4  C4    D T 153      28.265   4.783  -9.150  0.85 32.23     0.045 C 
HETATM    5  C5    D T 153      27.707   6.068  -9.170  0.85 32.23     0.066 C 
HETATM    6  C6    D T 153      27.386   6.650 -10.414  0.85 32.23     0.022 C 
HETATM    7  S     D T 153      28.675   3.978  -7.635  0.85 32.23    -0.084 SA
HETATM    8  C7    D T 153      27.696   4.819  -6.466  0.85 32.23     0.045 C 
HETATM    9  C8    D T 153      27.327   4.125  -5.304  0.85 32.23     0.008 C 
HETATM   10  C9    D T 153      26.456   4.697  -4.396  0.85 32.23     0.001 C 
HETATM   11  C10   D T 153      25.912   5.942  -4.673  0.85 32.23     0.002 C 
HETATM   12  C11   D T 153      26.361   6.657  -5.773  0.85 32.23     0.018 C 
HETATM   13  C12   D T 153      27.305   6.148  -6.698  0.85 32.23     0.066 C 
HETATM   14  N1    D T 153      27.691   6.843  -7.959  0.85 82.40    -0.327 N 
ENDROOT
BRANCH  14  15
HETATM   15  C13   D T 153      27.379   8.264  -8.123  0.85 82.40     0.108 C 
BRANCH  15  16
HETATM   16  C14   D T 153      28.507   9.167  -7.608  0.85 82.40     0.060 C 
BRANCH  16  17
HETATM   17  C15   D T 153      29.860   8.436  -7.504  0.85 82.40     0.252 C 
BRANCH  17  18
HETATM   18  N2    D T 153      30.921   8.954  -8.335  0.85 82.40     0.141 N 
HETATM   19  C16   D T 153      30.620   8.552  -9.679  0.85 82.40     0.285 C 
HETATM   20  C17   D T 153      31.579   9.137 -10.599  0.85 82.40     0.285 C 
HETATM   21  N3    D T 153      32.507   9.968  -9.885  0.85 82.40     0.143 N 
HETATM   22  C18   D T 153      31.778  10.988  -9.190  0.85 82.40     0.285 C 
HETATM   23  C20   D T 153      33.298  10.632 -10.864  0.85 82.40     0.285 C 
HETATM   24  C19   D T 153      30.859  10.387  -8.243  0.85 82.40     0.285 C 
ENDBRANCH  17  18
ENDBRANCH  16  17
ENDBRANCH  15  16
ENDBRANCH  14  15
BRANCH   1  25
HETATM   25  C21   D T 153      27.340   6.504 -12.882  0.85 32.23     0.419 C 
HETATM   26  F1    D T 153      26.105   6.830 -13.123  0.85 32.23    -0.166 F 
HETATM   27  F2    D T 153      27.645   5.748 -13.876  0.85 32.23    -0.166 F 
HETATM   28  F3    D T 153      28.007   7.599 -13.119  0.85 32.23    -0.166 F 
ENDBRANCH   1  25
TORSDOF 10
ENDMDL
