MODEL 1
REMARK VINA RESULT:    -6.973      0.000      0.000
REMARK INTER + INTRA:         -10.156
REMARK INTER:                  -9.011
REMARK INTRA:                  -1.145
REMARK UNBOUND:                -1.145
REMARK  10 active torsions:
REMARK  status: ('A' for Active; 'I' for Inactive)
REMARK    1  A    between atoms: C1_1  and  C21_25 
REMARK    2  A    between atoms: N1_14  and  C13_15 
REMARK    3  A    between atoms: C13_15  and  C14_16 
REMARK    4  A    between atoms: C14_16  and  C15_17 
REMARK    5  A    between atoms: C15_17  and  N2_18 
REMARK    6  A    between atoms: C1_29  and  C21_53 
REMARK    7  A    between atoms: N1_42  and  C13_43 
REMARK    8  A    between atoms: C13_43  and  C14_44 
REMARK    9  A    between atoms: C14_44  and  C15_45 
REMARK   10  A    between atoms: C15_45  and  N2_46 
ROOT
HETATM    1  C1    D T 153      26.492   6.756 -12.439  0.85 32.23     0.073 C 
HETATM    2  C2    D T 153      27.132   6.518 -13.654  0.85 32.23     0.004 C 
HETATM    3  C3    D T 153      28.359   5.898 -13.647  0.85 32.23     0.008 C 
HETATM    4  C4    D T 153      28.754   5.173 -12.536  0.85 32.23     0.045 C 
HETATM    5  C5    D T 153      28.038   5.257 -11.335  0.85 32.23     0.066 C 
HETATM    6  C6    D T 153      26.905   6.097 -11.277  0.85 32.23     0.022 C 
HETATM    7  S     D T 153      30.167   4.129 -12.696  0.85 32.23    -0.084 SA
HETATM    8  C7    D T 153      29.956   2.980 -11.406  0.85 32.23     0.045 C 
HETATM    9  C8    D T 153      30.536   1.712 -11.560  0.85 32.23     0.008 C 
HETATM   10  C9    D T 153      30.305   0.720 -10.626  0.85 32.23     0.001 C 
HETATM   11  C10   D T 153      29.451   0.977  -9.564  0.85 32.23     0.002 C 
HETATM   12  C11   D T 153      28.965   2.261  -9.371  0.85 32.23     0.018 C 
HETATM   13  C12   D T 153      29.228   3.333 -10.258  0.85 32.23     0.066 C 
HETATM   14  N1    D T 153      28.598   4.679 -10.144  0.85 82.40    -0.327 N 
ENDROOT
BRANCH  14  15
HETATM   15  C13   D T 153      27.951   5.068  -8.889  0.85 82.40     0.108 C 
BRANCH  15  16
HETATM   16  C14   D T 153      28.865   5.934  -8.011  0.85 82.40     0.060 C 
BRANCH  16  17
HETATM   17  C15   D T 153      28.675   7.444  -8.256  0.85 82.40     0.252 C 
BRANCH  17  18
HETATM   18  N2    D T 153      29.863   8.175  -8.630  0.85 82.40     0.141 N 
HETATM   19  C16   D T 153      29.904   8.180 -10.064  0.85 82.40     0.285 C 
HETATM   20  C17   D T 153      31.009   9.002 -10.526  0.85 82.40     0.285 C 
HETATM   21  N3    D T 153      31.693   9.586  -9.408  0.85 82.40     0.143 N 
HETATM   22  C18   D T 153      30.761  10.365  -8.647  0.85 82.40     0.285 C 
HETATM   23  C20   D T 153      32.644  10.501  -9.942  0.85 82.40     0.285 C 
HETATM   24  C19   D T 153      29.690   9.520  -8.155  0.85 82.40     0.285 C 
ENDBRANCH  17  18
ENDBRANCH  16  17
ENDBRANCH  15  16
ENDBRANCH  14  15
BRANCH   1  25
HETATM   25  C21   D T 153      25.392   7.707 -12.386  0.85 32.23     0.419 C 
HETATM   26  F1    D T 153      24.249   7.237 -12.788  0.85 32.23    -0.166 F 
HETATM   27  F2    D T 153      25.559   8.748 -13.123  0.85 32.23    -0.166 F 
HETATM   28  F3    D T 153      25.132   8.207 -11.211  0.85 32.23    -0.166 F 
ENDBRANCH   1  25
TORSDOF 10
ENDMDL
MODEL 2
REMARK VINA RESULT:    -6.778      1.211      1.470
REMARK INTER + INTRA:          -9.904
REMARK INTER:                  -9.005
REMARK INTRA:                  -0.899
REMARK UNBOUND:                -1.145
REMARK  10 active torsions:
REMARK  status: ('A' for Active; 'I' for Inactive)
REMARK    1  A    between atoms: C1_1  and  C21_25 
REMARK    2  A    between atoms: N1_14  and  C13_15 
REMARK    3  A    between atoms: C13_15  and  C14_16 
REMARK    4  A    between atoms: C14_16  and  C15_17 
REMARK    5  A    between atoms: C15_17  and  N2_18 
REMARK    6  A    between atoms: C1_29  and  C21_53 
REMARK    7  A    between atoms: N1_42  and  C13_43 
REMARK    8  A    between atoms: C13_43  and  C14_44 
REMARK    9  A    between atoms: C14_44  and  C15_45 
REMARK   10  A    between atoms: C15_45  and  N2_46 
ROOT
HETATM    1  C1    D T 153      26.491   6.738 -12.442  0.85 32.23     0.073 C 
HETATM    2  C2    D T 153      27.230   6.546 -13.609  0.85 32.23     0.004 C 
HETATM    3  C3    D T 153      28.462   5.944 -13.521  0.85 32.23     0.008 C 
HETATM    4  C4    D T 153      28.780   5.193 -12.404  0.85 32.23     0.045 C 
HETATM    5  C5    D T 153      27.970   5.231 -11.262  0.85 32.23     0.066 C 
HETATM    6  C6    D T 153      26.822   6.051 -11.270  0.85 32.23     0.022 C 
HETATM    7  S     D T 153      30.220   4.176 -12.480  0.85 32.23    -0.084 SA
HETATM    8  C7    D T 153      29.927   2.986 -11.245  0.85 32.23     0.045 C 
HETATM    9  C8    D T 153      30.540   1.731 -11.388  0.85 32.23     0.008 C 
HETATM   10  C9    D T 153      30.253   0.709 -10.504  0.85 32.23     0.001 C 
HETATM   11  C10   D T 153      29.314   0.921  -9.506  0.85 32.23     0.002 C 
HETATM   12  C11   D T 153      28.791   2.191  -9.317  0.85 32.23     0.018 C 
HETATM   13  C12   D T 153      29.105   3.293 -10.149  0.85 32.23     0.066 C 
HETATM   14  N1    D T 153      28.445   4.626 -10.047  0.85 82.40    -0.327 N 
ENDROOT
BRANCH  14  15
HETATM   15  C13   D T 153      27.694   4.967  -8.837  0.85 82.40     0.108 C 
BRANCH  15  16
HETATM   16  C14   D T 153      28.513   5.836  -7.874  0.85 82.40     0.060 C 
BRANCH  16  17
HETATM   17  C15   D T 153      27.751   7.090  -7.402  0.85 82.40     0.252 C 
BRANCH  17  18
HETATM   18  N2    D T 153      28.567   8.232  -7.063  0.85 82.40     0.141 N 
HETATM   19  C16   D T 153      29.407   8.485  -8.198  0.85 82.40     0.285 C 
HETATM   20  C17   D T 153      30.178   9.697  -7.984  0.85 82.40     0.285 C 
HETATM   21  N3    D T 153      29.833  10.288  -6.722  0.85 82.40     0.143 N 
HETATM   22  C18   D T 153      28.427  10.569  -6.709  0.85 82.40     0.285 C 
HETATM   23  C20   D T 153      30.497  11.546  -6.664  0.85 82.40     0.285 C 
HETATM   24  C19   D T 153      27.672   9.342  -6.877  0.85 82.40     0.285 C 
ENDBRANCH  17  18
ENDBRANCH  16  17
ENDBRANCH  15  16
ENDBRANCH  14  15
BRANCH   1  25
HETATM   25  C21   D T 153      25.374   7.670 -12.450  0.85 32.23     0.419 C 
HETATM   26  F1    D T 153      24.254   7.171 -12.880  0.85 32.23    -0.166 F 
HETATM   27  F2    D T 153      25.549   8.697 -13.205  0.85 32.23    -0.166 F 
HETATM   28  F3    D T 153      25.064   8.192 -11.297  0.85 32.23    -0.166 F 
ENDBRANCH   1  25
TORSDOF 10
ENDMDL
MODEL 3
REMARK VINA RESULT:    -6.643      2.475      4.375
REMARK INTER + INTRA:          -9.729
REMARK INTER:                  -8.701
REMARK INTRA:                  -1.028
REMARK UNBOUND:                -1.145
REMARK  10 active torsions:
REMARK  status: ('A' for Active; 'I' for Inactive)
REMARK    1  A    between atoms: C1_1  and  C21_25 
REMARK    2  A    between atoms: N1_14  and  C13_15 
REMARK    3  A    between atoms: C13_15  and  C14_16 
REMARK    4  A    between atoms: C14_16  and  C15_17 
REMARK    5  A    between atoms: C15_17  and  N2_18 
REMARK    6  A    between atoms: C1_29  and  C21_53 
REMARK    7  A    between atoms: N1_42  and  C13_43 
REMARK    8  A    between atoms: C13_43  and  C14_44 
REMARK    9  A    between atoms: C14_44  and  C15_45 
REMARK   10  A    between atoms: C15_45  and  N2_46 
ROOT
HETATM    1  C1    D T 153      26.468   6.740 -12.434  0.85 32.23     0.073 C 
HETATM    2  C2    D T 153      27.179   6.511 -13.611  0.85 32.23     0.004 C 
HETATM    3  C3    D T 153      28.408   5.903 -13.535  0.85 32.23     0.008 C 
HETATM    4  C4    D T 153      28.746   5.178 -12.405  0.85 32.23     0.045 C 
HETATM    5  C5    D T 153      27.961   5.253 -11.246  0.85 32.23     0.066 C 
HETATM    6  C6    D T 153      26.819   6.082 -11.251  0.85 32.23     0.022 C 
HETATM    7  S     D T 153      30.176   4.149 -12.485  0.85 32.23    -0.084 SA
HETATM    8  C7    D T 153      29.901   2.994 -11.212  0.85 32.23     0.045 C 
HETATM    9  C8    D T 153      30.502   1.731 -11.336  0.85 32.23     0.008 C 
HETATM   10  C9    D T 153      30.227   0.735 -10.419  0.85 32.23     0.001 C 
HETATM   11  C10   D T 153      29.311   0.981  -9.406  0.85 32.23     0.002 C 
HETATM   12  C11   D T 153      28.802   2.260  -9.239  0.85 32.23     0.018 C 
HETATM   13  C12   D T 153      29.105   3.337 -10.107  0.85 32.23     0.066 C 
HETATM   14  N1    D T 153      28.458   4.677 -10.026  0.85 82.40    -0.327 N 
ENDROOT
BRANCH  14  15
HETATM   15  C13   D T 153      27.736   5.056  -8.810  0.85 82.40     0.108 C 
BRANCH  15  16
HETATM   16  C14   D T 153      28.616   5.859  -7.842  0.85 82.40     0.060 C 
BRANCH  16  17
HETATM   17  C15   D T 153      28.359   5.505  -6.365  0.85 82.40     0.252 C 
BRANCH  17  18
HETATM   18  N2    D T 153      28.035   4.123  -6.096  0.85 82.40     0.141 N 
HETATM   19  C16   D T 153      29.262   3.484  -5.716  0.85 82.40     0.285 C 
HETATM   20  C17   D T 153      29.003   2.113  -5.311  0.85 82.40     0.285 C 
HETATM   21  N3    D T 153      27.596   1.835  -5.377  0.85 82.40     0.143 N 
HETATM   22  C18   D T 153      26.898   2.758  -4.531  0.85 82.40     0.285 C 
HETATM   23  C20   D T 153      27.407   0.544  -4.809  0.85 82.40     0.285 C 
HETATM   24  C19   D T 153      27.131   4.118  -4.978  0.85 82.40     0.285 C 
ENDBRANCH  17  18
ENDBRANCH  16  17
ENDBRANCH  15  16
ENDBRANCH  14  15
BRANCH   1  25
HETATM   25  C21   D T 153      25.357   7.681 -12.443  0.85 32.23     0.419 C 
HETATM   26  F1    D T 153      24.230   7.185 -12.860  0.85 32.23    -0.166 F 
HETATM   27  F2    D T 153      25.534   8.699 -13.208  0.85 32.23    -0.166 F 
HETATM   28  F3    D T 153      25.060   8.215 -11.292  0.85 32.23    -0.166 F 
ENDBRANCH   1  25
TORSDOF 10
ENDMDL
MODEL 4
REMARK VINA RESULT:    -6.204      6.847      9.072
REMARK INTER + INTRA:          -9.162
REMARK INTER:                  -8.840
REMARK INTRA:                  -0.322
REMARK UNBOUND:                -1.145
REMARK  10 active torsions:
REMARK  status: ('A' for Active; 'I' for Inactive)
REMARK    1  A    between atoms: C1_1  and  C21_25 
REMARK    2  A    between atoms: N1_14  and  C13_15 
REMARK    3  A    between atoms: C13_15  and  C14_16 
REMARK    4  A    between atoms: C14_16  and  C15_17 
REMARK    5  A    between atoms: C15_17  and  N2_18 
REMARK    6  A    between atoms: C1_29  and  C21_53 
REMARK    7  A    between atoms: N1_42  and  C13_43 
REMARK    8  A    between atoms: C13_43  and  C14_44 
REMARK    9  A    between atoms: C14_44  and  C15_45 
REMARK   10  A    between atoms: C15_45  and  N2_46 
ROOT
HETATM    1  C1    D T 153      25.072   8.948  -7.280  0.85 32.23     0.073 C 
HETATM    2  C2    D T 153      26.355   8.621  -7.718  0.85 32.23     0.004 C 
HETATM    3  C3    D T 153      27.153   7.847  -6.911  0.85 32.23     0.008 C 
HETATM    4  C4    D T 153      26.581   7.084  -5.908  0.85 32.23     0.045 C 
HETATM    5  C5    D T 153      25.240   7.269  -5.546  0.85 32.23     0.066 C 
HETATM    6  C6    D T 153      24.482   8.248  -6.222  0.85 32.23     0.022 C 
HETATM    7  S     D T 153      27.588   5.865  -5.126  0.85 32.23    -0.084 SA
HETATM    8  C7    D T 153      26.421   4.761  -4.456  0.85 32.23     0.045 C 
HETATM    9  C8    D T 153      26.816   3.427  -4.271  0.85 32.23     0.008 C 
HETATM   10  C9    D T 153      25.901   2.480  -3.854  0.85 32.23     0.001 C 
HETATM   11  C10   D T 153      24.577   2.852  -3.672  0.85 32.23     0.002 C 
HETATM   12  C11   D T 153      24.223   4.190  -3.763  0.85 32.23     0.018 C 
HETATM   13  C12   D T 153      25.135   5.213  -4.117  0.85 32.23     0.066 C 
HETATM   14  N1    D T 153      24.742   6.630  -4.358  0.85 82.40    -0.327 N 
ENDROOT
BRANCH  14  15
HETATM   15  C13   D T 153      23.441   7.108  -3.884  0.85 82.40     0.108 C 
BRANCH  15  16
HETATM   16  C14   D T 153      22.276   6.467  -4.649  0.85 82.40     0.060 C 
BRANCH  16  17
HETATM   17  C15   D T 153      21.070   6.146  -3.744  0.85 82.40     0.252 C 
BRANCH  17  18
HETATM   18  N2    D T 153      20.033   5.337  -4.340  0.85 82.40     0.141 N 
HETATM   19  C16   D T 153      19.479   6.111  -5.414  0.85 82.40     0.285 C 
HETATM   20  C17   D T 153      18.506   5.319  -6.146  0.85 82.40     0.285 C 
HETATM   21  N3    D T 153      18.429   3.995  -5.594  0.85 82.40     0.143 N 
HETATM   22  C18   D T 153      19.728   3.391  -5.653  0.85 82.40     0.285 C 
HETATM   23  C20   D T 153      17.592   3.239  -6.462  0.85 82.40     0.285 C 
HETATM   24  C19   D T 153      20.676   4.169  -4.879  0.85 82.40     0.285 C 
ENDBRANCH  17  18
ENDBRANCH  16  17
ENDBRANCH  15  16
ENDBRANCH  14  15
BRANCH   1  25
HETATM   25  C21   D T 153      24.352  10.034  -7.928  0.85 32.23     0.419 C 
HETATM   26  F1    D T 153      23.121  10.178  -7.536  0.85 32.23    -0.166 F 
HETATM   27  F2    D T 153      24.245   9.909  -9.203  0.85 32.23    -0.166 F 
HETATM   28  F3    D T 153      24.870  11.222  -7.783  0.85 32.23    -0.166 F 
ENDBRANCH   1  25
TORSDOF 10
ENDMDL
MODEL 5
REMARK VINA RESULT:    -6.152      1.805      2.286
REMARK INTER + INTRA:          -9.095
REMARK INTER:                  -8.201
REMARK INTRA:                  -0.894
REMARK UNBOUND:                -1.145
REMARK  10 active torsions:
REMARK  status: ('A' for Active; 'I' for Inactive)
REMARK    1  A    between atoms: C1_1  and  C21_25 
REMARK    2  A    between atoms: N1_14  and  C13_15 
REMARK    3  A    between atoms: C13_15  and  C14_16 
REMARK    4  A    between atoms: C14_16  and  C15_17 
REMARK    5  A    between atoms: C15_17  and  N2_18 
REMARK    6  A    between atoms: C1_29  and  C21_53 
REMARK    7  A    between atoms: N1_42  and  C13_43 
REMARK    8  A    between atoms: C13_43  and  C14_44 
REMARK    9  A    between atoms: C14_44  and  C15_45 
REMARK   10  A    between atoms: C15_45  and  N2_46 
ROOT
HETATM    1  C1    D T 153      26.400   7.263 -12.218  0.85 32.23     0.073 C 
HETATM    2  C2    D T 153      27.032   6.675 -13.313  0.85 32.23     0.004 C 
HETATM    3  C3    D T 153      28.349   6.300 -13.195  0.85 32.23     0.008 C 
HETATM    4  C4    D T 153      28.902   6.127 -11.938  0.85 32.23     0.045 C 
HETATM    5  C5    D T 153      28.223   6.558 -10.791  0.85 32.23     0.066 C 
HETATM    6  C6    D T 153      26.961   7.173 -10.940  0.85 32.23     0.022 C 
HETATM    7  S     D T 153      30.473   5.330 -11.834  0.85 32.23    -0.084 SA
HETATM    8  C7    D T 153      30.511   4.748 -10.195  0.85 32.23     0.045 C 
HETATM    9  C8    D T 153      31.303   3.622  -9.920  0.85 32.23     0.008 C 
HETATM   10  C9    D T 153      31.282   3.043  -8.666  0.85 32.23     0.001 C 
HETATM   11  C10   D T 153      30.431   3.556  -7.698  0.85 32.23     0.002 C 
HETATM   12  C11   D T 153      29.731   4.725  -7.952  0.85 32.23     0.018 C 
HETATM   13  C12   D T 153      29.770   5.400  -9.196  0.85 32.23     0.066 C 
HETATM   14  N1    D T 153      28.915   6.574  -9.531  0.85 82.40    -0.327 N 
ENDROOT
BRANCH  14  15
HETATM   15  C13   D T 153      28.251   7.313  -8.456  0.85 82.40     0.108 C 
BRANCH  15  16
HETATM   16  C14   D T 153      28.959   8.637  -8.140  0.85 82.40     0.060 C 
BRANCH  16  17
HETATM   17  C15   D T 153      29.866   8.550  -6.898  0.85 82.40     0.252 C 
BRANCH  17  18
HETATM   18  N2    D T 153      30.927   9.528  -6.822  0.85 82.40     0.141 N 
HETATM   19  C16   D T 153      31.932   9.110  -7.757  0.85 82.40     0.285 C 
HETATM   20  C17   D T 153      32.985  10.107  -7.831  0.85 82.40     0.285 C 
HETATM   21  N3    D T 153      32.675  11.220  -6.978  0.85 82.40     0.143 N 
HETATM   22  C18   D T 153      31.416  11.776  -7.379  0.85 82.40     0.285 C 
HETATM   23  C20   D T 153      33.657  12.218  -7.234  0.85 82.40     0.285 C 
HETATM   24  C19   D T 153      30.369  10.780  -7.254  0.85 82.40     0.285 C 
ENDBRANCH  17  18
ENDBRANCH  16  17
ENDBRANCH  15  16
ENDBRANCH  14  15
BRANCH   1  25
HETATM   25  C21   D T 153      25.150   7.982 -12.417  0.85 32.23     0.419 C 
HETATM   26  F1    D T 153      25.238   9.015 -13.201  0.85 32.23    -0.166 F 
HETATM   27  F2    D T 153      24.646   8.471 -11.339  0.85 32.23    -0.166 F 
HETATM   28  F3    D T 153      24.171   7.285 -12.920  0.85 32.23    -0.166 F 
ENDBRANCH   1  25
TORSDOF 10
ENDMDL
MODEL 6
REMARK VINA RESULT:    -6.144      4.033      7.193
REMARK INTER + INTRA:          -9.085
REMARK INTER:                  -7.940
REMARK INTRA:                  -1.145
REMARK UNBOUND:                -1.145
REMARK  10 active torsions:
REMARK  status: ('A' for Active; 'I' for Inactive)
REMARK    1  A    between atoms: C1_1  and  C21_25 
REMARK    2  A    between atoms: N1_14  and  C13_15 
REMARK    3  A    between atoms: C13_15  and  C14_16 
REMARK    4  A    between atoms: C14_16  and  C15_17 
REMARK    5  A    between atoms: C15_17  and  N2_18 
REMARK    6  A    between atoms: C1_29  and  C21_53 
REMARK    7  A    between atoms: N1_42  and  C13_43 
REMARK    8  A    between atoms: C13_43  and  C14_44 
REMARK    9  A    between atoms: C14_44  and  C15_45 
REMARK   10  A    between atoms: C15_45  and  N2_46 
ROOT
HETATM    1  C1    D T 153      28.439   3.149  -8.333  0.85 32.23     0.073 C 
HETATM    2  C2    D T 153      28.258   4.045  -7.280  0.85 32.23     0.004 C 
HETATM    3  C3    D T 153      28.239   5.392  -7.553  0.85 32.23     0.008 C 
HETATM    4  C4    D T 153      27.994   5.827  -8.843  0.85 32.23     0.045 C 
HETATM    5  C5    D T 153      28.004   4.926  -9.916  0.85 32.23     0.066 C 
HETATM    6  C6    D T 153      28.270   3.565  -9.657  0.85 32.23     0.022 C 
HETATM    7  S     D T 153      27.649   7.541  -9.081  0.85 32.23    -0.084 SA
HETATM    8  C7    D T 153      26.807   7.564 -10.604  0.85 32.23     0.045 C 
HETATM    9  C8    D T 153      25.908   8.617 -10.836  0.85 32.23     0.008 C 
HETATM   10  C9    D T 153      25.124   8.627 -11.974  0.85 32.23     0.001 C 
HETATM   11  C10   D T 153      25.198   7.560 -12.857  0.85 32.23     0.002 C 
HETATM   12  C11   D T 153      26.159   6.579 -12.666  0.85 32.23     0.018 C 
HETATM   13  C12   D T 153      27.037   6.557 -11.554  0.85 32.23     0.066 C 
HETATM   14  N1    D T 153      27.976   5.437 -11.260  0.85 82.40    -0.327 N 
ENDROOT
BRANCH  14  15
HETATM   15  C13   D T 153      28.295   4.468 -12.310  0.85 82.40     0.108 C 
BRANCH  15  16
HETATM   16  C14   D T 153      29.532   4.878 -13.120  0.85 82.40     0.060 C 
BRANCH  16  17
HETATM   17  C15   D T 153      30.826   4.209 -12.618  0.85 82.40     0.252 C 
BRANCH  17  18
HETATM   18  N2    D T 153      30.780   2.772 -12.484  0.85 82.40     0.141 N 
HETATM   19  C16   D T 153      31.719   2.245 -13.432  0.85 82.40     0.285 C 
HETATM   20  C17   D T 153      31.823   0.804 -13.279  0.85 82.40     0.285 C 
HETATM   21  N3    D T 153      30.986   0.359 -12.202  0.85 82.40     0.143 N 
HETATM   22  C18   D T 153      31.380   1.030 -10.998  0.85 82.40     0.285 C 
HETATM   23  C20   D T 153      31.271  -1.022 -12.006  0.85 82.40     0.285 C 
HETATM   24  C19   D T 153      31.226   2.464 -11.153  0.85 82.40     0.285 C 
ENDBRANCH  17  18
ENDBRANCH  16  17
ENDBRANCH  15  16
ENDBRANCH  14  15
BRANCH   1  25
HETATM   25  C21   D T 153      28.815   1.774  -8.042  0.85 32.23     0.419 C 
HETATM   26  F1    D T 153      30.096   1.564  -7.976  0.85 32.23    -0.166 F 
HETATM   27  F2    D T 153      28.421   0.922  -8.921  0.85 32.23    -0.166 F 
HETATM   28  F3    D T 153      28.358   1.286  -6.923  0.85 32.23    -0.166 F 
ENDBRANCH   1  25
TORSDOF 10
ENDMDL
MODEL 7
REMARK VINA RESULT:    -5.867      3.759      6.677
REMARK INTER + INTRA:          -8.727
REMARK INTER:                  -7.753
REMARK INTRA:                  -0.974
REMARK UNBOUND:                -1.145
REMARK  10 active torsions:
REMARK  status: ('A' for Active; 'I' for Inactive)
REMARK    1  A    between atoms: C1_1  and  C21_25 
REMARK    2  A    between atoms: N1_14  and  C13_15 
REMARK    3  A    between atoms: C13_15  and  C14_16 
REMARK    4  A    between atoms: C14_16  and  C15_17 
REMARK    5  A    between atoms: C15_17  and  N2_18 
REMARK    6  A    between atoms: C1_29  and  C21_53 
REMARK    7  A    between atoms: N1_42  and  C13_43 
REMARK    8  A    between atoms: C13_43  and  C14_44 
REMARK    9  A    between atoms: C14_44  and  C15_45 
REMARK   10  A    between atoms: C15_45  and  N2_46 
ROOT
HETATM    1  C1    D T 153      31.049  10.549  -8.148  0.85 32.23     0.073 C 
HETATM    2  C2    D T 153      32.084  10.217  -9.022  0.85 32.23     0.004 C 
HETATM    3  C3    D T 153      32.010   9.035  -9.718  0.85 32.23     0.008 C 
HETATM    4  C4    D T 153      30.789   8.401  -9.866  0.85 32.23     0.045 C 
HETATM    5  C5    D T 153      29.675   8.811  -9.122  0.85 32.23     0.066 C 
HETATM    6  C6    D T 153      29.821   9.884  -8.216  0.85 32.23     0.022 C 
HETATM    7  S     D T 153      30.683   7.082 -11.033  0.85 32.23    -0.084 SA
HETATM    8  C7    D T 153      28.980   7.003 -11.383  0.85 32.23     0.045 C 
HETATM    9  C8    D T 153      28.594   6.496 -12.634  0.85 32.23     0.008 C 
HETATM   10  C9    D T 153      27.266   6.517 -13.016  0.85 32.23     0.001 C 
HETATM   11  C10   D T 153      26.328   7.091 -12.171  0.85 32.23     0.002 C 
HETATM   12  C11   D T 153      26.708   7.498 -10.900  0.85 32.23     0.018 C 
HETATM   13  C12   D T 153      28.042   7.434 -10.431  0.85 32.23     0.066 C 
HETATM   14  N1    D T 153      28.491   7.995  -9.125  0.85 82.40    -0.327 N 
ENDROOT
BRANCH  14  15
HETATM   15  C13   D T 153      27.497   8.322  -8.101  0.85 82.40     0.108 C 
BRANCH  15  16
HETATM   16  C14   D T 153      27.214   7.134  -7.171  0.85 82.40     0.060 C 
BRANCH  16  17
HETATM   17  C15   D T 153      28.498   6.505  -6.596  0.85 82.40     0.252 C 
BRANCH  17  18
HETATM   18  N2    D T 153      28.390   5.128  -6.174  0.85 82.40     0.141 N 
HETATM   19  C16   D T 153      27.191   5.034  -5.391  0.85 82.40     0.285 C 
HETATM   20  C17   D T 153      26.943   3.650  -5.027  0.85 82.40     0.285 C 
HETATM   21  N3    D T 153      27.951   2.800  -5.596  0.85 82.40     0.143 N 
HETATM   22  C18   D T 153      27.946   2.962  -7.020  0.85 82.40     0.285 C 
HETATM   23  C20   D T 153      27.547   1.459  -5.340  0.85 82.40     0.285 C 
HETATM   24  C19   D T 153      28.241   4.339  -7.367  0.85 82.40     0.285 C 
ENDBRANCH  17  18
ENDBRANCH  16  17
ENDBRANCH  15  16
ENDBRANCH  14  15
BRANCH   1  25
HETATM   25  C21   D T 153      31.262  11.590  -7.154  0.85 32.23     0.419 C 
HETATM   26  F1    D T 153      31.606  12.743  -7.641  0.85 32.23    -0.166 F 
HETATM   27  F2    D T 153      32.199  11.332  -6.312  0.85 32.23    -0.166 F 
HETATM   28  F3    D T 153      30.239  11.862  -6.393  0.85 32.23    -0.166 F 
ENDBRANCH   1  25
TORSDOF 10
ENDMDL
MODEL 8
REMARK VINA RESULT:    -5.817      1.918      2.752
REMARK INTER + INTRA:          -8.663
REMARK INTER:                  -7.600
REMARK INTRA:                  -1.062
REMARK UNBOUND:                -1.145
REMARK  10 active torsions:
REMARK  status: ('A' for Active; 'I' for Inactive)
REMARK    1  A    between atoms: C1_1  and  C21_25 
REMARK    2  A    between atoms: N1_14  and  C13_15 
REMARK    3  A    between atoms: C13_15  and  C14_16 
REMARK    4  A    between atoms: C14_16  and  C15_17 
REMARK    5  A    between atoms: C15_17  and  N2_18 
REMARK    6  A    between atoms: C1_29  and  C21_53 
REMARK    7  A    between atoms: N1_42  and  C13_43 
REMARK    8  A    between atoms: C13_43  and  C14_44 
REMARK    9  A    between atoms: C14_44  and  C15_45 
REMARK   10  A    between atoms: C15_45  and  N2_46 
ROOT
HETATM    1  C1    D T 153      27.415   5.840 -11.532  0.85 32.23     0.073 C 
HETATM    2  C2    D T 153      28.080   4.810 -12.195  0.85 32.23     0.004 C 
HETATM    3  C3    D T 153      28.976   4.041 -11.492  0.85 32.23     0.008 C 
HETATM    4  C4    D T 153      28.918   4.010 -10.110  0.85 32.23     0.045 C 
HETATM    5  C5    D T 153      28.127   4.929  -9.407  0.85 32.23     0.066 C 
HETATM    6  C6    D T 153      27.390   5.888 -10.134  0.85 32.23     0.022 C 
HETATM    7  S     D T 153      29.852   2.768  -9.275  0.85 32.23    -0.084 SA
HETATM    8  C7    D T 153      29.054   2.647  -7.733  0.85 32.23     0.045 C 
HETATM    9  C8    D T 153      29.138   1.424  -7.048  0.85 32.23     0.008 C 
HETATM   10  C9    D T 153      28.431   1.229  -5.878  0.85 32.23     0.001 C 
HETATM   11  C10   D T 153      27.596   2.237  -5.416  0.85 32.23     0.002 C 
HETATM   12  C11   D T 153      27.599   3.471  -6.047  0.85 32.23     0.018 C 
HETATM   13  C12   D T 153      28.359   3.749  -7.209  0.85 32.23     0.066 C 
HETATM   14  N1    D T 153      28.265   5.022  -7.979  0.85 82.40    -0.327 N 
ENDROOT
BRANCH  14  15
HETATM   15  C13   D T 153      27.643   6.194  -7.360  0.85 82.40     0.108 C 
BRANCH  15  16
HETATM   16  C14   D T 153      28.678   7.257  -6.965  0.85 82.40     0.060 C 
BRANCH  16  17
HETATM   17  C15   D T 153      28.419   8.622  -7.632  0.85 82.40     0.252 C 
BRANCH  17  18
HETATM   18  N2    D T 153      29.447   9.087  -8.534  0.85 82.40     0.141 N 
HETATM   19  C16   D T 153      29.967  10.298  -7.968  0.85 82.40     0.285 C 
HETATM   20  C17   D T 153      31.093  10.769  -8.756  0.85 82.40     0.285 C 
HETATM   21  N3    D T 153      31.361   9.857  -9.831  0.85 82.40     0.143 N 
HETATM   22  C18   D T 153      31.629   8.559  -9.284  0.85 82.40     0.285 C 
HETATM   23  C20   D T 153      32.569  10.293 -10.445  0.85 82.40     0.285 C 
HETATM   24  C19   D T 153      30.477   8.085  -8.541  0.85 82.40     0.285 C 
ENDBRANCH  17  18
ENDBRANCH  16  17
ENDBRANCH  15  16
ENDBRANCH  14  15
BRANCH   1  25
HETATM   25  C21   D T 153      26.749   6.876 -12.308  0.85 32.23     0.419 C 
HETATM   26  F1    D T 153      27.372   7.224 -13.394  0.85 32.23    -0.166 F 
HETATM   27  F2    D T 153      26.601   7.990 -11.683  0.85 32.23    -0.166 F 
HETATM   28  F3    D T 153      25.543   6.593 -12.712  0.85 32.23    -0.166 F 
ENDBRANCH   1  25
TORSDOF 10
ENDMDL
MODEL 9
REMARK VINA RESULT:    -5.789      2.475      6.365
REMARK INTER + INTRA:          -8.626
REMARK INTER:                  -7.415
REMARK INTRA:                  -1.210
REMARK UNBOUND:                -1.145
REMARK  10 active torsions:
REMARK  status: ('A' for Active; 'I' for Inactive)
REMARK    1  A    between atoms: C1_1  and  C21_25 
REMARK    2  A    between atoms: N1_14  and  C13_15 
REMARK    3  A    between atoms: C13_15  and  C14_16 
REMARK    4  A    between atoms: C14_16  and  C15_17 
REMARK    5  A    between atoms: C15_17  and  N2_18 
REMARK    6  A    between atoms: C1_29  and  C21_53 
REMARK    7  A    between atoms: N1_42  and  C13_43 
REMARK    8  A    between atoms: C13_43  and  C14_44 
REMARK    9  A    between atoms: C14_44  and  C15_45 
REMARK   10  A    between atoms: C15_45  and  N2_46 
ROOT
HETATM    1  C1    D T 153      28.007   7.020 -11.730  0.85 32.23     0.073 C 
HETATM    2  C2    D T 153      26.960   7.229 -10.833  0.85 32.23     0.004 C 
HETATM    3  C3    D T 153      27.259   7.553  -9.531  0.85 32.23     0.008 C 
HETATM    4  C4    D T 153      28.510   8.055  -9.219  0.85 32.23     0.045 C 
HETATM    5  C5    D T 153      29.552   8.013 -10.155  0.85 32.23     0.066 C 
HETATM    6  C6    D T 153      29.302   7.449 -11.424  0.85 32.23     0.022 C 
HETATM    7  S     D T 153      28.736   8.764  -7.619  0.85 32.23    -0.084 SA
HETATM    8  C7    D T 153      30.121   9.796  -7.839  0.85 32.23     0.045 C 
HETATM    9  C8    D T 153      30.245  10.910  -6.994  0.85 32.23     0.008 C 
HETATM   10  C9    D T 153      31.257  11.829  -7.195  0.85 32.23     0.001 C 
HETATM   11  C10   D T 153      32.116  11.665  -8.272  0.85 32.23     0.002 C 
HETATM   12  C11   D T 153      32.043  10.511  -9.037  0.85 32.23     0.018 C 
HETATM   13  C12   D T 153      31.070   9.502  -8.831  0.85 32.23     0.066 C 
HETATM   14  N1    D T 153      30.889   8.328  -9.730  0.85 82.40    -0.327 N 
ENDROOT
BRANCH  14  15
HETATM   15  C13   D T 153      31.951   7.970 -10.672  0.85 82.40     0.108 C 
BRANCH  15  16
HETATM   16  C14   D T 153      32.649   6.659 -10.286  0.85 82.40     0.060 C 
BRANCH  16  17
HETATM   17  C15   D T 153      32.573   5.591 -11.395  0.85 82.40     0.252 C 
BRANCH  17  18
HETATM   18  N2    D T 153      31.904   4.361 -11.040  0.85 82.40     0.141 N 
HETATM   19  C16   D T 153      31.311   4.578  -9.751  0.85 82.40     0.285 C 
HETATM   20  C17   D T 153      30.514   3.424  -9.371  0.85 82.40     0.285 C 
HETATM   21  N3    D T 153      30.533   2.443 -10.419  0.85 82.40     0.143 N 
HETATM   22  C18   D T 153      30.030   3.038 -11.623  0.85 82.40     0.285 C 
HETATM   23  C20   D T 153      29.602   1.431 -10.049  0.85 82.40     0.285 C 
HETATM   24  C19   D T 153      30.865   4.158 -12.012  0.85 82.40     0.285 C 
ENDBRANCH  17  18
ENDBRANCH  16  17
ENDBRANCH  15  16
ENDBRANCH  14  15
BRANCH   1  25
HETATM   25  C21   D T 153      27.741   6.341 -12.990  0.85 32.23     0.419 C 
HETATM   26  F1    D T 153      27.758   5.043 -12.920  0.85 32.23    -0.166 F 
HETATM   27  F2    D T 153      28.594   6.598 -13.917  0.85 32.23    -0.166 F 
HETATM   28  F3    D T 153      26.595   6.612 -13.548  0.85 32.23    -0.166 F 
ENDBRANCH   1  25
TORSDOF 10
ENDMDL
