MODEL 1
REMARK VINA RESULT:      -7.3      0.000      0.000
REMARK  10 active torsions:
REMARK  status: ('A' for Active; 'I' for Inactive)
REMARK    1  A    between atoms: C1_1  and  C21_25 
REMARK    2  A    between atoms: N1_14  and  C13_15 
REMARK    3  A    between atoms: C13_15  and  C14_16 
REMARK    4  A    between atoms: C14_16  and  C15_17 
REMARK    5  A    between atoms: C15_17  and  N2_18 
REMARK    6  A    between atoms: C1_29  and  C21_53 
REMARK    7  A    between atoms: N1_42  and  C13_43 
REMARK    8  A    between atoms: C13_43  and  C14_44 
REMARK    9  A    between atoms: C14_44  and  C15_45 
REMARK   10  A    between atoms: C15_45  and  N2_46 
ROOT
HETATM    1  C1    D T 153       4.624  11.336  -2.742  0.85 32.23     0.073 C 
HETATM    2  C2    D T 153       6.006  11.423  -2.575  0.85 32.23     0.004 C 
HETATM    3  C3    D T 153       6.618  10.582  -1.677  0.85 32.23     0.008 C 
HETATM    4  C4    D T 153       5.972   9.430  -1.266  0.85 32.23     0.045 C 
HETATM    5  C5    D T 153       4.616   9.227  -1.557  0.85 32.23     0.066 C 
HETATM    6  C6    D T 153       3.920  10.221  -2.278  0.85 32.23     0.022 C 
HETATM    7  S     D T 153       6.917   8.227  -0.388  0.85 32.23    -0.084 SA
HETATM    8  C7    D T 153       6.001   6.764  -0.618  0.85 32.23     0.045 C 
HETATM    9  C8    D T 153       6.695   5.544  -0.565  0.85 32.23     0.008 C 
HETATM   10  C9    D T 153       6.047   4.359  -0.857  0.85 32.23     0.001 C 
HETATM   11  C10   D T 153       4.717   4.394  -1.252  0.85 32.23     0.002 C 
HETATM   12  C11   D T 153       4.021   5.592  -1.204  0.85 32.23     0.018 C 
HETATM   13  C12   D T 153       4.618   6.825  -0.844  0.85 32.23     0.066 C 
HETATM   14  N1    D T 153       3.920   8.140  -0.925  0.85 82.40    -0.327 N 
ENDROOT
BRANCH  14  15
HETATM   15  C13   D T 153       2.460   8.176  -1.037  0.85 82.40     0.108 C 
BRANCH  15  16
HETATM   16  C14   D T 153       1.794   8.669   0.255  0.85 82.40     0.060 C 
BRANCH  16  17
HETATM   17  C15   D T 153       1.504   7.530   1.251  0.85 82.40     0.252 C 
BRANCH  17  18
HETATM   18  N2    D T 153       2.021   7.714   2.587  0.85 82.40     0.141 N 
HETATM   19  C16   D T 153       3.063   6.743   2.758  0.85 82.40     0.285 C 
HETATM   20  C17   D T 153       3.721   6.941   4.037  0.85 82.40     0.285 C 
HETATM   21  N3    D T 153       3.153   8.070   4.717  0.85 82.40     0.143 N 
HETATM   22  C18   D T 153       3.292   9.231   3.888  0.85 82.40     0.285 C 
HETATM   23  C20   D T 153       3.956   8.299   5.871  0.85 82.40     0.285 C 
HETATM   24  C19   D T 153       2.590   9.034   2.634  0.85 82.40     0.285 C 
ENDBRANCH  17  18
ENDBRANCH  16  17
ENDBRANCH  15  16
ENDBRANCH  14  15
BRANCH   1  25
HETATM   25  C21   D T 153       3.915  12.425  -3.398  0.85 32.23     0.419 C 
HETATM   26  F1    D T 153       2.620  12.336  -3.350  0.85 32.23    -0.166 F 
HETATM   27  F2    D T 153       4.158  12.531  -4.656  0.85 32.23    -0.166 F 
HETATM   28  F3    D T 153       4.166  13.619  -2.940  0.85 32.23    -0.166 F 
ENDBRANCH   1  25
TORSDOF 10
ENDMDL
MODEL 2
REMARK VINA RESULT:      -7.2      2.663      5.754
REMARK  10 active torsions:
REMARK  status: ('A' for Active; 'I' for Inactive)
REMARK    1  A    between atoms: C1_1  and  C21_25 
REMARK    2  A    between atoms: N1_14  and  C13_15 
REMARK    3  A    between atoms: C13_15  and  C14_16 
REMARK    4  A    between atoms: C14_16  and  C15_17 
REMARK    5  A    between atoms: C15_17  and  N2_18 
REMARK    6  A    between atoms: C1_29  and  C21_53 
REMARK    7  A    between atoms: N1_42  and  C13_43 
REMARK    8  A    between atoms: C13_43  and  C14_44 
REMARK    9  A    between atoms: C14_44  and  C15_45 
REMARK   10  A    between atoms: C15_45  and  N2_46 
ROOT
HETATM    1  C1    D T 153       3.667  11.411  -2.432  0.85 32.23     0.073 C 
HETATM    2  C2    D T 153       2.287  11.400  -2.228  0.85 32.23     0.004 C 
HETATM    3  C3    D T 153       1.702  10.264  -1.724  0.85 32.23     0.008 C 
HETATM    4  C4    D T 153       2.477   9.329  -1.061  0.85 32.23     0.045 C 
HETATM    5  C5    D T 153       3.877   9.400  -1.105  0.85 32.23     0.066 C 
HETATM    6  C6    D T 153       4.482  10.442  -1.838  0.85 32.23     0.022 C 
HETATM    7  S     D T 153       1.646   8.069  -0.149  0.85 32.23    -0.084 SA
HETATM    8  C7    D T 153       2.855   7.544   0.988  0.85 32.23     0.045 C 
HETATM    9  C8    D T 153       2.414   6.991   2.201  0.85 32.23     0.008 C 
HETATM   10  C9    D T 153       3.322   6.665   3.190  0.85 32.23     0.001 C 
HETATM   11  C10   D T 153       4.668   6.937   2.991  0.85 32.23     0.002 C 
HETATM   12  C11   D T 153       5.098   7.390   1.753  0.85 32.23     0.018 C 
HETATM   13  C12   D T 153       4.218   7.674   0.680  0.85 32.23     0.066 C 
HETATM   14  N1    D T 153       4.649   8.294  -0.605  0.85 82.40    -0.327 N 
ENDROOT
BRANCH  14  15
HETATM   15  C13   D T 153       6.070   8.307  -0.960  0.85 82.40     0.108 C 
BRANCH  15  16
HETATM   16  C14   D T 153       6.469   7.080  -1.789  0.85 82.40     0.060 C 
BRANCH  16  17
HETATM   17  C15   D T 153       7.736   7.315  -2.635  0.85 82.40     0.252 C 
BRANCH  17  18
HETATM   18  N2    D T 153       8.355   8.612  -2.495  0.85 82.40     0.141 N 
HETATM   19  C16   D T 153       9.754   8.375  -2.285  0.85 82.40     0.285 C 
HETATM   20  C17   D T 153      10.472   9.637  -2.256  0.85 82.40     0.285 C 
HETATM   21  N3    D T 153       9.568  10.727  -2.485  0.85 82.40     0.143 N 
HETATM   22  C18   D T 153       8.922  10.538  -3.751  0.85 82.40     0.285 C 
HETATM   23  C20   D T 153      10.365  11.901  -2.610  0.85 82.40     0.285 C 
HETATM   24  C19   D T 153       8.173   9.296  -3.747  0.85 82.40     0.285 C 
ENDBRANCH  17  18
ENDBRANCH  16  17
ENDBRANCH  15  16
ENDBRANCH  14  15
BRANCH   1  25
HETATM   25  C21   D T 153       4.255  12.438  -3.279  0.85 32.23     0.419 C 
HETATM   26  F1    D T 153       5.547  12.375  -3.393  0.85 32.23    -0.166 F 
HETATM   27  F2    D T 153       4.052  13.640  -2.869  0.85 32.23    -0.166 F 
HETATM   28  F3    D T 153       3.831  12.465  -4.511  0.85 32.23    -0.166 F 
ENDBRANCH   1  25
TORSDOF 10
ENDMDL
MODEL 3
REMARK VINA RESULT:      -7.2      2.361      3.439
REMARK  10 active torsions:
REMARK  status: ('A' for Active; 'I' for Inactive)
REMARK    1  A    between atoms: C1_1  and  C21_25 
REMARK    2  A    between atoms: N1_14  and  C13_15 
REMARK    3  A    between atoms: C13_15  and  C14_16 
REMARK    4  A    between atoms: C14_16  and  C15_17 
REMARK    5  A    between atoms: C15_17  and  N2_18 
REMARK    6  A    between atoms: C1_29  and  C21_53 
REMARK    7  A    between atoms: N1_42  and  C13_43 
REMARK    8  A    between atoms: C13_43  and  C14_44 
REMARK    9  A    between atoms: C14_44  and  C15_45 
REMARK   10  A    between atoms: C15_45  and  N2_46 
ROOT
HETATM    1  C1    D T 153       2.968  11.052  -1.747  0.85 32.23     0.073 C 
HETATM    2  C2    D T 153       3.404  11.991  -2.682  0.85 32.23     0.004 C 
HETATM    3  C3    D T 153       4.751  12.106  -2.926  0.85 32.23     0.008 C 
HETATM    4  C4    D T 153       5.603  11.072  -2.578  0.85 32.23     0.045 C 
HETATM    5  C5    D T 153       5.155  10.018  -1.769  0.85 32.23     0.066 C 
HETATM    6  C6    D T 153       3.820  10.031  -1.315  0.85 32.23     0.022 C 
HETATM    7  S     D T 153       7.251  11.119  -3.205  0.85 32.23    -0.084 SA
HETATM    8  C7    D T 153       7.754   9.455  -3.110  0.85 32.23     0.045 C 
HETATM    9  C8    D T 153       8.741   9.019  -4.008  0.85 32.23     0.008 C 
HETATM   10  C9    D T 153       9.098   7.685  -4.061  0.85 32.23     0.001 C 
HETATM   11  C10   D T 153       8.433   6.775  -3.253  0.85 32.23     0.002 C 
HETATM   12  C11   D T 153       7.533   7.233  -2.303  0.85 32.23     0.018 C 
HETATM   13  C12   D T 153       7.183   8.597  -2.157  0.85 32.23     0.066 C 
HETATM   14  N1    D T 153       6.115   9.087  -1.241  0.85 82.40    -0.327 N 
ENDROOT
BRANCH  14  15
HETATM   15  C13   D T 153       5.621   8.212  -0.174  0.85 82.40     0.108 C 
BRANCH  15  16
HETATM   16  C14   D T 153       6.238   8.557   1.188  0.85 82.40     0.060 C 
BRANCH  16  17
HETATM   17  C15   D T 153       5.178   8.880   2.259  0.85 82.40     0.252 C 
BRANCH  17  18
HETATM   18  N2    D T 153       3.965   8.100   2.201  0.85 82.40     0.141 N 
HETATM   19  C16   D T 153       4.003   7.203   3.321  0.85 82.40     0.285 C 
HETATM   20  C17   D T 153       2.757   6.462   3.406  0.85 82.40     0.285 C 
HETATM   21  N3    D T 153       1.858   6.884   2.370  0.85 82.40     0.143 N 
HETATM   22  C18   D T 153       1.623   8.292   2.502  0.85 82.40     0.285 C 
HETATM   23  C20   D T 153       0.612   6.242   2.623  0.85 82.40     0.285 C 
HETATM   24  C19   D T 153       2.871   9.019   2.367  0.85 82.40     0.285 C 
ENDBRANCH  17  18
ENDBRANCH  16  17
ENDBRANCH  15  16
ENDBRANCH  14  15
BRANCH   1  25
HETATM   25  C21   D T 153       1.618  11.150  -1.215  0.85 32.23     0.419 C 
HETATM   26  F1    D T 153       1.255  10.151  -0.468  0.85 32.23    -0.166 F 
HETATM   27  F2    D T 153       0.699  11.197  -2.113  0.85 32.23    -0.166 F 
HETATM   28  F3    D T 153       1.375  12.198  -0.479  0.85 32.23    -0.166 F 
ENDBRANCH   1  25
TORSDOF 10
ENDMDL
MODEL 4
REMARK VINA RESULT:      -7.2      3.615      5.998
REMARK  10 active torsions:
REMARK  status: ('A' for Active; 'I' for Inactive)
REMARK    1  A    between atoms: C1_1  and  C21_25 
REMARK    2  A    between atoms: N1_14  and  C13_15 
REMARK    3  A    between atoms: C13_15  and  C14_16 
REMARK    4  A    between atoms: C14_16  and  C15_17 
REMARK    5  A    between atoms: C15_17  and  N2_18 
REMARK    6  A    between atoms: C1_29  and  C21_53 
REMARK    7  A    between atoms: N1_42  and  C13_43 
REMARK    8  A    between atoms: C13_43  and  C14_44 
REMARK    9  A    between atoms: C14_44  and  C15_45 
REMARK   10  A    between atoms: C15_45  and  N2_46 
ROOT
HETATM    1  C1    D T 153       5.621   8.721   2.576  0.85 32.23     0.073 C 
HETATM    2  C2    D T 153       6.932   8.918   2.140  0.85 32.23     0.004 C 
HETATM    3  C3    D T 153       7.173   9.022   0.792  0.85 32.23     0.008 C 
HETATM    4  C4    D T 153       6.135   9.331  -0.070  0.85 32.23     0.045 C 
HETATM    5  C5    D T 153       4.805   9.304   0.374  0.85 32.23     0.066 C 
HETATM    6  C6    D T 153       4.544   8.955   1.716  0.85 32.23     0.022 C 
HETATM    7  S     D T 153       6.546   9.779  -1.725  0.85 32.23    -0.084 SA
HETATM    8  C7    D T 153       5.144  10.670  -2.250  0.85 32.23     0.045 C 
HETATM    9  C8    D T 153       5.323  11.634  -3.255  0.85 32.23     0.008 C 
HETATM   10  C9    D T 153       4.276  12.453  -3.631  0.85 32.23     0.001 C 
HETATM   11  C10   D T 153       3.061  12.346  -2.968  0.85 32.23     0.002 C 
HETATM   12  C11   D T 153       2.871  11.326  -2.048  0.85 32.23     0.018 C 
HETATM   13  C12   D T 153       3.889  10.413  -1.678  0.85 32.23     0.066 C 
HETATM   14  N1    D T 153       3.744   9.404  -0.591  0.85 82.40    -0.327 N 
ENDROOT
BRANCH  14  15
HETATM   15  C13   D T 153       2.408   9.065  -0.095  0.85 82.40     0.108 C 
BRANCH  15  16
HETATM   16  C14   D T 153       2.153   7.552  -0.111  0.85 82.40     0.060 C 
BRANCH  16  17
HETATM   17  C15   D T 153       2.589   6.886  -1.431  0.85 82.40     0.252 C 
BRANCH  17  18
HETATM   18  N2    D T 153       3.472   5.751  -1.303  0.85 82.40     0.141 N 
HETATM   19  C16   D T 153       4.582   5.996  -2.177  0.85 82.40     0.285 C 
HETATM   20  C17   D T 153       5.581   4.955  -2.017  0.85 82.40     0.285 C 
HETATM   21  N3    D T 153       5.167   4.024  -1.006  0.85 82.40     0.143 N 
HETATM   22  C18   D T 153       4.967   4.731   0.225  0.85 82.40     0.285 C 
HETATM   23  C20   D T 153       6.263   3.140  -0.790  0.85 82.40     0.285 C 
HETATM   24  C19   D T 153       3.934   5.736   0.059  0.85 82.40     0.285 C 
ENDBRANCH  17  18
ENDBRANCH  16  17
ENDBRANCH  15  16
ENDBRANCH  14  15
BRANCH   1  25
HETATM   25  C21   D T 153       5.384   8.259   3.935  0.85 32.23     0.419 C 
HETATM   26  F1    D T 153       4.630   9.039   4.650  0.85 32.23    -0.166 F 
HETATM   27  F2    D T 153       6.449   8.143   4.646  0.85 32.23    -0.166 F 
HETATM   28  F3    D T 153       4.819   7.089   4.043  0.85 32.23    -0.166 F 
ENDBRANCH   1  25
TORSDOF 10
ENDMDL
MODEL 5
REMARK VINA RESULT:      -7.1      2.936      6.160
REMARK  10 active torsions:
REMARK  status: ('A' for Active; 'I' for Inactive)
REMARK    1  A    between atoms: C1_1  and  C21_25 
REMARK    2  A    between atoms: N1_14  and  C13_15 
REMARK    3  A    between atoms: C13_15  and  C14_16 
REMARK    4  A    between atoms: C14_16  and  C15_17 
REMARK    5  A    between atoms: C15_17  and  N2_18 
REMARK    6  A    between atoms: C1_29  and  C21_53 
REMARK    7  A    between atoms: N1_42  and  C13_43 
REMARK    8  A    between atoms: C13_43  and  C14_44 
REMARK    9  A    between atoms: C14_44  and  C15_45 
REMARK   10  A    between atoms: C15_45  and  N2_46 
ROOT
HETATM    1  C1    D T 153       3.676  11.416  -2.407  0.85 32.23     0.073 C 
HETATM    2  C2    D T 153       2.320  11.581  -2.121  0.85 32.23     0.004 C 
HETATM    3  C3    D T 153       1.620  10.521  -1.598  0.85 32.23     0.008 C 
HETATM    4  C4    D T 153       2.303   9.478  -0.996  0.85 32.23     0.045 C 
HETATM    5  C5    D T 153       3.695   9.366  -1.123  0.85 32.23     0.066 C 
HETATM    6  C6    D T 153       4.388  10.337  -1.876  0.85 32.23     0.022 C 
HETATM    7  S     D T 153       1.366   8.318  -0.054  0.85 32.23    -0.084 SA
HETATM    8  C7    D T 153       2.560   7.614   1.001  0.85 32.23     0.045 C 
HETATM    9  C8    D T 153       2.121   7.098   2.231  0.85 32.23     0.008 C 
HETATM   10  C9    D T 153       3.033   6.634   3.159  0.85 32.23     0.001 C 
HETATM   11  C10   D T 153       4.389   6.733   2.883  0.85 32.23     0.002 C 
HETATM   12  C11   D T 153       4.803   7.153   1.628  0.85 32.23     0.018 C 
HETATM   13  C12   D T 153       3.907   7.572   0.613  0.85 32.23     0.066 C 
HETATM   14  N1    D T 153       4.341   8.159  -0.686  0.85 82.40    -0.327 N 
ENDROOT
BRANCH  14  15
HETATM   15  C13   D T 153       5.729   7.993  -1.125  0.85 82.40     0.108 C 
BRANCH  15  16
HETATM   16  C14   D T 153       5.951   6.658  -1.848  0.85 82.40     0.060 C 
BRANCH  16  17
HETATM   17  C15   D T 153       7.332   6.567  -2.526  0.85 82.40     0.252 C 
BRANCH  17  18
HETATM   18  N2    D T 153       7.557   5.398  -3.343  0.85 82.40     0.141 N 
HETATM   19  C16   D T 153       8.755   5.647  -4.092  0.85 82.40     0.285 C 
HETATM   20  C17   D T 153       9.121   4.467  -4.853  0.85 82.40     0.285 C 
HETATM   21  N3    D T 153       8.194   3.402  -4.591  0.85 82.40     0.143 N 
HETATM   22  C18   D T 153       8.193   3.122  -3.184  0.85 82.40     0.285 C 
HETATM   23  C20   D T 153       8.713   2.241  -5.232  0.85 82.40     0.285 C 
HETATM   24  C19   D T 153       7.780   4.299  -2.443  0.85 82.40     0.285 C 
ENDBRANCH  17  18
ENDBRANCH  16  17
ENDBRANCH  15  16
ENDBRANCH  14  15
BRANCH   1  25
HETATM   25  C21   D T 153       4.343  12.376  -3.273  0.85 32.23     0.419 C 
HETATM   26  F1    D T 153       4.126  13.621  -2.973  0.85 32.23    -0.166 F 
HETATM   27  F2    D T 153       3.993  12.304  -4.509  0.85 32.23    -0.166 F 
HETATM   28  F3    D T 153       5.642  12.285  -3.322  0.85 32.23    -0.166 F 
ENDBRANCH   1  25
TORSDOF 10
ENDMDL
MODEL 6
REMARK VINA RESULT:      -6.7      4.317      7.374
REMARK  10 active torsions:
REMARK  status: ('A' for Active; 'I' for Inactive)
REMARK    1  A    between atoms: C1_1  and  C21_25 
REMARK    2  A    between atoms: N1_14  and  C13_15 
REMARK    3  A    between atoms: C13_15  and  C14_16 
REMARK    4  A    between atoms: C14_16  and  C15_17 
REMARK    5  A    between atoms: C15_17  and  N2_18 
REMARK    6  A    between atoms: C1_29  and  C21_53 
REMARK    7  A    between atoms: N1_42  and  C13_43 
REMARK    8  A    between atoms: C13_43  and  C14_44 
REMARK    9  A    between atoms: C14_44  and  C15_45 
REMARK   10  A    between atoms: C15_45  and  N2_46 
ROOT
HETATM    1  C1    D T 153       4.568   5.643  -1.413  0.85 32.23     0.073 C 
HETATM    2  C2    D T 153       3.174   5.615  -1.452  0.85 32.23     0.004 C 
HETATM    3  C3    D T 153       2.480   6.767  -1.172  0.85 32.23     0.008 C 
HETATM    4  C4    D T 153       3.121   7.991  -1.254  0.85 32.23     0.045 C 
HETATM    5  C5    D T 153       4.515   8.061  -1.381  0.85 32.23     0.066 C 
HETATM    6  C6    D T 153       5.255   6.860  -1.424  0.85 32.23     0.022 C 
HETATM    7  S     D T 153       2.123   9.445  -1.216  0.85 32.23    -0.084 SA
HETATM    8  C7    D T 153       3.147  10.643  -1.957  0.85 32.23     0.045 C 
HETATM    9  C8    D T 153       2.525  11.725  -2.600  0.85 32.23     0.008 C 
HETATM   10  C9    D T 153       3.277  12.643  -3.307  0.85 32.23     0.001 C 
HETATM   11  C10   D T 153       4.647  12.455  -3.415  0.85 32.23     0.002 C 
HETATM   12  C11   D T 153       5.258  11.440  -2.695  0.85 32.23     0.018 C 
HETATM   13  C12   D T 153       4.543  10.513  -1.898  0.85 32.23     0.066 C 
HETATM   14  N1    D T 153       5.167   9.334  -1.234  0.85 82.40    -0.327 N 
ENDROOT
BRANCH  14  15
HETATM   15  C13   D T 153       6.623   9.282  -1.076  0.85 82.40     0.108 C 
BRANCH  15  16
HETATM   16  C14   D T 153       7.056   9.546   0.372  0.85 82.40     0.060 C 
BRANCH  16  17
HETATM   17  C15   D T 153       8.569   9.352   0.589  0.85 82.40     0.252 C 
BRANCH  17  18
HETATM   18  N2    D T 153       9.427  10.319  -0.055  0.85 82.40     0.141 N 
HETATM   19  C16   D T 153       8.977  11.612   0.372  0.85 82.40     0.285 C 
HETATM   20  C17   D T 153       9.866  12.641  -0.136  0.85 82.40     0.285 C 
HETATM   21  N3    D T 153      10.943  12.045  -0.874  0.85 82.40     0.143 N 
HETATM   22  C18   D T 153      11.649  11.138  -0.017  0.85 82.40     0.285 C 
HETATM   23  C20   D T 153      11.853  13.093  -1.190  0.85 82.40     0.285 C 
HETATM   24  C19   D T 153      10.757  10.092   0.444  0.85 82.40     0.285 C 
ENDBRANCH  17  18
ENDBRANCH  16  17
ENDBRANCH  15  16
ENDBRANCH  14  15
BRANCH   1  25
HETATM   25  C21   D T 153       5.305   4.390  -1.352  0.85 32.23     0.419 C 
HETATM   26  F1    D T 153       6.188   4.232  -2.291  0.85 32.23    -0.166 F 
HETATM   27  F2    D T 153       4.570   3.339  -1.458  0.85 32.23    -0.166 F 
HETATM   28  F3    D T 153       5.973   4.180  -0.253  0.85 32.23    -0.166 F 
ENDBRANCH   1  25
TORSDOF 10
ENDMDL
MODEL 7
REMARK VINA RESULT:      -6.5      2.993      5.191
REMARK  10 active torsions:
REMARK  status: ('A' for Active; 'I' for Inactive)
REMARK    1  A    between atoms: C1_1  and  C21_25 
REMARK    2  A    between atoms: N1_14  and  C13_15 
REMARK    3  A    between atoms: C13_15  and  C14_16 
REMARK    4  A    between atoms: C14_16  and  C15_17 
REMARK    5  A    between atoms: C15_17  and  N2_18 
REMARK    6  A    between atoms: C1_29  and  C21_53 
REMARK    7  A    between atoms: N1_42  and  C13_43 
REMARK    8  A    between atoms: C13_43  and  C14_44 
REMARK    9  A    between atoms: C14_44  and  C15_45 
REMARK   10  A    between atoms: C15_45  and  N2_46 
ROOT
HETATM    1  C1    D T 153       3.741  11.451  -2.520  0.85 32.23     0.073 C 
HETATM    2  C2    D T 153       2.370  11.570  -2.290  0.85 32.23     0.004 C 
HETATM    3  C3    D T 153       1.690  10.495  -1.772  0.85 32.23     0.008 C 
HETATM    4  C4    D T 153       2.386   9.491  -1.121  0.85 32.23     0.045 C 
HETATM    5  C5    D T 153       3.785   9.430  -1.192  0.85 32.23     0.066 C 
HETATM    6  C6    D T 153       4.472  10.410  -1.938  0.85 32.23     0.022 C 
HETATM    7  S     D T 153       1.457   8.317  -0.190  0.85 32.23    -0.084 SA
HETATM    8  C7    D T 153       2.633   7.681   0.925  0.85 32.23     0.045 C 
HETATM    9  C8    D T 153       2.165   7.173   2.148  0.85 32.23     0.008 C 
HETATM   10  C9    D T 153       3.056   6.764   3.121  0.85 32.23     0.001 C 
HETATM   11  C10   D T 153       4.418   6.908   2.895  0.85 32.23     0.002 C 
HETATM   12  C11   D T 153       4.865   7.317   1.648  0.85 32.23     0.018 C 
HETATM   13  C12   D T 153       3.995   7.681   0.591  0.85 32.23     0.066 C 
HETATM   14  N1    D T 153       4.459   8.257  -0.703  0.85 82.40    -0.327 N 
ENDROOT
BRANCH  14  15
HETATM   15  C13   D T 153       5.868   8.135  -1.084  0.85 82.40     0.108 C 
BRANCH  15  16
HETATM   16  C14   D T 153       6.761   9.117  -0.314  0.85 82.40     0.060 C 
BRANCH  16  17
HETATM   17  C15   D T 153       8.066   9.452  -1.063  0.85 82.40     0.252 C 
BRANCH  17  18
HETATM   18  N2    D T 153       9.001  10.293  -0.354  0.85 82.40     0.141 N 
HETATM   19  C16   D T 153       8.470  11.625  -0.403  0.85 82.40     0.285 C 
HETATM   20  C17   D T 153       9.292  12.518   0.394  0.85 82.40     0.285 C 
HETATM   21  N3    D T 153      10.358  11.786   1.017  0.85 82.40     0.143 N 
HETATM   22  C18   D T 153       9.796  10.748   1.831  0.85 82.40     0.285 C 
HETATM   23  C20   D T 153      11.008  12.688   1.906  0.85 82.40     0.285 C 
HETATM   24  C19   D T 153       9.016   9.840   1.011  0.85 82.40     0.285 C 
ENDBRANCH  17  18
ENDBRANCH  16  17
ENDBRANCH  15  16
ENDBRANCH  14  15
BRANCH   1  25
HETATM   25  C21   D T 153       4.407  12.417  -3.381  0.85 32.23     0.419 C 
HETATM   26  F1    D T 153       4.157  12.278  -4.648  0.85 32.23    -0.166 F 
HETATM   27  F2    D T 153       5.691  12.376  -3.325  0.85 32.23    -0.166 F 
HETATM   28  F3    D T 153       4.134  13.669  -3.142  0.85 32.23    -0.166 F 
ENDBRANCH   1  25
TORSDOF 10
ENDMDL
MODEL 8
REMARK VINA RESULT:      -6.5      4.240      7.746
REMARK  10 active torsions:
REMARK  status: ('A' for Active; 'I' for Inactive)
REMARK    1  A    between atoms: C1_1  and  C21_25 
REMARK    2  A    between atoms: N1_14  and  C13_15 
REMARK    3  A    between atoms: C13_15  and  C14_16 
REMARK    4  A    between atoms: C14_16  and  C15_17 
REMARK    5  A    between atoms: C15_17  and  N2_18 
REMARK    6  A    between atoms: C1_29  and  C21_53 
REMARK    7  A    between atoms: N1_42  and  C13_43 
REMARK    8  A    between atoms: C13_43  and  C14_44 
REMARK    9  A    between atoms: C14_44  and  C15_45 
REMARK   10  A    between atoms: C15_45  and  N2_46 
ROOT
HETATM    1  C1    D T 153       4.495   5.765  -1.060  0.85 32.23     0.073 C 
HETATM    2  C2    D T 153       3.100   5.776  -1.096  0.85 32.23     0.004 C 
HETATM    3  C3    D T 153       2.442   6.964  -0.892  0.85 32.23     0.008 C 
HETATM    4  C4    D T 153       3.118   8.161  -1.057  0.85 32.23     0.045 C 
HETATM    5  C5    D T 153       4.513   8.181  -1.189  0.85 32.23     0.066 C 
HETATM    6  C6    D T 153       5.217   6.959  -1.152  0.85 32.23     0.022 C 
HETATM    7  S     D T 153       2.163   9.642  -1.115  0.85 32.23    -0.084 SA
HETATM    8  C7    D T 153       3.219  10.757  -1.935  0.85 32.23     0.045 C 
HETATM    9  C8    D T 153       2.627  11.812  -2.648  0.85 32.23     0.008 C 
HETATM   10  C9    D T 153       3.404  12.659  -3.416  0.85 32.23     0.001 C 
HETATM   11  C10   D T 153       4.768  12.424  -3.513  0.85 32.23     0.002 C 
HETATM   12  C11   D T 153       5.351  11.441  -2.726  0.85 32.23     0.018 C 
HETATM   13  C12   D T 153       4.611  10.591  -1.869  0.85 32.23     0.066 C 
HETATM   14  N1    D T 153       5.202   9.441  -1.128  0.85 82.40    -0.327 N 
ENDROOT
BRANCH  14  15
HETATM   15  C13   D T 153       6.656   9.357  -0.968  0.85 82.40     0.108 C 
BRANCH  15  16
HETATM   16  C14   D T 153       7.364   9.026  -2.289  0.85 82.40     0.060 C 
BRANCH  16  17
HETATM   17  C15   D T 153       8.863   8.716  -2.103  0.85 82.40     0.252 C 
BRANCH  17  18
HETATM   18  N2    D T 153       9.404   7.687  -2.959  0.85 82.40     0.141 N 
HETATM   19  C16   D T 153       8.921   6.436  -2.450  0.85 82.40     0.285 C 
HETATM   20  C17   D T 153       9.322   5.353  -3.329  0.85 82.40     0.285 C 
HETATM   21  N3    D T 153      10.043   5.872  -4.457  0.85 82.40     0.143 N 
HETATM   22  C18   D T 153       9.210   6.810  -5.151  0.85 82.40     0.285 C 
HETATM   23  C20   D T 153      10.250   4.780  -5.347  0.85 82.40     0.285 C 
HETATM   24  C19   D T 153       8.857   7.908  -4.271  0.85 82.40     0.285 C 
ENDBRANCH  17  18
ENDBRANCH  16  17
ENDBRANCH  15  16
ENDBRANCH  14  15
BRANCH   1  25
HETATM   25  C21   D T 153       5.195   4.498  -0.915  0.85 32.23     0.419 C 
HETATM   26  F1    D T 153       5.218   4.026   0.295  0.85 32.23    -0.166 F 
HETATM   27  F2    D T 153       6.439   4.543  -1.239  0.85 32.23    -0.166 F 
HETATM   28  F3    D T 153       4.732   3.512  -1.630  0.85 32.23    -0.166 F 
ENDBRANCH   1  25
TORSDOF 10
ENDMDL
MODEL 9
REMARK VINA RESULT:      -6.4      5.339      8.477
REMARK  10 active torsions:
REMARK  status: ('A' for Active; 'I' for Inactive)
REMARK    1  A    between atoms: C1_1  and  C21_25 
REMARK    2  A    between atoms: N1_14  and  C13_15 
REMARK    3  A    between atoms: C13_15  and  C14_16 
REMARK    4  A    between atoms: C14_16  and  C15_17 
REMARK    5  A    between atoms: C15_17  and  N2_18 
REMARK    6  A    between atoms: C1_29  and  C21_53 
REMARK    7  A    between atoms: N1_42  and  C13_43 
REMARK    8  A    between atoms: C13_43  and  C14_44 
REMARK    9  A    between atoms: C14_44  and  C15_45 
REMARK   10  A    between atoms: C15_45  and  N2_46 
ROOT
HETATM    1  C1    D T 153       8.553   7.170  -3.179  0.85 32.23     0.073 C 
HETATM    2  C2    D T 153       7.583   6.326  -2.635  0.85 32.23     0.004 C 
HETATM    3  C3    D T 153       6.617   6.866  -1.821  0.85 32.23     0.008 C 
HETATM    4  C4    D T 153       6.362   8.225  -1.867  0.85 32.23     0.045 C 
HETATM    5  C5    D T 153       7.229   9.093  -2.545  0.85 32.23     0.066 C 
HETATM    6  C6    D T 153       8.368   8.555  -3.182  0.85 32.23     0.022 C 
HETATM    7  S     D T 153       4.907   8.816  -1.065  0.85 32.23    -0.084 SA
HETATM    8  C7    D T 153       4.615  10.340  -1.853  0.85 32.23     0.045 C 
HETATM    9  C8    D T 153       3.293  10.811  -1.895  0.85 32.23     0.008 C 
HETATM   10  C9    D T 153       2.980  11.953  -2.607  0.85 32.23     0.001 C 
HETATM   11  C10   D T 153       3.979  12.599  -3.322  0.85 32.23     0.002 C 
HETATM   12  C11   D T 153       5.294  12.180  -3.192  0.85 32.23     0.018 C 
HETATM   13  C12   D T 153       5.680  11.059  -2.418  0.85 32.23     0.066 C 
HETATM   14  N1    D T 153       7.066  10.512  -2.383  0.85 82.40    -0.327 N 
ENDROOT
BRANCH  14  15
HETATM   15  C13   D T 153       8.178  11.334  -2.867  0.85 82.40     0.108 C 
BRANCH  15  16
HETATM   16  C14   D T 153       9.049  11.860  -1.719  0.85 82.40     0.060 C 
BRANCH  16  17
HETATM   17  C15   D T 153      10.489  11.312  -1.760  0.85 82.40     0.252 C 
BRANCH  17  18
HETATM   18  N2    D T 153      11.541  12.298  -1.675  0.85 82.40     0.141 N 
HETATM   19  C16   D T 153      11.839  12.458  -0.281  0.85 82.40     0.285 C 
HETATM   20  C17   D T 153      12.975  13.346  -0.114  0.85 82.40     0.285 C 
HETATM   21  N3    D T 153      13.474  13.758  -1.396  0.85 82.40     0.143 N 
HETATM   22  C18   D T 153      13.843  12.594  -2.147  0.85 82.40     0.285 C 
HETATM   23  C20   D T 153      14.677  14.480  -1.153  0.85 82.40     0.285 C 
HETATM   24  C19   D T 153      12.686  11.741  -2.343  0.85 82.40     0.285 C 
ENDBRANCH  17  18
ENDBRANCH  16  17
ENDBRANCH  15  16
ENDBRANCH  14  15
BRANCH   1  25
HETATM   25  C21   D T 153       9.768   6.594  -3.736  0.85 32.23     0.419 C 
HETATM   26  F1    D T 153       9.837   6.623  -5.033  0.85 32.23    -0.166 F 
HETATM   27  F2    D T 153       9.938   5.350  -3.457  0.85 32.23    -0.166 F 
HETATM   28  F3    D T 153      10.883   7.145  -3.348  0.85 32.23    -0.166 F 
ENDBRANCH   1  25
TORSDOF 10
ENDMDL
