MODEL 1
REMARK VINA RESULT:    -7.655      0.000      0.000
REMARK INTER + INTRA:         -10.809
REMARK INTER:                  -9.893
REMARK INTRA:                  -0.916
REMARK UNBOUND:                -0.916
REMARK  10 active torsions:
REMARK  status: ('A' for Active; 'I' for Inactive)
REMARK    1  A    between atoms: C1_1  and  C21_25 
REMARK    2  A    between atoms: N1_14  and  C13_15 
REMARK    3  A    between atoms: C13_15  and  C14_16 
REMARK    4  A    between atoms: C14_16  and  C15_17 
REMARK    5  A    between atoms: C15_17  and  N2_18 
REMARK    6  A    between atoms: C1_29  and  C21_53 
REMARK    7  A    between atoms: N1_42  and  C13_43 
REMARK    8  A    between atoms: C13_43  and  C14_44 
REMARK    9  A    between atoms: C14_44  and  C15_45 
REMARK   10  A    between atoms: C15_45  and  N2_46 
ROOT
HETATM    1  C1    D T 153     -31.008   3.838   2.132  0.85 32.23     0.073 C 
HETATM    2  C2    D T 153     -29.940   3.468   1.313  0.85 32.23     0.004 C 
HETATM    3  C3    D T 153     -29.766   4.121   0.118  0.85 32.23     0.008 C 
HETATM    4  C4    D T 153     -30.357   5.356  -0.083  0.85 32.23     0.045 C 
HETATM    5  C5    D T 153     -31.323   5.841   0.811  0.85 32.23     0.066 C 
HETATM    6  C6    D T 153     -31.681   5.046   1.920  0.85 32.23     0.022 C 
HETATM    7  S     D T 153     -29.839   6.298  -1.480  0.85 32.23    -0.084 SA
HETATM    8  C7    D T 153     -30.282   7.925  -1.044  0.85 32.23     0.045 C 
HETATM    9  C8    D T 153     -29.548   8.976  -1.615  0.85 32.23     0.008 C 
HETATM   10  C9    D T 153     -29.774  10.280  -1.219  0.85 32.23     0.001 C 
HETATM   11  C10   D T 153     -30.697  10.533  -0.215  0.85 32.23     0.002 C 
HETATM   12  C11   D T 153     -31.484   9.497   0.268  0.85 32.23     0.018 C 
HETATM   13  C12   D T 153     -31.343   8.152  -0.154  0.85 32.23     0.066 C 
HETATM   14  N1    D T 153     -32.079   7.010   0.456  0.85 82.40    -0.327 N 
ENDROOT
BRANCH  14  15
HETATM   15  C13   D T 153     -33.260   7.272   1.284  0.85 82.40     0.108 C 
BRANCH  15  16
HETATM   16  C14   D T 153     -34.562   6.879   0.573  0.85 82.40     0.060 C 
BRANCH  16  17
HETATM   17  C15   D T 153     -35.398   5.861   1.372  0.85 82.40     0.252 C 
BRANCH  17  18
HETATM   18  N2    D T 153     -35.659   6.203   2.750  0.85 82.40     0.141 N 
HETATM   19  C16   D T 153     -36.653   7.236   2.732  0.85 82.40     0.285 C 
HETATM   20  C17   D T 153     -37.063   7.556   4.087  0.85 82.40     0.285 C 
HETATM   21  N3    D T 153     -36.378   6.710   5.025  0.85 82.40     0.143 N 
HETATM   22  C18   D T 153     -36.665   5.341   4.712  0.85 82.40     0.285 C 
HETATM   23  C20   D T 153     -36.952   6.963   6.302  0.85 82.40     0.285 C 
HETATM   24  C19   D T 153     -36.207   5.029   3.371  0.85 82.40     0.285 C 
ENDBRANCH  17  18
ENDBRANCH  16  17
ENDBRANCH  15  16
ENDBRANCH  14  15
BRANCH   1  25
HETATM   25  C21   D T 153     -31.425   2.948   3.206  0.85 32.23     0.419 C 
HETATM   26  F1    D T 153     -30.902   3.213   4.365  0.85 32.23    -0.166 F 
HETATM   27  F2    D T 153     -31.118   1.713   3.018  0.85 32.23    -0.166 F 
HETATM   28  F3    D T 153     -32.707   2.908   3.440  0.85 32.23    -0.166 F 
ENDBRANCH   1  25
TORSDOF 10
ENDMDL
MODEL 2
REMARK VINA RESULT:    -7.583      1.497      2.217
REMARK INTER + INTRA:         -10.715
REMARK INTER:                  -9.853
REMARK INTRA:                  -0.863
REMARK UNBOUND:                -0.916
REMARK  10 active torsions:
REMARK  status: ('A' for Active; 'I' for Inactive)
REMARK    1  A    between atoms: C1_1  and  C21_25 
REMARK    2  A    between atoms: N1_14  and  C13_15 
REMARK    3  A    between atoms: C13_15  and  C14_16 
REMARK    4  A    between atoms: C14_16  and  C15_17 
REMARK    5  A    between atoms: C15_17  and  N2_18 
REMARK    6  A    between atoms: C1_29  and  C21_53 
REMARK    7  A    between atoms: N1_42  and  C13_43 
REMARK    8  A    between atoms: C13_43  and  C14_44 
REMARK    9  A    between atoms: C14_44  and  C15_45 
REMARK   10  A    between atoms: C15_45  and  N2_46 
ROOT
HETATM    1  C1    D T 153     -31.155   3.932   2.211  0.85 32.23     0.073 C 
HETATM    2  C2    D T 153     -30.098   3.836   1.305  0.85 32.23     0.004 C 
HETATM    3  C3    D T 153     -30.069   4.688   0.228  0.85 32.23     0.008 C 
HETATM    4  C4    D T 153     -30.812   5.855   0.257  0.85 32.23     0.045 C 
HETATM    5  C5    D T 153     -31.777   6.066   1.253  0.85 32.23     0.066 C 
HETATM    6  C6    D T 153     -31.976   5.064   2.227  0.85 32.23     0.022 C 
HETATM    7  S     D T 153     -30.488   7.067  -0.982  0.85 32.23    -0.084 SA
HETATM    8  C7    D T 153     -31.094   8.534  -0.267  0.85 32.23     0.045 C 
HETATM    9  C8    D T 153     -30.523   9.746  -0.681  0.85 32.23     0.008 C 
HETATM   10  C9    D T 153     -30.878  10.932  -0.065  0.85 32.23     0.001 C 
HETATM   11  C10   D T 153     -31.767  10.902   0.999  0.85 32.23     0.002 C 
HETATM   12  C11   D T 153     -32.398   9.712   1.331  0.85 32.23     0.018 C 
HETATM   13  C12   D T 153     -32.123   8.481   0.687  0.85 32.23     0.066 C 
HETATM   14  N1    D T 153     -32.684   7.172   1.125  0.85 82.40    -0.327 N 
ENDROOT
BRANCH  14  15
HETATM   15  C13   D T 153     -33.839   7.147   2.026  0.85 82.40     0.108 C 
BRANCH  15  16
HETATM   16  C14   D T 153     -35.085   6.555   1.352  0.85 82.40     0.060 C 
BRANCH  16  17
HETATM   17  C15   D T 153     -36.245   6.319   2.339  0.85 82.40     0.252 C 
BRANCH  17  18
HETATM   18  N2    D T 153     -36.662   4.947   2.505  0.85 82.40     0.141 N 
HETATM   19  C16   D T 153     -35.749   4.354   3.439  0.85 82.40     0.285 C 
HETATM   20  C17   D T 153     -36.170   3.001   3.756  0.85 82.40     0.285 C 
HETATM   21  N3    D T 153     -37.393   2.690   3.069  0.85 82.40     0.143 N 
HETATM   22  C18   D T 153     -38.396   3.640   3.449  0.85 82.40     0.285 C 
HETATM   23  C20   D T 153     -37.826   1.425   3.558  0.85 82.40     0.285 C 
HETATM   24  C19   D T 153     -37.977   4.980   3.083  0.85 82.40     0.285 C 
ENDBRANCH  17  18
ENDBRANCH  16  17
ENDBRANCH  15  16
ENDBRANCH  14  15
BRANCH   1  25
HETATM   25  C21   D T 153     -31.403   2.836   3.136  0.85 32.23     0.419 C 
HETATM   26  F1    D T 153     -32.645   2.695   3.489  0.85 32.23    -0.166 F 
HETATM   27  F2    D T 153     -30.786   2.943   4.259  0.85 32.23    -0.166 F 
HETATM   28  F3    D T 153     -31.058   1.652   2.713  0.85 32.23    -0.166 F 
ENDBRANCH   1  25
TORSDOF 10
ENDMDL
MODEL 3
REMARK VINA RESULT:    -7.282      2.884      6.509
REMARK INTER + INTRA:         -10.326
REMARK INTER:                  -9.562
REMARK INTRA:                  -0.764
REMARK UNBOUND:                -0.916
REMARK  10 active torsions:
REMARK  status: ('A' for Active; 'I' for Inactive)
REMARK    1  A    between atoms: C1_1  and  C21_25 
REMARK    2  A    between atoms: N1_14  and  C13_15 
REMARK    3  A    between atoms: C13_15  and  C14_16 
REMARK    4  A    between atoms: C14_16  and  C15_17 
REMARK    5  A    between atoms: C15_17  and  N2_18 
REMARK    6  A    between atoms: C1_29  and  C21_53 
REMARK    7  A    between atoms: N1_42  and  C13_43 
REMARK    8  A    between atoms: C13_43  and  C14_44 
REMARK    9  A    between atoms: C14_44  and  C15_45 
REMARK   10  A    between atoms: C15_45  and  N2_46 
ROOT
HETATM    1  C1    D T 153     -30.372   4.163   1.165  0.85 32.23     0.073 C 
HETATM    2  C2    D T 153     -30.360   3.087   2.054  0.85 32.23     0.004 C 
HETATM    3  C3    D T 153     -31.218   3.107   3.126  0.85 32.23     0.008 C 
HETATM    4  C4    D T 153     -32.325   3.936   3.106  0.85 32.23     0.045 C 
HETATM    5  C5    D T 153     -32.456   4.930   2.125  0.85 32.23     0.066 C 
HETATM    6  C6    D T 153     -31.438   5.068   1.158  0.85 32.23     0.022 C 
HETATM    7  S     D T 153     -33.564   3.685   4.335  0.85 32.23    -0.084 SA
HETATM    8  C7    D T 153     -34.977   4.413   3.624  0.85 32.23     0.045 C 
HETATM    9  C8    D T 153     -36.231   3.929   4.025  0.85 32.23     0.008 C 
HETATM   10  C9    D T 153     -37.383   4.383   3.411  0.85 32.23     0.001 C 
HETATM   11  C10   D T 153     -37.281   5.285   2.361  0.85 32.23     0.002 C 
HETATM   12  C11   D T 153     -36.044   5.828   2.044  0.85 32.23     0.018 C 
HETATM   13  C12   D T 153     -34.841   5.450   2.688  0.85 32.23     0.066 C 
HETATM   14  N1    D T 153     -33.491   5.917   2.264  0.85 82.40    -0.327 N 
ENDROOT
BRANCH  14  15
HETATM   15  C13   D T 153     -33.374   7.081   1.382  0.85 82.40     0.108 C 
BRANCH  15  16
HETATM   16  C14   D T 153     -32.806   8.305   2.113  0.85 82.40     0.060 C 
BRANCH  16  17
HETATM   17  C15   D T 153     -32.958   9.609   1.306  0.85 82.40     0.252 C 
BRANCH  17  18
HETATM   18  N2    D T 153     -31.760  10.098   0.667  0.85 82.40     0.141 N 
HETATM   19  C16   D T 153     -32.181  11.070  -0.299  0.85 82.40     0.285 C 
HETATM   20  C17   D T 153     -31.024  11.703  -0.906  0.85 82.40     0.285 C 
HETATM   21  N3    D T 153     -29.816  11.190  -0.322  0.85 82.40     0.143 N 
HETATM   22  C18   D T 153     -29.846  11.426   1.091  0.85 82.40     0.285 C 
HETATM   23  C20   D T 153     -28.746  11.972  -0.841  0.85 82.40     0.285 C 
HETATM   24  C19   D T 153     -30.983  10.749   1.686  0.85 82.40     0.285 C 
ENDBRANCH  17  18
ENDBRANCH  16  17
ENDBRANCH  15  16
ENDBRANCH  14  15
BRANCH   1  25
HETATM   25  C21   D T 153     -29.255   4.342   0.248  0.85 32.23     0.419 C 
HETATM   26  F1    D T 153     -28.165   4.783   0.799  0.85 32.23    -0.166 F 
HETATM   27  F2    D T 153     -29.476   5.191  -0.693  0.85 32.23    -0.166 F 
HETATM   28  F3    D T 153     -28.874   3.272  -0.393  0.85 32.23    -0.166 F 
ENDBRANCH   1  25
TORSDOF 10
ENDMDL
MODEL 4
REMARK VINA RESULT:    -6.951      2.637      3.865
REMARK INTER + INTRA:          -9.898
REMARK INTER:                  -9.005
REMARK INTRA:                  -0.893
REMARK UNBOUND:                -0.916
REMARK  10 active torsions:
REMARK  status: ('A' for Active; 'I' for Inactive)
REMARK    1  A    between atoms: C1_1  and  C21_25 
REMARK    2  A    between atoms: N1_14  and  C13_15 
REMARK    3  A    between atoms: C13_15  and  C14_16 
REMARK    4  A    between atoms: C14_16  and  C15_17 
REMARK    5  A    between atoms: C15_17  and  N2_18 
REMARK    6  A    between atoms: C1_29  and  C21_53 
REMARK    7  A    between atoms: N1_42  and  C13_43 
REMARK    8  A    between atoms: C13_43  and  C14_44 
REMARK    9  A    between atoms: C14_44  and  C15_45 
REMARK   10  A    between atoms: C15_45  and  N2_46 
ROOT
HETATM    1  C1    D T 153     -31.836   4.194   3.065  0.85 32.23     0.073 C 
HETATM    2  C2    D T 153     -31.019   4.392   1.951  0.85 32.23     0.004 C 
HETATM    3  C3    D T 153     -31.511   5.110   0.889  0.85 32.23     0.008 C 
HETATM    4  C4    D T 153     -32.597   5.949   1.071  0.85 32.23     0.045 C 
HETATM    5  C5    D T 153     -33.351   5.897   2.252  0.85 32.23     0.066 C 
HETATM    6  C6    D T 153     -32.982   4.972   3.252  0.85 32.23     0.022 C 
HETATM    7  S     D T 153     -32.979   7.090  -0.217  0.85 32.23    -0.084 SA
HETATM    8  C7    D T 153     -33.907   8.314   0.604  0.85 32.23     0.045 C 
HETATM    9  C8    D T 153     -33.897   9.610   0.068  0.85 32.23     0.008 C 
HETATM   10  C9    D T 153     -34.516  10.648   0.738  0.85 32.23     0.001 C 
HETATM   11  C10   D T 153     -35.103  10.403   1.971  0.85 32.23     0.002 C 
HETATM   12  C11   D T 153     -35.191   9.100   2.440  0.85 32.23     0.018 C 
HETATM   13  C12   D T 153     -34.635   7.989   1.760  0.85 32.23     0.066 C 
HETATM   14  N1    D T 153     -34.597   6.609   2.318  0.85 82.40    -0.327 N 
ENDROOT
BRANCH  14  15
HETATM   15  C13   D T 153     -35.461   6.263   3.450  0.85 82.40     0.108 C 
BRANCH  15  16
HETATM   16  C14   D T 153     -36.851   5.798   2.994  0.85 82.40     0.060 C 
BRANCH  16  17
HETATM   17  C15   D T 153     -37.609   5.016   4.084  0.85 82.40     0.252 C 
BRANCH  17  18
HETATM   18  N2    D T 153     -37.632   3.581   3.930  0.85 82.40     0.141 N 
HETATM   19  C16   D T 153     -38.811   3.118   4.601  0.85 82.40     0.285 C 
HETATM   20  C17   D T 153     -38.976   1.691   4.391  0.85 82.40     0.285 C 
HETATM   21  N3    D T 153     -37.930   1.192   3.542  0.85 82.40     0.143 N 
HETATM   22  C18   D T 153     -37.964   1.900   2.296  0.85 82.40     0.285 C 
HETATM   23  C20   D T 153     -38.254  -0.162   3.247  0.85 82.40     0.285 C 
HETATM   24  C19   D T 153     -37.753   3.317   2.522  0.85 82.40     0.285 C 
ENDBRANCH  17  18
ENDBRANCH  16  17
ENDBRANCH  15  16
ENDBRANCH  14  15
BRANCH   1  25
HETATM   25  C21   D T 153     -31.488   3.160   4.030  0.85 32.23     0.419 C 
HETATM   26  F1    D T 153     -31.041   2.058   3.507  0.85 32.23    -0.166 F 
HETATM   27  F2    D T 153     -32.472   2.764   4.757  0.85 32.23    -0.166 F 
HETATM   28  F3    D T 153     -30.578   3.487   4.904  0.85 32.23    -0.166 F 
ENDBRANCH   1  25
TORSDOF 10
ENDMDL
MODEL 5
REMARK VINA RESULT:    -6.841      2.752      6.753
REMARK INTER + INTRA:          -9.756
REMARK INTER:                  -8.975
REMARK INTRA:                  -0.781
REMARK UNBOUND:                -0.916
REMARK  10 active torsions:
REMARK  status: ('A' for Active; 'I' for Inactive)
REMARK    1  A    between atoms: C1_1  and  C21_25 
REMARK    2  A    between atoms: N1_14  and  C13_15 
REMARK    3  A    between atoms: C13_15  and  C14_16 
REMARK    4  A    between atoms: C14_16  and  C15_17 
REMARK    5  A    between atoms: C15_17  and  N2_18 
REMARK    6  A    between atoms: C1_29  and  C21_53 
REMARK    7  A    between atoms: N1_42  and  C13_43 
REMARK    8  A    between atoms: C13_43  and  C14_44 
REMARK    9  A    between atoms: C14_44  and  C15_45 
REMARK   10  A    between atoms: C15_45  and  N2_46 
ROOT
HETATM    1  C1    D T 153     -31.285   4.595   1.759  0.85 32.23     0.073 C 
HETATM    2  C2    D T 153     -31.857   3.693   2.656  0.85 32.23     0.004 C 
HETATM    3  C3    D T 153     -32.743   4.165   3.593  0.85 32.23     0.008 C 
HETATM    4  C4    D T 153     -33.360   5.388   3.401  0.85 32.23     0.045 C 
HETATM    5  C5    D T 153     -32.919   6.261   2.397  0.85 32.23     0.066 C 
HETATM    6  C6    D T 153     -31.833   5.869   1.585  0.85 32.23     0.022 C 
HETATM    7  S     D T 153     -34.724   5.795   4.442  0.85 32.23    -0.084 SA
HETATM    8  C7    D T 153     -35.573   7.006   3.524  0.85 32.23     0.045 C 
HETATM    9  C8    D T 153     -36.950   7.147   3.747  0.85 32.23     0.008 C 
HETATM   10  C9    D T 153     -37.700   8.007   2.967  0.85 32.23     0.001 C 
HETATM   11  C10   D T 153     -37.082   8.691   1.929  0.85 32.23     0.002 C 
HETATM   12  C11   D T 153     -35.705   8.618   1.785  0.85 32.23     0.018 C 
HETATM   13  C12   D T 153     -34.880   7.807   2.602  0.85 32.23     0.066 C 
HETATM   14  N1    D T 153     -33.422   7.607   2.370  0.85 82.40    -0.327 N 
ENDROOT
BRANCH  14  15
HETATM   15  C13   D T 153     -32.697   8.534   1.496  0.85 82.40     0.108 C 
BRANCH  15  16
HETATM   16  C14   D T 153     -31.942   9.607   2.292  0.85 82.40     0.060 C 
BRANCH  16  17
HETATM   17  C15   D T 153     -31.630  10.864   1.457  0.85 82.40     0.252 C 
BRANCH  17  18
HETATM   18  N2    D T 153     -30.397  10.833   0.707  0.85 82.40     0.141 N 
HETATM   19  C16   D T 153     -30.763  10.850  -0.680  0.85 82.40     0.285 C 
HETATM   20  C17   D T 153     -29.574  10.942  -1.507  0.85 82.40     0.285 C 
HETATM   21  N3    D T 153     -28.402  11.029  -0.681  0.85 82.40     0.143 N 
HETATM   22  C18   D T 153     -28.520  12.173   0.175  0.85 82.40     0.285 C 
HETATM   23  C20   D T 153     -27.306  11.286  -1.552  0.85 82.40     0.285 C 
HETATM   24  C19   D T 153     -29.688  12.041   1.025  0.85 82.40     0.285 C 
ENDBRANCH  17  18
ENDBRANCH  16  17
ENDBRANCH  15  16
ENDBRANCH  14  15
BRANCH   1  25
HETATM   25  C21   D T 153     -30.100   4.201   1.009  0.85 32.23     0.419 C 
HETATM   26  F1    D T 153     -29.012   4.825   1.347  0.85 32.23    -0.166 F 
HETATM   27  F2    D T 153     -30.182   4.411  -0.257  0.85 32.23    -0.166 F 
HETATM   28  F3    D T 153     -29.778   2.940   1.086  0.85 32.23    -0.166 F 
ENDBRANCH   1  25
TORSDOF 10
ENDMDL
MODEL 6
REMARK VINA RESULT:    -6.530      4.875      8.536
REMARK INTER + INTRA:          -9.354
REMARK INTER:                  -8.392
REMARK INTRA:                  -0.962
REMARK UNBOUND:                -0.916
REMARK  10 active torsions:
REMARK  status: ('A' for Active; 'I' for Inactive)
REMARK    1  A    between atoms: C1_1  and  C21_25 
REMARK    2  A    between atoms: N1_14  and  C13_15 
REMARK    3  A    between atoms: C13_15  and  C14_16 
REMARK    4  A    between atoms: C14_16  and  C15_17 
REMARK    5  A    between atoms: C15_17  and  N2_18 
REMARK    6  A    between atoms: C1_29  and  C21_53 
REMARK    7  A    between atoms: N1_42  and  C13_43 
REMARK    8  A    between atoms: C13_43  and  C14_44 
REMARK    9  A    between atoms: C14_44  and  C15_45 
REMARK   10  A    between atoms: C15_45  and  N2_46 
ROOT
HETATM    1  C1    D T 153     -31.783  11.048  -0.100  0.85 32.23     0.073 C 
HETATM    2  C2    D T 153     -33.002  10.882   0.558  0.85 32.23     0.004 C 
HETATM    3  C3    D T 153     -33.599   9.645   0.540  0.85 32.23     0.008 C 
HETATM    4  C4    D T 153     -32.846   8.522   0.248  0.85 32.23     0.045 C 
HETATM    5  C5    D T 153     -31.546   8.646  -0.264  0.85 32.23     0.066 C 
HETATM    6  C6    D T 153     -31.021   9.939  -0.477  0.85 32.23     0.022 C 
HETATM    7  S     D T 153     -33.565   6.944   0.563  0.85 32.23    -0.084 SA
HETATM    8  C7    D T 153     -32.179   5.897   0.690  0.85 32.23     0.045 C 
HETATM    9  C8    D T 153     -32.306   4.738   1.469  0.85 32.23     0.008 C 
HETATM   10  C9    D T 153     -31.209   3.931   1.704  0.85 32.23     0.001 C 
HETATM   11  C10   D T 153     -29.972   4.308   1.203  0.85 32.23     0.002 C 
HETATM   12  C11   D T 153     -29.881   5.401   0.354  0.85 32.23     0.018 C 
HETATM   13  C12   D T 153     -30.987   6.222   0.023  0.85 32.23     0.066 C 
HETATM   14  N1    D T 153     -30.879   7.478  -0.770  0.85 82.40    -0.327 N 
ENDROOT
BRANCH  14  15
HETATM   15  C13   D T 153     -29.670   7.734  -1.557  0.85 82.40     0.108 C 
BRANCH  15  16
HETATM   16  C14   D T 153     -29.660   6.946  -2.874  0.85 82.40     0.060 C 
BRANCH  16  17
HETATM   17  C15   D T 153     -28.265   6.403  -3.237  0.85 82.40     0.252 C 
BRANCH  17  18
HETATM   18  N2    D T 153     -27.339   6.259  -2.139  0.85 82.40     0.141 N 
HETATM   19  C16   D T 153     -27.059   4.857  -2.023  0.85 82.40     0.285 C 
HETATM   20  C17   D T 153     -26.038   4.635  -1.016  0.85 82.40     0.285 C 
HETATM   21  N3    D T 153     -25.594   5.890  -0.476  0.85 82.40     0.143 N 
HETATM   22  C18   D T 153     -25.091   6.703  -1.543  0.85 82.40     0.285 C 
HETATM   23  C20   D T 153     -24.487   5.602   0.371  0.85 82.40     0.285 C 
HETATM   24  C19   D T 153     -26.138   6.952  -2.516  0.85 82.40     0.285 C 
ENDBRANCH  17  18
ENDBRANCH  16  17
ENDBRANCH  15  16
ENDBRANCH  14  15
BRANCH   1  25
HETATM   25  C21   D T 153     -31.314  12.394  -0.401  0.85 32.23     0.419 C 
HETATM   26  F1    D T 153     -31.315  13.208   0.611  0.85 32.23    -0.166 F 
HETATM   27  F2    D T 153     -32.018  13.014  -1.281  0.85 32.23    -0.166 F 
HETATM   28  F3    D T 153     -30.101  12.476  -0.872  0.85 32.23    -0.166 F 
ENDBRANCH   1  25
TORSDOF 10
ENDMDL
MODEL 7
REMARK VINA RESULT:    -6.522      4.143      7.974
REMARK INTER + INTRA:          -9.344
REMARK INTER:                  -8.918
REMARK INTRA:                  -0.427
REMARK UNBOUND:                -0.916
REMARK  10 active torsions:
REMARK  status: ('A' for Active; 'I' for Inactive)
REMARK    1  A    between atoms: C1_1  and  C21_25 
REMARK    2  A    between atoms: N1_14  and  C13_15 
REMARK    3  A    between atoms: C13_15  and  C14_16 
REMARK    4  A    between atoms: C14_16  and  C15_17 
REMARK    5  A    between atoms: C15_17  and  N2_18 
REMARK    6  A    between atoms: C1_29  and  C21_53 
REMARK    7  A    between atoms: N1_42  and  C13_43 
REMARK    8  A    between atoms: C13_43  and  C14_44 
REMARK    9  A    between atoms: C14_44  and  C15_45 
REMARK   10  A    between atoms: C15_45  and  N2_46 
ROOT
HETATM    1  C1    D T 153     -32.200   9.671   1.334  0.85 32.23     0.073 C 
HETATM    2  C2    D T 153     -32.846   9.558   2.566  0.85 32.23     0.004 C 
HETATM    3  C3    D T 153     -33.404   8.352   2.912  0.85 32.23     0.008 C 
HETATM    4  C4    D T 153     -32.993   7.196   2.272  0.85 32.23     0.045 C 
HETATM    5  C5    D T 153     -32.201   7.261   1.117  0.85 32.23     0.066 C 
HETATM    6  C6    D T 153     -31.830   8.528   0.619  0.85 32.23     0.022 C 
HETATM    7  S     D T 153     -33.480   5.652   2.970  0.85 32.23    -0.084 SA
HETATM    8  C7    D T 153     -32.308   4.539   2.320  0.85 32.23     0.045 C 
HETATM    9  C8    D T 153     -32.027   3.382   3.062  0.85 32.23     0.008 C 
HETATM   10  C9    D T 153     -31.024   2.521   2.658  0.85 32.23     0.001 C 
HETATM   11  C10   D T 153     -30.265   2.842   1.542  0.85 32.23     0.002 C 
HETATM   12  C11   D T 153     -30.619   3.935   0.765  0.85 32.23     0.018 C 
HETATM   13  C12   D T 153     -31.683   4.811   1.093  0.85 32.23     0.066 C 
HETATM   14  N1    D T 153     -31.984   6.065   0.349  0.85 82.40    -0.327 N 
ENDROOT
BRANCH  14  15
HETATM   15  C13   D T 153     -31.414   6.268  -0.985  0.85 82.40     0.108 C 
BRANCH  15  16
HETATM   16  C14   D T 153     -29.892   6.460  -0.941  0.85 82.40     0.060 C 
BRANCH  16  17
HETATM   17  C15   D T 153     -29.384   7.466  -1.992  0.85 82.40     0.252 C 
BRANCH  17  18
HETATM   18  N2    D T 153     -28.563   8.542  -1.490  0.85 82.40     0.141 N 
HETATM   19  C16   D T 153     -27.310   8.457  -2.184  0.85 82.40     0.285 C 
HETATM   20  C17   D T 153     -26.465   9.580  -1.824  0.85 82.40     0.285 C 
HETATM   21  N3    D T 153     -27.159  10.452  -0.918  0.85 82.40     0.143 N 
HETATM   22  C18   D T 153     -28.370  10.901  -1.539  0.85 82.40     0.285 C 
HETATM   23  C20   D T 153     -26.339  11.603  -0.749  0.85 82.40     0.285 C 
HETATM   24  C19   D T 153     -29.221   9.768  -1.849  0.85 82.40     0.285 C 
ENDBRANCH  17  18
ENDBRANCH  16  17
ENDBRANCH  15  16
ENDBRANCH  14  15
BRANCH   1  25
HETATM   25  C21   D T 153     -31.922  10.994   0.793  0.85 32.23     0.419 C 
HETATM   26  F1    D T 153     -32.845  11.879   1.024  0.85 32.23    -0.166 F 
HETATM   27  F2    D T 153     -31.796  11.025  -0.486  0.85 32.23    -0.166 F 
HETATM   28  F3    D T 153     -30.828  11.560   1.219  0.85 32.23    -0.166 F 
ENDBRANCH   1  25
TORSDOF 10
ENDMDL
MODEL 8
REMARK VINA RESULT:    -6.138      4.944      8.686
REMARK INTER + INTRA:          -8.848
REMARK INTER:                  -8.523
REMARK INTRA:                  -0.325
REMARK UNBOUND:                -0.916
REMARK  10 active torsions:
REMARK  status: ('A' for Active; 'I' for Inactive)
REMARK    1  A    between atoms: C1_1  and  C21_25 
REMARK    2  A    between atoms: N1_14  and  C13_15 
REMARK    3  A    between atoms: C13_15  and  C14_16 
REMARK    4  A    between atoms: C14_16  and  C15_17 
REMARK    5  A    between atoms: C15_17  and  N2_18 
REMARK    6  A    between atoms: C1_29  and  C21_53 
REMARK    7  A    between atoms: N1_42  and  C13_43 
REMARK    8  A    between atoms: C13_43  and  C14_44 
REMARK    9  A    between atoms: C14_44  and  C15_45 
REMARK   10  A    between atoms: C15_45  and  N2_46 
ROOT
HETATM    1  C1    D T 153     -30.314  10.570  -0.363  0.85 32.23     0.073 C 
HETATM    2  C2    D T 153     -31.419  10.698   0.480  0.85 32.23     0.004 C 
HETATM    3  C3    D T 153     -32.282   9.637   0.604  0.85 32.23     0.008 C 
HETATM    4  C4    D T 153     -31.866   8.367   0.247  0.85 32.23     0.045 C 
HETATM    5  C5    D T 153     -30.672   8.179  -0.463  0.85 32.23     0.066 C 
HETATM    6  C6    D T 153     -29.901   9.310  -0.806  0.85 32.23     0.022 C 
HETATM    7  S     D T 153     -32.874   7.005   0.732  0.85 32.23    -0.084 SA
HETATM    8  C7    D T 153     -31.768   5.661   0.690  0.85 32.23     0.045 C 
HETATM    9  C8    D T 153     -32.037   4.568   1.526  0.85 32.23     0.008 C 
HETATM   10  C9    D T 153     -31.135   3.525   1.624  0.85 32.23     0.001 C 
HETATM   11  C10   D T 153     -29.938   3.597   0.925  0.85 32.23     0.002 C 
HETATM   12  C11   D T 153     -29.731   4.634   0.027  0.85 32.23     0.018 C 
HETATM   13  C12   D T 153     -30.654   5.692  -0.164  0.85 32.23     0.066 C 
HETATM   14  N1    D T 153     -30.383   6.884  -1.016  0.85 82.40    -0.327 N 
ENDROOT
BRANCH  14  15
HETATM   15  C13   D T 153     -29.288   6.844  -1.988  0.85 82.40     0.108 C 
BRANCH  15  16
HETATM   16  C14   D T 153     -27.924   7.093  -1.331  0.85 82.40     0.060 C 
BRANCH  16  17
HETATM   17  C15   D T 153     -26.860   6.059  -1.747  0.85 82.40     0.252 C 
BRANCH  17  18
HETATM   18  N2    D T 153     -25.664   6.024  -0.939  0.85 82.40     0.141 N 
HETATM   19  C16   D T 153     -25.276   7.389  -0.726  0.85 82.40     0.285 C 
HETATM   20  C17   D T 153     -24.145   7.449   0.181  0.85 82.40     0.285 C 
HETATM   21  N3    D T 153     -23.790   6.127   0.618  0.85 82.40     0.143 N 
HETATM   22  C18   D T 153     -24.925   5.526   1.254  0.85 82.40     0.285 C 
HETATM   23  C20   D T 153     -22.796   6.282   1.625  0.85 82.40     0.285 C 
HETATM   24  C19   D T 153     -26.030   5.434   0.319  0.85 82.40     0.285 C 
ENDBRANCH  17  18
ENDBRANCH  16  17
ENDBRANCH  15  16
ENDBRANCH  14  15
BRANCH   1  25
HETATM   25  C21   D T 153     -29.598  11.765  -0.788  0.85 32.23     0.419 C 
HETATM   26  F1    D T 153     -29.016  11.666  -1.945  0.85 32.23    -0.166 F 
HETATM   27  F2    D T 153     -28.641  12.114  -0.003  0.85 32.23    -0.166 F 
HETATM   28  F3    D T 153     -30.318  12.847  -0.887  0.85 32.23    -0.166 F 
ENDBRANCH   1  25
TORSDOF 10
ENDMDL
MODEL 9
REMARK VINA RESULT:    -6.117      3.483      5.919
REMARK INTER + INTRA:          -8.821
REMARK INTER:                  -8.055
REMARK INTRA:                  -0.765
REMARK UNBOUND:                -0.916
REMARK  10 active torsions:
REMARK  status: ('A' for Active; 'I' for Inactive)
REMARK    1  A    between atoms: C1_1  and  C21_25 
REMARK    2  A    between atoms: N1_14  and  C13_15 
REMARK    3  A    between atoms: C13_15  and  C14_16 
REMARK    4  A    between atoms: C14_16  and  C15_17 
REMARK    5  A    between atoms: C15_17  and  N2_18 
REMARK    6  A    between atoms: C1_29  and  C21_53 
REMARK    7  A    between atoms: N1_42  and  C13_43 
REMARK    8  A    between atoms: C13_43  and  C14_44 
REMARK    9  A    between atoms: C14_44  and  C15_45 
REMARK   10  A    between atoms: C15_45  and  N2_46 
ROOT
HETATM    1  C1    D T 153     -32.894   4.823   4.118  0.85 32.23     0.073 C 
HETATM    2  C2    D T 153     -32.145   5.668   3.299  0.85 32.23     0.004 C 
HETATM    3  C3    D T 153     -32.805   6.542   2.470  0.85 32.23     0.008 C 
HETATM    4  C4    D T 153     -34.125   6.870   2.729  0.85 32.23     0.045 C 
HETATM    5  C5    D T 153     -34.870   6.146   3.671  0.85 32.23     0.066 C 
HETATM    6  C6    D T 153     -34.249   5.076   4.350  0.85 32.23     0.022 C 
HETATM    7  S     D T 153     -34.820   8.233   1.854  0.85 32.23    -0.084 SA
HETATM    8  C7    D T 153     -36.161   8.704   2.861  0.85 32.23     0.045 C 
HETATM    9  C8    D T 153     -36.582  10.041   2.802  0.85 32.23     0.008 C 
HETATM   10  C9    D T 153     -37.562  10.502   3.661  0.85 32.23     0.001 C 
HETATM   11  C10   D T 153     -38.085   9.642   4.616  0.85 32.23     0.002 C 
HETATM   12  C11   D T 153     -37.731   8.301   4.596  0.85 32.23     0.018 C 
HETATM   13  C12   D T 153     -36.785   7.760   3.692  0.85 32.23     0.066 C 
HETATM   14  N1    D T 153     -36.289   6.357   3.751  0.85 82.40    -0.327 N 
ENDROOT
BRANCH  14  15
HETATM   15  C13   D T 153     -37.031   5.361   4.529  0.85 82.40     0.108 C 
BRANCH  15  16
HETATM   16  C14   D T 153     -38.038   4.588   3.667  0.85 82.40     0.060 C 
BRANCH  16  17
HETATM   17  C15   D T 153     -38.727   3.442   4.432  0.85 82.40     0.252 C 
BRANCH  17  18
HETATM   18  N2    D T 153     -38.444   2.108   3.960  0.85 82.40     0.141 N 
HETATM   19  C16   D T 153     -38.886   1.209   4.986  0.85 82.40     0.285 C 
HETATM   20  C17   D T 153     -38.747  -0.165   4.539  0.85 82.40     0.285 C 
HETATM   21  N3    D T 153     -38.250  -0.199   3.192  0.85 82.40     0.143 N 
HETATM   22  C18   D T 153     -39.150   0.527   2.345  0.85 82.40     0.285 C 
HETATM   23  C20   D T 153     -38.303  -1.557   2.770  0.85 82.40     0.285 C 
HETATM   24  C19   D T 153     -39.240   1.908   2.780  0.85 82.40     0.285 C 
ENDBRANCH  17  18
ENDBRANCH  16  17
ENDBRANCH  15  16
ENDBRANCH  14  15
BRANCH   1  25
HETATM   25  C21   D T 153     -32.252   3.665   4.724  0.85 32.23     0.419 C 
HETATM   26  F1    D T 153     -31.328   3.949   5.592  0.85 32.23    -0.166 F 
HETATM   27  F2    D T 153     -31.647   2.899   3.888  0.85 32.23    -0.166 F 
HETATM   28  F3    D T 153     -33.045   2.850   5.362  0.85 32.23    -0.166 F 
ENDBRANCH   1  25
TORSDOF 10
ENDMDL
