MODEL 1
REMARK VINA RESULT:    -6.473      0.000      0.000
REMARK INTER + INTRA:          -9.355
REMARK INTER:                  -8.366
REMARK INTRA:                  -0.989
REMARK UNBOUND:                -0.989
REMARK  10 active torsions:
REMARK  status: ('A' for Active; 'I' for Inactive)
REMARK    1  A    between atoms: C1_1  and  C21_25 
REMARK    2  A    between atoms: N1_14  and  C13_15 
REMARK    3  A    between atoms: C13_15  and  C14_16 
REMARK    4  A    between atoms: C14_16  and  C15_17 
REMARK    5  A    between atoms: C15_17  and  N2_18 
REMARK    6  A    between atoms: C1_29  and  C21_53 
REMARK    7  A    between atoms: N1_42  and  C13_43 
REMARK    8  A    between atoms: C13_43  and  C14_44 
REMARK    9  A    between atoms: C14_44  and  C15_45 
REMARK   10  A    between atoms: C15_45  and  N2_46 
ROOT
HETATM    1  C1    D T 153      -2.422  -6.742  24.249  0.85 32.23     0.073 C 
HETATM    2  C2    D T 153      -2.771  -5.400  24.397  0.85 32.23     0.004 C 
HETATM    3  C3    D T 153      -4.009  -4.988  23.966  0.85 32.23     0.008 C 
HETATM    4  C4    D T 153      -5.016  -5.917  23.777  0.85 32.23     0.045 C 
HETATM    5  C5    D T 153      -4.732  -7.291  23.783  0.85 32.23     0.066 C 
HETATM    6  C6    D T 153      -3.399  -7.707  23.986  0.85 32.23     0.022 C 
HETATM    7  S     D T 153      -6.658  -5.317  23.552  0.85 32.23    -0.084 SA
HETATM    8  C7    D T 153      -7.641  -6.688  23.984  0.85 32.23     0.045 C 
HETATM    9  C8    D T 153      -8.935  -6.438  24.466  0.85 32.23     0.008 C 
HETATM   10  C9    D T 153      -9.719  -7.474  24.934  0.85 32.23     0.001 C 
HETATM   11  C10   D T 153      -9.192  -8.757  24.971  0.85 32.23     0.002 C 
HETATM   12  C11   D T 153      -7.951  -9.004  24.401  0.85 32.23     0.018 C 
HETATM   13  C12   D T 153      -7.136  -7.991  23.843  0.85 32.23     0.066 C 
HETATM   14  N1    D T 153      -5.746  -8.216  23.358  0.85 82.40    -0.327 N 
ENDROOT
BRANCH  14  15
HETATM   15  C13   D T 153      -5.284  -9.583  23.102  0.85 82.40     0.108 C 
BRANCH  15  16
HETATM   16  C14   D T 153      -5.188  -9.888  21.601  0.85 82.40     0.060 C 
BRANCH  16  17
HETATM   17  C15   D T 153      -6.562 -10.140  20.952  0.85 82.40     0.252 C 
BRANCH  17  18
HETATM   18  N2    D T 153      -6.962  -9.196  19.936  0.85 82.40     0.141 N 
HETATM   19  C16   D T 153      -5.792  -8.918  19.155  0.85 82.40     0.285 C 
HETATM   20  C17   D T 153      -6.134  -8.065  18.030  0.85 82.40     0.285 C 
HETATM   21  N3    D T 153      -7.545  -7.797  18.025  0.85 82.40     0.143 N 
HETATM   22  C18   D T 153      -8.255  -9.041  17.959  0.85 82.40     0.285 C 
HETATM   23  C20   D T 153      -7.825  -7.105  16.812  0.85 82.40     0.285 C 
HETATM   24  C19   D T 153      -7.935  -9.860  19.113  0.85 82.40     0.285 C 
ENDBRANCH  17  18
ENDBRANCH  16  17
ENDBRANCH  15  16
ENDBRANCH  14  15
BRANCH   1  25
HETATM   25  C21   D T 153      -1.023  -7.131  24.359  0.85 32.23     0.419 C 
HETATM   26  F1    D T 153      -0.592  -7.265  25.578  0.85 32.23    -0.166 F 
HETATM   27  F2    D T 153      -0.200  -6.288  23.845  0.85 32.23    -0.166 F 
HETATM   28  F3    D T 153      -0.702  -8.257  23.785  0.85 32.23    -0.166 F 
ENDBRANCH   1  25
TORSDOF 10
ENDMDL
MODEL 2
REMARK VINA RESULT:    -6.189      8.648     11.358
REMARK INTER + INTRA:          -8.988
REMARK INTER:                  -8.286
REMARK INTRA:                  -0.702
REMARK UNBOUND:                -0.989
REMARK  10 active torsions:
REMARK  status: ('A' for Active; 'I' for Inactive)
REMARK    1  A    between atoms: C1_1  and  C21_25 
REMARK    2  A    between atoms: N1_14  and  C13_15 
REMARK    3  A    between atoms: C13_15  and  C14_16 
REMARK    4  A    between atoms: C14_16  and  C15_17 
REMARK    5  A    between atoms: C15_17  and  N2_18 
REMARK    6  A    between atoms: C1_29  and  C21_53 
REMARK    7  A    between atoms: N1_42  and  C13_43 
REMARK    8  A    between atoms: C13_43  and  C14_44 
REMARK    9  A    between atoms: C14_44  and  C15_45 
REMARK   10  A    between atoms: C15_45  and  N2_46 
ROOT
HETATM    1  C1    D T 153     -10.045  -0.680  21.579  0.85 32.23     0.073 C 
HETATM    2  C2    D T 153     -10.998  -0.958  20.599  0.85 32.23     0.004 C 
HETATM    3  C3    D T 153     -12.278  -1.268  20.991  0.85 32.23     0.008 C 
HETATM    4  C4    D T 153     -12.711  -0.919  22.258  0.85 32.23     0.045 C 
HETATM    5  C5    D T 153     -11.801  -0.476  23.229  0.85 32.23     0.066 C 
HETATM    6  C6    D T 153     -10.434  -0.393  22.889  0.85 32.23     0.022 C 
HETATM    7  S     D T 153     -14.438  -1.031  22.597  0.85 32.23    -0.084 SA
HETATM    8  C7    D T 153     -14.643   0.039  23.955  0.85 32.23     0.045 C 
HETATM    9  C8    D T 153     -15.902   0.633  24.134  0.85 32.23     0.008 C 
HETATM   10  C9    D T 153     -16.093   1.580  25.122  0.85 32.23     0.001 C 
HETATM   11  C10   D T 153     -15.014   1.973  25.900  0.85 32.23     0.002 C 
HETATM   12  C11   D T 153     -13.803   1.307  25.778  0.85 32.23     0.018 C 
HETATM   13  C12   D T 153     -13.572   0.281  24.830  0.85 32.23     0.066 C 
HETATM   14  N1    D T 153     -12.242  -0.344  24.591  0.85 82.40    -0.327 N 
ENDROOT
BRANCH  14  15
HETATM   15  C13   D T 153     -11.177  -0.176  25.583  0.85 82.40     0.108 C 
BRANCH  15  16
HETATM   16  C14   D T 153     -11.324  -1.153  26.758  0.85 82.40     0.060 C 
BRANCH  16  17
HETATM   17  C15   D T 153     -10.793  -0.578  28.085  0.85 82.40     0.252 C 
BRANCH  17  18
HETATM   18  N2    D T 153      -9.476  -1.019  28.481  0.85 82.40     0.141 N 
HETATM   19  C16   D T 153      -9.134  -0.273  29.658  0.85 82.40     0.285 C 
HETATM   20  C17   D T 153      -7.869  -0.743  30.195  0.85 82.40     0.285 C 
HETATM   21  N3    D T 153      -7.372  -1.835  29.405  0.85 82.40     0.143 N 
HETATM   22  C18   D T 153      -8.347  -2.886  29.399  0.85 82.40     0.285 C 
HETATM   23  C20   D T 153      -6.231  -2.345  30.086  0.85 82.40     0.285 C 
HETATM   24  C19   D T 153      -9.589  -2.411  28.818  0.85 82.40     0.285 C 
ENDBRANCH  17  18
ENDBRANCH  16  17
ENDBRANCH  15  16
ENDBRANCH  14  15
BRANCH   1  25
HETATM   25  C21   D T 153      -8.632  -0.703  21.225  0.85 32.23     0.419 C 
HETATM   26  F1    D T 153      -8.388  -0.543  19.959  0.85 32.23    -0.166 F 
HETATM   27  F2    D T 153      -8.036  -1.808  21.505  0.85 32.23    -0.166 F 
HETATM   28  F3    D T 153      -7.890   0.197  21.806  0.85 32.23    -0.166 F 
ENDBRANCH   1  25
TORSDOF 10
ENDMDL
MODEL 3
REMARK VINA RESULT:    -6.166      5.933      9.141
REMARK INTER + INTRA:          -8.957
REMARK INTER:                  -8.048
REMARK INTRA:                  -0.909
REMARK UNBOUND:                -0.989
REMARK  10 active torsions:
REMARK  status: ('A' for Active; 'I' for Inactive)
REMARK    1  A    between atoms: C1_1  and  C21_25 
REMARK    2  A    between atoms: N1_14  and  C13_15 
REMARK    3  A    between atoms: C13_15  and  C14_16 
REMARK    4  A    between atoms: C14_16  and  C15_17 
REMARK    5  A    between atoms: C15_17  and  N2_18 
REMARK    6  A    between atoms: C1_29  and  C21_53 
REMARK    7  A    between atoms: N1_42  and  C13_43 
REMARK    8  A    between atoms: C13_43  and  C14_44 
REMARK    9  A    between atoms: C14_44  and  C15_45 
REMARK   10  A    between atoms: C15_45  and  N2_46 
ROOT
HETATM    1  C1    D T 153      -7.353 -13.288  15.248  0.85 32.23     0.073 C 
HETATM    2  C2    D T 153      -6.543 -14.401  15.024  0.85 32.23     0.004 C 
HETATM    3  C3    D T 153      -5.473 -14.619  15.859  0.85 32.23     0.008 C 
HETATM    4  C4    D T 153      -5.437 -14.012  17.102  0.85 32.23     0.045 C 
HETATM    5  C5    D T 153      -6.346 -12.995  17.428  0.85 32.23     0.066 C 
HETATM    6  C6    D T 153      -7.298 -12.601  16.464  0.85 32.23     0.022 C 
HETATM    7  S     D T 153      -4.231 -14.575  18.258  0.85 32.23    -0.084 SA
HETATM    8  C7    D T 153      -4.891 -14.078  19.790  0.85 32.23     0.045 C 
HETATM    9  C8    D T 153      -4.530 -14.815  20.928  0.85 32.23     0.008 C 
HETATM   10  C9    D T 153      -5.112 -14.543  22.151  0.85 32.23     0.001 C 
HETATM   11  C10   D T 153      -6.094 -13.567  22.231  0.85 32.23     0.002 C 
HETATM   12  C11   D T 153      -6.370 -12.781  21.121  0.85 32.23     0.018 C 
HETATM   13  C12   D T 153      -5.752 -12.971  19.861  0.85 32.23     0.066 C 
HETATM   14  N1    D T 153      -6.139 -12.230  18.628  0.85 82.40    -0.327 N 
ENDROOT
BRANCH  14  15
HETATM   15  C13   D T 153      -6.937 -11.007  18.740  0.85 82.40     0.108 C 
BRANCH  15  16
HETATM   16  C14   D T 153      -6.072  -9.783  19.070  0.85 82.40     0.060 C 
BRANCH  16  17
HETATM   17  C15   D T 153      -6.842  -8.697  19.845  0.85 82.40     0.252 C 
BRANCH  17  18
HETATM   18  N2    D T 153      -7.095  -8.975  21.238  0.85 82.40     0.141 N 
HETATM   19  C16   D T 153      -5.817  -9.206  21.846  0.85 82.40     0.285 C 
HETATM   20  C17   D T 153      -5.970  -9.377  23.280  0.85 82.40     0.285 C 
HETATM   21  N3    D T 153      -7.349  -9.221  23.651  0.85 82.40     0.143 N 
HETATM   22  C18   D T 153      -7.799  -7.924  23.239  0.85 82.40     0.285 C 
HETATM   23  C20   D T 153      -7.393  -9.232  25.075  0.85 82.40     0.285 C 
HETATM   24  C19   D T 153      -7.680  -7.789  21.800  0.85 82.40     0.285 C 
ENDBRANCH  17  18
ENDBRANCH  16  17
ENDBRANCH  15  16
ENDBRANCH  14  15
BRANCH   1  25
HETATM   25  C21   D T 153      -8.254 -12.839  14.196  0.85 32.23     0.419 C 
HETATM   26  F1    D T 153      -7.893 -13.175  12.994  0.85 32.23    -0.166 F 
HETATM   27  F2    D T 153      -8.382 -11.562  14.121  0.85 32.23    -0.166 F 
HETATM   28  F3    D T 153      -9.483 -13.263  14.286  0.85 32.23    -0.166 F 
ENDBRANCH   1  25
TORSDOF 10
ENDMDL
MODEL 4
REMARK VINA RESULT:    -6.021      8.778     11.735
REMARK INTER + INTRA:          -8.770
REMARK INTER:                  -8.051
REMARK INTRA:                  -0.718
REMARK UNBOUND:                -0.989
REMARK  10 active torsions:
REMARK  status: ('A' for Active; 'I' for Inactive)
REMARK    1  A    between atoms: C1_1  and  C21_25 
REMARK    2  A    between atoms: N1_14  and  C13_15 
REMARK    3  A    between atoms: C13_15  and  C14_16 
REMARK    4  A    between atoms: C14_16  and  C15_17 
REMARK    5  A    between atoms: C15_17  and  N2_18 
REMARK    6  A    between atoms: C1_29  and  C21_53 
REMARK    7  A    between atoms: N1_42  and  C13_43 
REMARK    8  A    between atoms: C13_43  and  C14_44 
REMARK    9  A    between atoms: C14_44  and  C15_45 
REMARK   10  A    between atoms: C15_45  and  N2_46 
ROOT
HETATM    1  C1    D T 153     -10.017  -0.763  21.572  0.85 32.23     0.073 C 
HETATM    2  C2    D T 153     -10.866  -0.967  20.484  0.85 32.23     0.004 C 
HETATM    3  C3    D T 153     -12.181  -1.286  20.723  0.85 32.23     0.008 C 
HETATM    4  C4    D T 153     -12.740  -1.014  21.959  0.85 32.23     0.045 C 
HETATM    5  C5    D T 153     -11.932  -0.644  23.044  0.85 32.23     0.066 C 
HETATM    6  C6    D T 153     -10.537  -0.554  22.852  0.85 32.23     0.022 C 
HETATM    7  S     D T 153     -14.493  -1.128  22.112  0.85 32.23    -0.084 SA
HETATM    8  C7    D T 153     -14.831  -0.144  23.508  0.85 32.23     0.045 C 
HETATM    9  C8    D T 153     -16.099   0.452  23.596  0.85 32.23     0.008 C 
HETATM   10  C9    D T 153     -16.386   1.336  24.617  0.85 32.23     0.001 C 
HETATM   11  C10   D T 153     -15.391   1.667  25.526  0.85 32.23     0.002 C 
HETATM   12  C11   D T 153     -14.177   0.996  25.485  0.85 32.23     0.018 C 
HETATM   13  C12   D T 153     -13.855   0.030  24.502  0.85 32.23     0.066 C 
HETATM   14  N1    D T 153     -12.510  -0.593  24.360  0.85 82.40    -0.327 N 
ENDROOT
BRANCH  14  15
HETATM   15  C13   D T 153     -11.551  -0.501  25.464  0.85 82.40     0.108 C 
BRANCH  15  16
HETATM   16  C14   D T 153     -11.864  -1.502  26.585  0.85 82.40     0.060 C 
BRANCH  16  17
HETATM   17  C15   D T 153     -10.685  -1.701  27.556  0.85 82.40     0.252 C 
BRANCH  17  18
HETATM   18  N2    D T 153     -10.256  -0.526  28.277  0.85 82.40     0.141 N 
HETATM   19  C16   D T 153     -11.369  -0.112  29.081  0.85 82.40     0.285 C 
HETATM   20  C17   D T 153     -10.982   0.998  29.933  0.85 82.40     0.285 C 
HETATM   21  N3    D T 153      -9.594   1.312  29.736  0.85 82.40     0.143 N 
HETATM   22  C18   D T 153      -8.809   0.148  30.024  0.85 82.40     0.285 C 
HETATM   23  C20   D T 153      -9.252   2.285  30.718  0.85 82.40     0.285 C 
HETATM   24  C19   D T 153      -9.178  -0.936  29.133  0.85 82.40     0.285 C 
ENDBRANCH  17  18
ENDBRANCH  16  17
ENDBRANCH  15  16
ENDBRANCH  14  15
BRANCH   1  25
HETATM   25  C21   D T 153      -8.576  -0.779  21.363  0.85 32.23     0.419 C 
HETATM   26  F1    D T 153      -8.204  -0.603  20.131  0.85 32.23    -0.166 F 
HETATM   27  F2    D T 153      -8.008  -1.886  21.689  0.85 32.23    -0.166 F 
HETATM   28  F3    D T 153      -7.899   0.115  22.028  0.85 32.23    -0.166 F 
ENDBRANCH   1  25
TORSDOF 10
ENDMDL
MODEL 5
REMARK VINA RESULT:    -5.829      1.811      2.305
REMARK INTER + INTRA:          -8.522
REMARK INTER:                  -7.936
REMARK INTRA:                  -0.585
REMARK UNBOUND:                -0.989
REMARK  10 active torsions:
REMARK  status: ('A' for Active; 'I' for Inactive)
REMARK    1  A    between atoms: C1_1  and  C21_25 
REMARK    2  A    between atoms: N1_14  and  C13_15 
REMARK    3  A    between atoms: C13_15  and  C14_16 
REMARK    4  A    between atoms: C14_16  and  C15_17 
REMARK    5  A    between atoms: C15_17  and  N2_18 
REMARK    6  A    between atoms: C1_29  and  C21_53 
REMARK    7  A    between atoms: N1_42  and  C13_43 
REMARK    8  A    between atoms: C13_43  and  C14_44 
REMARK    9  A    between atoms: C14_44  and  C15_45 
REMARK   10  A    between atoms: C15_45  and  N2_46 
ROOT
HETATM    1  C1    D T 153      -3.393  -5.751  24.399  0.85 32.23     0.073 C 
HETATM    2  C2    D T 153      -4.043  -5.115  25.458  0.85 32.23     0.004 C 
HETATM    3  C3    D T 153      -5.312  -5.520  25.792  0.85 32.23     0.008 C 
HETATM    4  C4    D T 153      -5.768  -6.761  25.384  0.85 32.23     0.045 C 
HETATM    5  C5    D T 153      -5.053  -7.509  24.437  0.85 32.23     0.066 C 
HETATM    6  C6    D T 153      -3.860  -6.972  23.907  0.85 32.23     0.022 C 
HETATM    7  S     D T 153      -7.254  -7.372  26.109  0.85 32.23    -0.084 SA
HETATM    8  C7    D T 153      -7.138  -9.091  25.858  0.85 32.23     0.045 C 
HETATM    9  C8    D T 153      -7.812  -9.930  26.760  0.85 32.23     0.008 C 
HETATM   10  C9    D T 153      -7.661 -11.301  26.684  0.85 32.23     0.001 C 
HETATM   11  C10   D T 153      -6.797 -11.836  25.740  0.85 32.23     0.002 C 
HETATM   12  C11   D T 153      -6.215 -11.003  24.795  0.85 32.23     0.018 C 
HETATM   13  C12   D T 153      -6.391  -9.599  24.783  0.85 32.23     0.066 C 
HETATM   14  N1    D T 153      -5.663  -8.679  23.865  0.85 82.40    -0.327 N 
ENDROOT
BRANCH  14  15
HETATM   15  C13   D T 153      -4.994  -9.222  22.680  0.85 82.40     0.108 C 
BRANCH  15  16
HETATM   16  C14   D T 153      -5.995  -9.724  21.631  0.85 82.40     0.060 C 
BRANCH  16  17
HETATM   17  C15   D T 153      -5.624  -9.299  20.198  0.85 82.40     0.252 C 
BRANCH  17  18
HETATM   18  N2    D T 153      -6.725  -8.901  19.353  0.85 82.40     0.141 N 
HETATM   19  C16   D T 153      -6.182  -8.009  18.369  0.85 82.40     0.285 C 
HETATM   20  C17   D T 153      -7.204  -7.654  17.401  0.85 82.40     0.285 C 
HETATM   21  N3    D T 153      -8.431  -8.336  17.704  0.85 82.40     0.143 N 
HETATM   22  C18   D T 153      -8.191  -9.749  17.699  0.85 82.40     0.285 C 
HETATM   23  C20   D T 153      -9.323  -8.072  16.626  0.85 82.40     0.285 C 
HETATM   24  C19   D T 153      -7.201 -10.090  18.703  0.85 82.40     0.285 C 
ENDBRANCH  17  18
ENDBRANCH  16  17
ENDBRANCH  15  16
ENDBRANCH  14  15
BRANCH   1  25
HETATM   25  C21   D T 153      -2.223  -5.122  23.802  0.85 32.23     0.419 C 
HETATM   26  F1    D T 153      -1.490  -4.442  24.631  0.85 32.23    -0.166 F 
HETATM   27  F2    D T 153      -2.497  -4.269  22.879  0.85 32.23    -0.166 F 
HETATM   28  F3    D T 153      -1.380  -5.931  23.224  0.85 32.23    -0.166 F 
ENDBRANCH   1  25
TORSDOF 10
ENDMDL
MODEL 6
REMARK VINA RESULT:    -5.825      8.587      9.815
REMARK INTER + INTRA:          -8.516
REMARK INTER:                  -8.655
REMARK INTRA:                   0.139
REMARK UNBOUND:                -0.989
REMARK  10 active torsions:
REMARK  status: ('A' for Active; 'I' for Inactive)
REMARK    1  A    between atoms: C1_1  and  C21_25 
REMARK    2  A    between atoms: N1_14  and  C13_15 
REMARK    3  A    between atoms: C13_15  and  C14_16 
REMARK    4  A    between atoms: C14_16  and  C15_17 
REMARK    5  A    between atoms: C15_17  and  N2_18 
REMARK    6  A    between atoms: C1_29  and  C21_53 
REMARK    7  A    between atoms: N1_42  and  C13_43 
REMARK    8  A    between atoms: C13_43  and  C14_44 
REMARK    9  A    between atoms: C14_44  and  C15_45 
REMARK   10  A    between atoms: C15_45  and  N2_46 
ROOT
HETATM    1  C1    D T 153     -10.631  -0.679  22.195  0.85 32.23     0.073 C 
HETATM    2  C2    D T 153     -10.706  -0.085  23.456  0.85 32.23     0.004 C 
HETATM    3  C3    D T 153     -11.930   0.335  23.915  0.85 32.23     0.008 C 
HETATM    4  C4    D T 153     -13.088  -0.170  23.350  0.85 32.23     0.045 C 
HETATM    5  C5    D T 153     -13.037  -0.916  22.164  0.85 32.23     0.066 C 
HETATM    6  C6    D T 153     -11.784  -1.141  21.556  0.85 32.23     0.022 C 
HETATM    7  S     D T 153     -14.612   0.135  24.183  0.85 32.23    -0.084 SA
HETATM    8  C7    D T 153     -15.651  -1.122  23.576  0.85 32.23     0.045 C 
HETATM    9  C8    D T 153     -16.712  -1.544  24.393  0.85 32.23     0.008 C 
HETATM   10  C9    D T 153     -17.498  -2.616  24.019  0.85 32.23     0.001 C 
HETATM   11  C10   D T 153     -17.195  -3.303  22.852  0.85 32.23     0.002 C 
HETATM   12  C11   D T 153     -16.208  -2.816  22.008  0.85 32.23     0.018 C 
HETATM   13  C12   D T 153     -15.419  -1.680  22.308  0.85 32.23     0.066 C 
HETATM   14  N1    D T 153     -14.264  -1.229  21.482  0.85 82.40    -0.327 N 
ENDROOT
BRANCH  14  15
HETATM   15  C13   D T 153     -14.114  -1.734  20.116  0.85 82.40     0.108 C 
BRANCH  15  16
HETATM   16  C14   D T 153     -13.563  -3.166  20.088  0.85 82.40     0.060 C 
BRANCH  16  17
HETATM   17  C15   D T 153     -13.982  -3.945  18.826  0.85 82.40     0.252 C 
BRANCH  17  18
HETATM   18  N2    D T 153     -13.033  -3.940  17.738  0.85 82.40     0.141 N 
HETATM   19  C16   D T 153     -13.631  -4.693  16.673  0.85 82.40     0.285 C 
HETATM   20  C17   D T 153     -12.790  -4.637  15.491  0.85 82.40     0.285 C 
HETATM   21  N3    D T 153     -11.641  -3.812  15.740  0.85 82.40     0.143 N 
HETATM   22  C18   D T 153     -12.083  -2.501  16.116  0.85 82.40     0.285 C 
HETATM   23  C20   D T 153     -10.964  -3.669  14.495  0.85 82.40     0.285 C 
HETATM   24  C19   D T 153     -12.883  -2.572  17.324  0.85 82.40     0.285 C 
ENDBRANCH  17  18
ENDBRANCH  16  17
ENDBRANCH  15  16
ENDBRANCH  14  15
BRANCH   1  25
HETATM   25  C21   D T 153      -9.334  -0.804  21.544  0.85 32.23     0.419 C 
HETATM   26  F1    D T 153      -8.473   0.112  21.870  0.85 32.23    -0.166 F 
HETATM   27  F2    D T 153      -9.380  -0.726  20.261  0.85 32.23    -0.166 F 
HETATM   28  F3    D T 153      -8.701  -1.923  21.757  0.85 32.23    -0.166 F 
ENDBRANCH   1  25
TORSDOF 10
ENDMDL
MODEL 7
REMARK VINA RESULT:    -5.721      5.524      8.975
REMARK INTER + INTRA:          -8.382
REMARK INTER:                  -8.317
REMARK INTRA:                  -0.065
REMARK UNBOUND:                -0.989
REMARK  10 active torsions:
REMARK  status: ('A' for Active; 'I' for Inactive)
REMARK    1  A    between atoms: C1_1  and  C21_25 
REMARK    2  A    between atoms: N1_14  and  C13_15 
REMARK    3  A    between atoms: C13_15  and  C14_16 
REMARK    4  A    between atoms: C14_16  and  C15_17 
REMARK    5  A    between atoms: C15_17  and  N2_18 
REMARK    6  A    between atoms: C1_29  and  C21_53 
REMARK    7  A    between atoms: N1_42  and  C13_43 
REMARK    8  A    between atoms: C13_43  and  C14_44 
REMARK    9  A    between atoms: C14_44  and  C15_45 
REMARK   10  A    between atoms: C15_45  and  N2_46 
ROOT
HETATM    1  C1    D T 153      -8.768 -11.318  15.423  0.85 32.23     0.073 C 
HETATM    2  C2    D T 153      -8.521 -12.621  14.993  0.85 32.23     0.004 C 
HETATM    3  C3    D T 153      -7.463 -13.308  15.539  0.85 32.23     0.008 C 
HETATM    4  C4    D T 153      -6.923 -12.894  16.744  0.85 32.23     0.045 C 
HETATM    5  C5    D T 153      -7.273 -11.653  17.295  0.85 32.23     0.066 C 
HETATM    6  C6    D T 153      -8.186 -10.833  16.598  0.85 32.23     0.022 C 
HETATM    7  S     D T 153      -5.807 -13.984  17.563  0.85 32.23    -0.084 SA
HETATM    8  C7    D T 153      -5.870 -13.443  19.217  0.85 32.23     0.045 C 
HETATM    9  C8    D T 153      -5.581 -14.379  20.222  0.85 32.23     0.008 C 
HETATM   10  C9    D T 153      -5.729 -14.042  21.554  0.85 32.23     0.001 C 
HETATM   11  C10   D T 153      -6.215 -12.785  21.883  0.85 32.23     0.002 C 
HETATM   12  C11   D T 153      -6.402 -11.840  20.885  0.85 32.23     0.018 C 
HETATM   13  C12   D T 153      -6.198 -12.110  19.511  0.85 32.23     0.066 C 
HETATM   14  N1    D T 153      -6.529 -11.152  18.419  0.85 82.40    -0.327 N 
ENDROOT
BRANCH  14  15
HETATM   15  C13   D T 153      -6.747  -9.740  18.739  0.85 82.40     0.108 C 
BRANCH  15  16
HETATM   16  C14   D T 153      -7.699  -9.558  19.929  0.85 82.40     0.060 C 
BRANCH  16  17
HETATM   17  C15   D T 153      -7.708  -8.118  20.475  0.85 82.40     0.252 C 
BRANCH  17  18
HETATM   18  N2    D T 153      -7.586  -7.985  21.908  0.85 82.40     0.141 N 
HETATM   19  C16   D T 153      -8.635  -8.777  22.481  0.85 82.40     0.285 C 
HETATM   20  C17   D T 153      -8.511  -8.796  23.927  0.85 82.40     0.285 C 
HETATM   21  N3    D T 153      -7.353  -8.050  24.334  0.85 82.40     0.143 N 
HETATM   22  C18   D T 153      -6.192  -8.618  23.714  0.85 82.40     0.285 C 
HETATM   23  C20   D T 153      -7.206  -8.256  25.735  0.85 82.40     0.285 C 
HETATM   24  C19   D T 153      -6.315  -8.548  22.270  0.85 82.40     0.285 C 
ENDBRANCH  17  18
ENDBRANCH  16  17
ENDBRANCH  15  16
ENDBRANCH  14  15
BRANCH   1  25
HETATM   25  C21   D T 153      -9.633 -10.457  14.627  0.85 32.23     0.419 C 
HETATM   26  F1    D T 153     -10.113  -9.433  15.265  0.85 32.23    -0.166 F 
HETATM   27  F2    D T 153     -10.683 -11.042  14.172  0.85 32.23    -0.166 F 
HETATM   28  F3    D T 153      -9.088  -9.939  13.562  0.85 32.23    -0.166 F 
ENDBRANCH   1  25
TORSDOF 10
ENDMDL
MODEL 8
REMARK VINA RESULT:    -5.609     10.077     12.727
REMARK INTER + INTRA:          -8.237
REMARK INTER:                  -7.137
REMARK INTRA:                  -1.100
REMARK UNBOUND:                -0.989
REMARK  10 active torsions:
REMARK  status: ('A' for Active; 'I' for Inactive)
REMARK    1  A    between atoms: C1_1  and  C21_25 
REMARK    2  A    between atoms: N1_14  and  C13_15 
REMARK    3  A    between atoms: C13_15  and  C14_16 
REMARK    4  A    between atoms: C14_16  and  C15_17 
REMARK    5  A    between atoms: C15_17  and  N2_18 
REMARK    6  A    between atoms: C1_29  and  C21_53 
REMARK    7  A    between atoms: N1_42  and  C13_43 
REMARK    8  A    between atoms: C13_43  and  C14_44 
REMARK    9  A    between atoms: C14_44  and  C15_45 
REMARK   10  A    between atoms: C15_45  and  N2_46 
ROOT
HETATM    1  C1    D T 153     -13.016  -2.395  20.629  0.85 32.23     0.073 C 
HETATM    2  C2    D T 153     -11.855  -1.651  20.414  0.85 32.23     0.004 C 
HETATM    3  C3    D T 153     -11.529  -0.662  21.310  0.85 32.23     0.008 C 
HETATM    4  C4    D T 153     -12.086  -0.672  22.577  0.85 32.23     0.045 C 
HETATM    5  C5    D T 153     -13.154  -1.527  22.882  0.85 32.23     0.066 C 
HETATM    6  C6    D T 153     -13.652  -2.378  21.873  0.85 32.23     0.022 C 
HETATM    7  S     D T 153     -11.393   0.406  23.789  0.85 32.23    -0.084 SA
HETATM    8  C7    D T 153     -11.882  -0.325  25.291  0.85 32.23     0.045 C 
HETATM    9  C8    D T 153     -11.078  -0.098  26.420  0.85 32.23     0.008 C 
HETATM   10  C9    D T 153     -11.347  -0.745  27.610  0.85 32.23     0.001 C 
HETATM   11  C10   D T 153     -12.390  -1.659  27.663  0.85 32.23     0.002 C 
HETATM   12  C11   D T 153     -13.234  -1.798  26.571  0.85 32.23     0.018 C 
HETATM   13  C12   D T 153     -13.046  -1.108  25.350  0.85 32.23     0.066 C 
HETATM   14  N1    D T 153     -13.857  -1.352  24.125  0.85 82.40    -0.327 N 
ENDROOT
BRANCH  14  15
HETATM   15  C13   D T 153     -15.131  -2.067  24.233  0.85 82.40     0.108 C 
BRANCH  15  16
HETATM   16  C14   D T 153     -16.278  -1.141  24.658  0.85 82.40     0.060 C 
BRANCH  16  17
HETATM   17  C15   D T 153     -16.295   0.188  23.878  0.85 82.40     0.252 C 
BRANCH  17  18
HETATM   18  N2    D T 153     -16.080   1.381  24.660  0.85 82.40     0.141 N 
HETATM   19  C16   D T 153     -17.143   2.284  24.328  0.85 82.40     0.285 C 
HETATM   20  C17   D T 153     -17.070   3.470  25.163  0.85 82.40     0.285 C 
HETATM   21  N3    D T 153     -15.980   3.353  26.092  0.85 82.40     0.143 N 
HETATM   22  C18   D T 153     -16.171   2.177  26.888  0.85 82.40     0.285 C 
HETATM   23  C20   D T 153     -16.078   4.463  26.978  0.85 82.40     0.285 C 
HETATM   24  C19   D T 153     -16.196   1.000  26.040  0.85 82.40     0.285 C 
ENDBRANCH  17  18
ENDBRANCH  16  17
ENDBRANCH  15  16
ENDBRANCH  14  15
BRANCH   1  25
HETATM   25  C21   D T 153     -13.568  -3.184  19.537  0.85 32.23     0.419 C 
HETATM   26  F1    D T 153     -13.118  -2.870  18.359  0.85 32.23    -0.166 F 
HETATM   27  F2    D T 153     -14.843  -3.082  19.404  0.85 32.23    -0.166 F 
HETATM   28  F3    D T 153     -13.374  -4.471  19.616  0.85 32.23    -0.166 F 
ENDBRANCH   1  25
TORSDOF 10
ENDMDL
MODEL 9
REMARK VINA RESULT:    -5.601     10.013     11.949
REMARK INTER + INTRA:          -8.227
REMARK INTER:                  -7.424
REMARK INTRA:                  -0.803
REMARK UNBOUND:                -0.989
REMARK  10 active torsions:
REMARK  status: ('A' for Active; 'I' for Inactive)
REMARK    1  A    between atoms: C1_1  and  C21_25 
REMARK    2  A    between atoms: N1_14  and  C13_15 
REMARK    3  A    between atoms: C13_15  and  C14_16 
REMARK    4  A    between atoms: C14_16  and  C15_17 
REMARK    5  A    between atoms: C15_17  and  N2_18 
REMARK    6  A    between atoms: C1_29  and  C21_53 
REMARK    7  A    between atoms: N1_42  and  C13_43 
REMARK    8  A    between atoms: C13_43  and  C14_44 
REMARK    9  A    between atoms: C14_44  and  C15_45 
REMARK   10  A    between atoms: C15_45  and  N2_46 
ROOT
HETATM    1  C1    D T 153     -12.992  -2.415  20.620  0.85 32.23     0.073 C 
HETATM    2  C2    D T 153     -11.837  -1.660  20.411  0.85 32.23     0.004 C 
HETATM    3  C3    D T 153     -11.521  -0.673  21.313  0.85 32.23     0.008 C 
HETATM    4  C4    D T 153     -12.079  -0.694  22.579  0.85 32.23     0.045 C 
HETATM    5  C5    D T 153     -13.141  -1.561  22.878  0.85 32.23     0.066 C 
HETATM    6  C6    D T 153     -13.630  -2.411  21.863  0.85 32.23     0.022 C 
HETATM    7  S     D T 153     -11.397   0.382  23.797  0.85 32.23    -0.084 SA
HETATM    8  C7    D T 153     -11.882  -0.361  25.295  0.85 32.23     0.045 C 
HETATM    9  C8    D T 153     -11.081  -0.134  26.426  0.85 32.23     0.008 C 
HETATM   10  C9    D T 153     -11.346  -0.789  27.612  0.85 32.23     0.001 C 
HETATM   11  C10   D T 153     -12.380  -1.713  27.659  0.85 32.23     0.002 C 
HETATM   12  C11   D T 153     -13.222  -1.854  26.565  0.85 32.23     0.018 C 
HETATM   13  C12   D T 153     -13.039  -1.155  25.348  0.85 32.23     0.066 C 
HETATM   14  N1    D T 153     -13.846  -1.399  24.120  0.85 82.40    -0.327 N 
ENDROOT
BRANCH  14  15
HETATM   15  C13   D T 153     -15.114  -2.126  24.223  0.85 82.40     0.108 C 
BRANCH  15  16
HETATM   16  C14   D T 153     -16.257  -1.226  24.709  0.85 82.40     0.060 C 
BRANCH  16  17
HETATM   17  C15   D T 153     -17.224  -1.949  25.667  0.85 82.40     0.252 C 
BRANCH  17  18
HETATM   18  N2    D T 153     -17.647  -3.267  25.258  0.85 82.40     0.141 N 
HETATM   19  C16   D T 153     -17.290  -4.159  26.324  0.85 82.40     0.285 C 
HETATM   20  C17   D T 153     -17.790  -5.493  26.046  0.85 82.40     0.285 C 
HETATM   21  N3    D T 153     -18.522  -5.499  24.810  0.85 82.40     0.143 N 
HETATM   22  C18   D T 153     -19.599  -4.558  24.903  0.85 82.40     0.285 C 
HETATM   23  C20   D T 153     -19.118  -6.787  24.694  0.85 82.40     0.285 C 
HETATM   24  C19   D T 153     -19.078  -3.225  25.135  0.85 82.40     0.285 C 
ENDBRANCH  17  18
ENDBRANCH  16  17
ENDBRANCH  15  16
ENDBRANCH  14  15
BRANCH   1  25
HETATM   25  C21   D T 153     -13.535  -3.203  19.523  0.85 32.23     0.419 C 
HETATM   26  F1    D T 153     -14.827  -3.140  19.397  0.85 32.23    -0.166 F 
HETATM   27  F2    D T 153     -13.308  -4.465  19.617  0.85 32.23    -0.166 F 
HETATM   28  F3    D T 153     -13.087  -2.903  18.336  0.85 32.23    -0.166 F 
ENDBRANCH   1  25
TORSDOF 10
ENDMDL
