MODEL 1
REMARK VINA RESULT:      -7.0      0.000      0.000
REMARK  10 active torsions:
REMARK  status: ('A' for Active; 'I' for Inactive)
REMARK    1  A    between atoms: C1_1  and  C21_25 
REMARK    2  A    between atoms: N1_14  and  C13_15 
REMARK    3  A    between atoms: C13_15  and  C14_16 
REMARK    4  A    between atoms: C14_16  and  C15_17 
REMARK    5  A    between atoms: C15_17  and  N2_18 
REMARK    6  A    between atoms: C1_29  and  C21_53 
REMARK    7  A    between atoms: N1_42  and  C13_43 
REMARK    8  A    between atoms: C13_43  and  C14_44 
REMARK    9  A    between atoms: C14_44  and  C15_45 
REMARK   10  A    between atoms: C15_45  and  N2_46 
ROOT
HETATM    1  C1    D T 153      20.961   6.132  -5.040  0.85 32.23     0.073 C 
HETATM    2  C2    D T 153      21.618   7.132  -4.324  0.85 32.23     0.004 C 
HETATM    3  C3    D T 153      22.446   6.771  -3.289  0.85 32.23     0.008 C 
HETATM    4  C4    D T 153      22.934   5.477  -3.220  0.85 32.23     0.045 C 
HETATM    5  C5    D T 153      22.411   4.471  -4.044  0.85 32.23     0.066 C 
HETATM    6  C6    D T 153      21.377   4.800  -4.945  0.85 32.23     0.022 C 
HETATM    7  S     D T 153      24.242   5.152  -2.083  0.85 32.23    -0.084 SA
HETATM    8  C7    D T 153      24.967   3.704  -2.721  0.85 32.23     0.045 C 
HETATM    9  C8    D T 153      26.323   3.474  -2.440  0.85 32.23     0.008 C 
HETATM   10  C9    D T 153      26.984   2.405  -3.014  0.85 32.23     0.001 C 
HETATM   11  C10   D T 153      26.306   1.594  -3.912  0.85 32.23     0.002 C 
HETATM   12  C11   D T 153      24.944   1.774  -4.105  0.85 32.23     0.018 C 
HETATM   13  C12   D T 153      24.202   2.809  -3.486  0.85 32.23     0.066 C 
HETATM   14  N1    D T 153      22.773   3.102  -3.791  0.85 82.40    -0.327 N 
ENDROOT
BRANCH  14  15
HETATM   15  C13   D T 153      21.962   2.098  -4.483  0.85 82.40     0.108 C 
BRANCH  15  16
HETATM   16  C14   D T 153      20.580   1.926  -3.838  0.85 82.40     0.060 C 
BRANCH  16  17
HETATM   17  C15   D T 153      19.476   1.608  -4.865  0.85 82.40     0.252 C 
BRANCH  17  18
HETATM   18  N2    D T 153      18.510   2.658  -5.096  0.85 82.40     0.141 N 
HETATM   19  C16   D T 153      18.280   2.696  -6.511  0.85 82.40     0.285 C 
HETATM   20  C17   D T 153      17.227   3.648  -6.817  0.85 82.40     0.285 C 
HETATM   21  N3    D T 153      16.715   4.226  -5.607  0.85 82.40     0.143 N 
HETATM   22  C18   D T 153      16.225   3.177  -4.761  0.85 82.40     0.285 C 
HETATM   23  C20   D T 153      15.585   5.010  -5.974  0.85 82.40     0.285 C 
HETATM   24  C19   D T 153      17.300   2.262  -4.428  0.85 82.40     0.285 C 
ENDBRANCH  17  18
ENDBRANCH  16  17
ENDBRANCH  15  16
ENDBRANCH  14  15
BRANCH   1  25
HETATM   25  C21   D T 153      19.829   6.484  -5.884  0.85 32.23     0.419 C 
HETATM   26  F1    D T 153      18.677   6.463  -5.283  0.85 32.23    -0.166 F 
HETATM   27  F2    D T 153      19.654   5.697  -6.886  0.85 32.23    -0.166 F 
HETATM   28  F3    D T 153      19.878   7.665  -6.432  0.85 32.23    -0.166 F 
ENDBRANCH   1  25
TORSDOF 10
ENDMDL
MODEL 2
REMARK VINA RESULT:      -6.5      5.779      8.576
REMARK  10 active torsions:
REMARK  status: ('A' for Active; 'I' for Inactive)
REMARK    1  A    between atoms: C1_1  and  C21_25 
REMARK    2  A    between atoms: N1_14  and  C13_15 
REMARK    3  A    between atoms: C13_15  and  C14_16 
REMARK    4  A    between atoms: C14_16  and  C15_17 
REMARK    5  A    between atoms: C15_17  and  N2_18 
REMARK    6  A    between atoms: C1_29  and  C21_53 
REMARK    7  A    between atoms: N1_42  and  C13_43 
REMARK    8  A    between atoms: C13_43  and  C14_44 
REMARK    9  A    between atoms: C14_44  and  C15_45 
REMARK   10  A    between atoms: C15_45  and  N2_46 
ROOT
HETATM    1  C1    D T 153      30.101   1.972  -9.301  0.85 32.23     0.073 C 
HETATM    2  C2    D T 153      31.459   2.288  -9.299  0.85 32.23     0.004 C 
HETATM    3  C3    D T 153      32.030   2.749  -8.138  0.85 32.23     0.008 C 
HETATM    4  C4    D T 153      31.400   2.521  -6.926  0.85 32.23     0.045 C 
HETATM    5  C5    D T 153      30.084   2.045  -6.882  0.85 32.23     0.066 C 
HETATM    6  C6    D T 153      29.409   1.801  -8.097  0.85 32.23     0.022 C 
HETATM    7  S     D T 153      32.319   2.829  -5.452  0.85 32.23    -0.084 SA
HETATM    8  C7    D T 153      31.489   1.867  -4.263  0.85 32.23     0.045 C 
HETATM    9  C8    D T 153      32.227   1.416  -3.157  0.85 32.23     0.008 C 
HETATM   10  C9    D T 153      31.656   0.553  -2.242  0.85 32.23     0.001 C 
HETATM   11  C10   D T 153      30.363   0.097  -2.457  0.85 32.23     0.002 C 
HETATM   12  C11   D T 153      29.614   0.626  -3.497  0.85 32.23     0.018 C 
HETATM   13  C12   D T 153      30.126   1.567  -4.423  0.85 32.23     0.066 C 
HETATM   14  N1    D T 153      29.383   2.037  -5.627  0.85 82.40    -0.327 N 
ENDROOT
BRANCH  14  15
HETATM   15  C13   D T 153      27.938   1.819  -5.712  0.85 82.40     0.108 C 
BRANCH  15  16
HETATM   16  C14   D T 153      27.147   2.875  -4.928  0.85 82.40     0.060 C 
BRANCH  16  17
HETATM   17  C15   D T 153      26.122   2.256  -3.958  0.85 82.40     0.252 C 
BRANCH  17  18
HETATM   18  N2    D T 153      24.894   2.997  -3.783  0.85 82.40     0.141 N 
HETATM   19  C16   D T 153      24.591   2.959  -2.381  0.85 82.40     0.285 C 
HETATM   20  C17   D T 153      23.430   3.785  -2.102  0.85 82.40     0.285 C 
HETATM   21  N3    D T 153      22.969   4.415  -3.307  0.85 82.40     0.143 N 
HETATM   22  C18   D T 153      24.034   5.201  -3.857  0.85 82.40     0.285 C 
HETATM   23  C20   D T 153      21.948   5.330  -2.924  0.85 82.40     0.285 C 
HETATM   24  C19   D T 153      25.167   4.352  -4.173  0.85 82.40     0.285 C 
ENDBRANCH  17  18
ENDBRANCH  16  17
ENDBRANCH  15  16
ENDBRANCH  14  15
BRANCH   1  25
HETATM   25  C21   D T 153      29.403   1.828 -10.570  0.85 32.23     0.419 C 
HETATM   26  F1    D T 153      29.807   0.834 -11.302  0.85 32.23    -0.166 F 
HETATM   27  F2    D T 153      29.522   2.840 -11.354  0.85 32.23    -0.166 F 
HETATM   28  F3    D T 153      28.113   1.658 -10.491  0.85 32.23    -0.166 F 
ENDBRANCH   1  25
TORSDOF 10
ENDMDL
MODEL 3
REMARK VINA RESULT:      -6.1     12.797     15.807
REMARK  10 active torsions:
REMARK  status: ('A' for Active; 'I' for Inactive)
REMARK    1  A    between atoms: C1_1  and  C21_25 
REMARK    2  A    between atoms: N1_14  and  C13_15 
REMARK    3  A    between atoms: C13_15  and  C14_16 
REMARK    4  A    between atoms: C14_16  and  C15_17 
REMARK    5  A    between atoms: C15_17  and  N2_18 
REMARK    6  A    between atoms: C1_29  and  C21_53 
REMARK    7  A    between atoms: N1_42  and  C13_43 
REMARK    8  A    between atoms: C13_43  and  C14_44 
REMARK    9  A    between atoms: C14_44  and  C15_45 
REMARK   10  A    between atoms: C15_45  and  N2_46 
ROOT
HETATM    1  C1    D T 153      31.989  -2.865 -14.081  0.85 32.23     0.073 C 
HETATM    2  C2    D T 153      31.781  -3.811 -13.078  0.85 32.23     0.004 C 
HETATM    3  C3    D T 153      31.747  -3.393 -11.770  0.85 32.23     0.008 C 
HETATM    4  C4    D T 153      31.513  -2.060 -11.482  0.85 32.23     0.045 C 
HETATM    5  C5    D T 153      31.550  -1.092 -12.494  0.85 32.23     0.066 C 
HETATM    6  C6    D T 153      31.832  -1.501 -13.815  0.85 32.23     0.022 C 
HETATM    7  S     D T 153      31.147  -1.632  -9.810  0.85 32.23    -0.084 SA
HETATM    8  C7    D T 153      30.324  -0.106  -9.966  0.85 32.23     0.045 C 
HETATM    9  C8    D T 153      29.414   0.251  -8.959  0.85 32.23     0.008 C 
HETATM   10  C9    D T 153      28.645   1.392  -9.085  0.85 32.23     0.001 C 
HETATM   11  C10   D T 153      28.746   2.152 -10.241  0.85 32.23     0.002 C 
HETATM   12  C11   D T 153      29.718   1.843 -11.181  0.85 32.23     0.018 C 
HETATM   13  C12   D T 153      30.582   0.726 -11.068  0.85 32.23     0.066 C 
HETATM   14  N1    D T 153      31.532   0.300 -12.134  0.85 82.40    -0.327 N 
ENDROOT
BRANCH  14  15
HETATM   15  C13   D T 153      31.879   1.234 -13.207  0.85 82.40     0.108 C 
BRANCH  15  16
HETATM   16  C14   D T 153      33.081   2.115 -12.841  0.85 82.40     0.060 C 
BRANCH  16  17
HETATM   17  C15   D T 153      33.289   3.283 -13.825  0.85 82.40     0.252 C 
BRANCH  17  18
HETATM   18  N2    D T 153      32.950   3.013 -15.203  0.85 82.40     0.141 N 
HETATM   19  C16   D T 153      32.292   4.188 -15.698  0.85 82.40     0.285 C 
HETATM   20  C17   D T 153      32.023   4.045 -17.118  0.85 82.40     0.285 C 
HETATM   21  N3    D T 153      32.534   2.791 -17.595  0.85 82.40     0.143 N 
HETATM   22  C18   D T 153      33.942   2.733 -17.333  0.85 82.40     0.285 C 
HETATM   23  C20   D T 153      32.386   2.801 -19.011  0.85 82.40     0.285 C 
HETATM   24  C19   D T 153      34.189   2.830 -15.907  0.85 82.40     0.285 C 
ENDBRANCH  17  18
ENDBRANCH  16  17
ENDBRANCH  15  16
ENDBRANCH  14  15
BRANCH   1  25
HETATM   25  C21   D T 153      32.381  -3.309 -15.411  0.85 32.23     0.419 C 
HETATM   26  F1    D T 153      33.646  -3.572 -15.543  0.85 32.23    -0.166 F 
HETATM   27  F2    D T 153      32.159  -2.448 -16.340  0.85 32.23    -0.166 F 
HETATM   28  F3    D T 153      31.787  -4.384 -15.846  0.85 32.23    -0.166 F 
ENDBRANCH   1  25
TORSDOF 10
ENDMDL
MODEL 4
REMARK VINA RESULT:      -6.1     11.036     14.144
REMARK  10 active torsions:
REMARK  status: ('A' for Active; 'I' for Inactive)
REMARK    1  A    between atoms: C1_1  and  C21_25 
REMARK    2  A    between atoms: N1_14  and  C13_15 
REMARK    3  A    between atoms: C13_15  and  C14_16 
REMARK    4  A    between atoms: C14_16  and  C15_17 
REMARK    5  A    between atoms: C15_17  and  N2_18 
REMARK    6  A    between atoms: C1_29  and  C21_53 
REMARK    7  A    between atoms: N1_42  and  C13_43 
REMARK    8  A    between atoms: C13_43  and  C14_44 
REMARK    9  A    between atoms: C14_44  and  C15_45 
REMARK   10  A    between atoms: C15_45  and  N2_46 
ROOT
HETATM    1  C1    D T 153      31.824  -1.743 -12.651  0.85 32.23     0.073 C 
HETATM    2  C2    D T 153      32.236  -1.913 -13.972  0.85 32.23     0.004 C 
HETATM    3  C3    D T 153      32.160  -0.844 -14.832  0.85 32.23     0.008 C 
HETATM    4  C4    D T 153      32.075   0.440 -14.324  0.85 32.23     0.045 C 
HETATM    5  C5    D T 153      31.824   0.657 -12.963  0.85 32.23     0.066 C 
HETATM    6  C6    D T 153      31.657  -0.460 -12.117  0.85 32.23     0.022 C 
HETATM    7  S     D T 153      32.316   1.783 -15.443  0.85 32.23    -0.084 SA
HETATM    8  C7    D T 153      32.763   3.096 -14.390  0.85 32.23     0.045 C 
HETATM    9  C8    D T 153      33.556   4.122 -14.927  0.85 32.23     0.008 C 
HETATM   10  C9    D T 153      34.040   5.128 -14.114  0.85 32.23     0.001 C 
HETATM   11  C10   D T 153      33.776   5.084 -12.753  0.85 32.23     0.002 C 
HETATM   12  C11   D T 153      32.911   4.122 -12.254  0.85 32.23     0.018 C 
HETATM   13  C12   D T 153      32.330   3.109 -13.055  0.85 32.23     0.066 C 
HETATM   14  N1    D T 153      31.514   1.986 -12.511  0.85 82.40    -0.327 N 
ENDROOT
BRANCH  14  15
HETATM   15  C13   D T 153      30.971   2.080 -11.155  0.85 82.40     0.108 C 
BRANCH  15  16
HETATM   16  C14   D T 153      29.451   2.292 -11.154  0.85 82.40     0.060 C 
BRANCH  16  17
HETATM   17  C15   D T 153      28.742   1.535 -10.014  0.85 82.40     0.252 C 
BRANCH  17  18
HETATM   18  N2    D T 153      29.560   1.209  -8.870  0.85 82.40     0.141 N 
HETATM   19  C16   D T 153      28.812   1.598  -7.709  0.85 82.40     0.285 C 
HETATM   20  C17   D T 153      29.517   1.193  -6.506  0.85 82.40     0.285 C 
HETATM   21  N3    D T 153      30.723   0.494  -6.849  0.85 82.40     0.143 N 
HETATM   22  C18   D T 153      30.388  -0.645  -7.653  0.85 82.40     0.285 C 
HETATM   23  C20   D T 153      31.262  -0.013  -5.634  0.85 82.40     0.285 C 
HETATM   24  C19   D T 153      29.727  -0.218  -8.872  0.85 82.40     0.285 C 
ENDBRANCH  17  18
ENDBRANCH  16  17
ENDBRANCH  15  16
ENDBRANCH  14  15
BRANCH   1  25
HETATM   25  C21   D T 153      31.558  -2.914 -11.829  0.85 32.23     0.419 C 
HETATM   26  F1    D T 153      30.796  -3.806 -12.388  0.85 32.23    -0.166 F 
HETATM   27  F2    D T 153      30.953  -2.657 -10.724  0.85 32.23    -0.166 F 
HETATM   28  F3    D T 153      32.607  -3.589 -11.450  0.85 32.23    -0.166 F 
ENDBRANCH   1  25
TORSDOF 10
ENDMDL
MODEL 5
REMARK VINA RESULT:      -6.0      9.377     12.247
REMARK  10 active torsions:
REMARK  status: ('A' for Active; 'I' for Inactive)
REMARK    1  A    between atoms: C1_1  and  C21_25 
REMARK    2  A    between atoms: N1_14  and  C13_15 
REMARK    3  A    between atoms: C13_15  and  C14_16 
REMARK    4  A    between atoms: C14_16  and  C15_17 
REMARK    5  A    between atoms: C15_17  and  N2_18 
REMARK    6  A    between atoms: C1_29  and  C21_53 
REMARK    7  A    between atoms: N1_42  and  C13_43 
REMARK    8  A    between atoms: C13_43  and  C14_44 
REMARK    9  A    between atoms: C14_44  and  C15_45 
REMARK   10  A    between atoms: C15_45  and  N2_46 
ROOT
HETATM    1  C1    D T 153      31.673   9.960  -8.659  0.85 32.23     0.073 C 
HETATM    2  C2    D T 153      32.306  10.324  -9.847  0.85 32.23     0.004 C 
HETATM    3  C3    D T 153      33.244   9.475 -10.384  0.85 32.23     0.008 C 
HETATM    4  C4    D T 153      33.265   8.145 -10.001  0.85 32.23     0.045 C 
HETATM    5  C5    D T 153      32.510   7.704  -8.906  0.85 32.23     0.066 C 
HETATM    6  C6    D T 153      31.728   8.641  -8.198  0.85 32.23     0.022 C 
HETATM    7  S     D T 153      34.251   7.032 -10.951  0.85 32.23    -0.084 SA
HETATM    8  C7    D T 153      33.543   5.482 -10.598  0.85 32.23     0.045 C 
HETATM    9  C8    D T 153      33.673   4.471 -11.563  0.85 32.23     0.008 C 
HETATM   10  C9    D T 153      33.034   3.257 -11.394  0.85 32.23     0.001 C 
HETATM   11  C10   D T 153      32.221   3.070 -10.285  0.85 32.23     0.002 C 
HETATM   12  C11   D T 153      32.182   4.038  -9.293  0.85 32.23     0.018 C 
HETATM   13  C12   D T 153      32.873   5.271  -9.382  0.85 32.23     0.066 C 
HETATM   14  N1    D T 153      32.728   6.378  -8.395  0.85 82.40    -0.327 N 
ENDROOT
BRANCH  14  15
HETATM   15  C13   D T 153      32.136   6.102  -7.084  0.85 82.40     0.108 C 
BRANCH  15  16
HETATM   16  C14   D T 153      33.182   5.626  -6.066  0.85 82.40     0.060 C 
BRANCH  16  17
HETATM   17  C15   D T 153      32.708   4.411  -5.245  0.85 82.40     0.252 C 
BRANCH  17  18
HETATM   18  N2    D T 153      31.495   3.775  -5.704  0.85 82.40     0.141 N 
HETATM   19  C16   D T 153      31.834   2.411  -5.991  0.85 82.40     0.285 C 
HETATM   20  C17   D T 153      30.638   1.667  -6.346  0.85 82.40     0.285 C 
HETATM   21  N3    D T 153      29.483   2.516  -6.262  0.85 82.40     0.143 N 
HETATM   22  C18   D T 153      29.384   3.035  -4.929  0.85 82.40     0.285 C 
HETATM   23  C20   D T 153      28.347   1.681  -6.455  0.85 82.40     0.285 C 
HETATM   24  C19   D T 153      30.566   3.814  -4.609  0.85 82.40     0.285 C 
ENDBRANCH  17  18
ENDBRANCH  16  17
ENDBRANCH  15  16
ENDBRANCH  14  15
BRANCH   1  25
HETATM   25  C21   D T 153      30.959  10.971  -7.892  0.85 32.23     0.419 C 
HETATM   26  F1    D T 153      30.924  10.756  -6.611  0.85 32.23    -0.166 F 
HETATM   27  F2    D T 153      29.718  11.091  -8.206  0.85 32.23    -0.166 F 
HETATM   28  F3    D T 153      31.416  12.187  -7.996  0.85 32.23    -0.166 F 
ENDBRANCH   1  25
TORSDOF 10
ENDMDL
MODEL 6
REMARK VINA RESULT:      -6.0      1.197      1.683
REMARK  10 active torsions:
REMARK  status: ('A' for Active; 'I' for Inactive)
REMARK    1  A    between atoms: C1_1  and  C21_25 
REMARK    2  A    between atoms: N1_14  and  C13_15 
REMARK    3  A    between atoms: C13_15  and  C14_16 
REMARK    4  A    between atoms: C14_16  and  C15_17 
REMARK    5  A    between atoms: C15_17  and  N2_18 
REMARK    6  A    between atoms: C1_29  and  C21_53 
REMARK    7  A    between atoms: N1_42  and  C13_43 
REMARK    8  A    between atoms: C13_43  and  C14_44 
REMARK    9  A    between atoms: C14_44  and  C15_45 
REMARK   10  A    between atoms: C15_45  and  N2_46 
ROOT
HETATM    1  C1    D T 153      21.834   6.709  -5.114  0.85 32.23     0.073 C 
HETATM    2  C2    D T 153      22.891   7.618  -5.132  0.85 32.23     0.004 C 
HETATM    3  C3    D T 153      24.002   7.357  -4.367  0.85 32.23     0.008 C 
HETATM    4  C4    D T 153      24.244   6.067  -3.927  0.85 32.23     0.045 C 
HETATM    5  C5    D T 153      23.260   5.076  -4.041  0.85 32.23     0.066 C 
HETATM    6  C6    D T 153      22.016   5.417  -4.612  0.85 32.23     0.022 C 
HETATM    7  S     D T 153      25.832   5.717  -3.243  0.85 32.23    -0.084 SA
HETATM    8  C7    D T 153      25.962   3.990  -3.417  0.85 32.23     0.045 C 
HETATM    9  C8    D T 153      27.249   3.439  -3.517  0.85 32.23     0.008 C 
HETATM   10  C9    D T 153      27.413   2.091  -3.773  0.85 32.23     0.001 C 
HETATM   11  C10   D T 153      26.293   1.300  -3.982  0.85 32.23     0.002 C 
HETATM   12  C11   D T 153      25.029   1.836  -3.783  0.85 32.23     0.018 C 
HETATM   13  C12   D T 153      24.805   3.194  -3.450  0.85 32.23     0.066 C 
HETATM   14  N1    D T 153      23.454   3.818  -3.372  0.85 82.40    -0.327 N 
ENDROOT
BRANCH  14  15
HETATM   15  C13   D T 153      22.268   2.963  -3.283  0.85 82.40     0.108 C 
BRANCH  15  16
HETATM   16  C14   D T 153      21.754   2.542  -4.666  0.85 82.40     0.060 C 
BRANCH  16  17
HETATM   17  C15   D T 153      20.473   1.688  -4.594  0.85 82.40     0.252 C 
BRANCH  17  18
HETATM   18  N2    D T 153      19.342   2.185  -5.343  0.85 82.40     0.141 N 
HETATM   19  C16   D T 153      18.284   2.388  -4.395  0.85 82.40     0.285 C 
HETATM   20  C17   D T 153      17.143   3.003  -5.051  0.85 82.40     0.285 C 
HETATM   21  N3    D T 153      17.441   3.254  -6.433  0.85 82.40     0.143 N 
HETATM   22  C18   D T 153      18.594   4.102  -6.513  0.85 82.40     0.285 C 
HETATM   23  C20   D T 153      16.350   4.004  -6.957  0.85 82.40     0.285 C 
HETATM   24  C19   D T 153      19.735   3.452  -5.895  0.85 82.40     0.285 C 
ENDBRANCH  17  18
ENDBRANCH  16  17
ENDBRANCH  15  16
ENDBRANCH  14  15
BRANCH   1  25
HETATM   25  C21   D T 153      20.530   7.121  -5.615  0.85 32.23     0.419 C 
HETATM   26  F1    D T 153      20.231   6.657  -6.791  0.85 32.23    -0.166 F 
HETATM   27  F2    D T 153      20.397   8.392  -5.755  0.85 32.23    -0.166 F 
HETATM   28  F3    D T 153      19.510   6.789  -4.875  0.85 32.23    -0.166 F 
ENDBRANCH   1  25
TORSDOF 10
ENDMDL
MODEL 7
REMARK VINA RESULT:      -6.0     10.353     13.627
REMARK  10 active torsions:
REMARK  status: ('A' for Active; 'I' for Inactive)
REMARK    1  A    between atoms: C1_1  and  C21_25 
REMARK    2  A    between atoms: N1_14  and  C13_15 
REMARK    3  A    between atoms: C13_15  and  C14_16 
REMARK    4  A    between atoms: C14_16  and  C15_17 
REMARK    5  A    between atoms: C15_17  and  N2_18 
REMARK    6  A    between atoms: C1_29  and  C21_53 
REMARK    7  A    between atoms: N1_42  and  C13_43 
REMARK    8  A    between atoms: C13_43  and  C14_44 
REMARK    9  A    between atoms: C14_44  and  C15_45 
REMARK   10  A    between atoms: C15_45  and  N2_46 
ROOT
HETATM    1  C1    D T 153      31.547  -2.499 -10.965  0.85 32.23     0.073 C 
HETATM    2  C2    D T 153      32.084  -3.255  -9.924  0.85 32.23     0.004 C 
HETATM    3  C3    D T 153      32.325  -2.642  -8.718  0.85 32.23     0.008 C 
HETATM    4  C4    D T 153      31.689  -1.452  -8.413  0.85 32.23     0.045 C 
HETATM    5  C5    D T 153      30.995  -0.739  -9.400  0.85 32.23     0.066 C 
HETATM    6  C6    D T 153      30.957  -1.257 -10.712  0.85 32.23     0.022 C 
HETATM    7  S     D T 153      31.765  -0.882  -6.745  0.85 32.23    -0.084 SA
HETATM    8  C7    D T 153      30.400   0.193  -6.635  0.85 32.23     0.045 C 
HETATM    9  C8    D T 153      29.818   0.380  -5.372  0.85 32.23     0.008 C 
HETATM   10  C9    D T 153      28.663   1.127  -5.239  0.85 32.23     0.001 C 
HETATM   11  C10   D T 153      28.059   1.646  -6.375  0.85 32.23     0.002 C 
HETATM   12  C11   D T 153      28.697   1.537  -7.601  0.85 32.23     0.018 C 
HETATM   13  C12   D T 153      29.918   0.843  -7.782  0.85 32.23     0.066 C 
HETATM   14  N1    D T 153      30.543   0.596  -9.113  0.85 82.40    -0.327 N 
ENDROOT
BRANCH  14  15
HETATM   15  C13   D T 153      30.106   1.377 -10.271  0.85 82.40     0.108 C 
BRANCH  15  16
HETATM   16  C14   D T 153      31.081   2.514 -10.604  0.85 82.40     0.060 C 
BRANCH  16  17
HETATM   17  C15   D T 153      32.210   2.075 -11.557  0.85 82.40     0.252 C 
BRANCH  17  18
HETATM   18  N2    D T 153      32.251   2.747 -12.835  0.85 82.40     0.141 N 
HETATM   19  C16   D T 153      32.152   1.724 -13.836  0.85 82.40     0.285 C 
HETATM   20  C17   D T 153      32.065   2.326 -15.154  0.85 82.40     0.285 C 
HETATM   21  N3    D T 153      32.065   3.758 -15.046  0.85 82.40     0.143 N 
HETATM   22  C18   D T 153      30.961   4.162 -14.226  0.85 82.40     0.285 C 
HETATM   23  C20   D T 153      31.808   4.267 -16.350  0.85 82.40     0.285 C 
HETATM   24  C19   D T 153      31.089   3.589 -12.899  0.85 82.40     0.285 C 
ENDBRANCH  17  18
ENDBRANCH  16  17
ENDBRANCH  15  16
ENDBRANCH  14  15
BRANCH   1  25
HETATM   25  C21   D T 153      31.614  -3.011 -12.326  0.85 32.23     0.419 C 
HETATM   26  F1    D T 153      32.819  -3.201 -12.775  0.85 32.23    -0.166 F 
HETATM   27  F2    D T 153      31.089  -2.235 -13.207  0.85 32.23    -0.166 F 
HETATM   28  F3    D T 153      31.017  -4.151 -12.532  0.85 32.23    -0.166 F 
ENDBRANCH   1  25
TORSDOF 10
ENDMDL
MODEL 8
REMARK VINA RESULT:      -5.8     13.999     16.659
REMARK  10 active torsions:
REMARK  status: ('A' for Active; 'I' for Inactive)
REMARK    1  A    between atoms: C1_1  and  C21_25 
REMARK    2  A    between atoms: N1_14  and  C13_15 
REMARK    3  A    between atoms: C13_15  and  C14_16 
REMARK    4  A    between atoms: C14_16  and  C15_17 
REMARK    5  A    between atoms: C15_17  and  N2_18 
REMARK    6  A    between atoms: C1_29  and  C21_53 
REMARK    7  A    between atoms: N1_42  and  C13_43 
REMARK    8  A    between atoms: C13_43  and  C14_44 
REMARK    9  A    between atoms: C14_44  and  C15_45 
REMARK   10  A    between atoms: C15_45  and  N2_46 
ROOT
HETATM    1  C1    D T 153      32.089  -0.240 -16.761  0.85 32.23     0.073 C 
HETATM    2  C2    D T 153      32.189  -1.533 -16.249  0.85 32.23     0.004 C 
HETATM    3  C3    D T 153      32.444  -1.695 -14.908  0.85 32.23     0.008 C 
HETATM    4  C4    D T 153      32.202  -0.652 -14.032  0.85 32.23     0.045 C 
HETATM    5  C5    D T 153      31.933   0.637 -14.512  0.85 32.23     0.066 C 
HETATM    6  C6    D T 153      31.915   0.853 -15.906  0.85 32.23     0.022 C 
HETATM    7  S     D T 153      32.221  -1.008 -12.304  0.85 32.23    -0.084 SA
HETATM    8  C7    D T 153      31.290   0.296 -11.624  0.85 32.23     0.045 C 
HETATM    9  C8    D T 153      30.627   0.060 -10.410  0.85 32.23     0.008 C 
HETATM   10  C9    D T 153      29.779   1.014  -9.880  0.85 32.23     0.001 C 
HETATM   11  C10   D T 153      29.552   2.185 -10.588  0.85 32.23     0.002 C 
HETATM   12  C11   D T 153      30.288   2.446 -11.734  0.85 32.23     0.018 C 
HETATM   13  C12   D T 153      31.222   1.534 -12.283  0.85 32.23     0.066 C 
HETATM   14  N1    D T 153      31.914   1.738 -13.587  0.85 82.40    -0.327 N 
ENDROOT
BRANCH  14  15
HETATM   15  C13   D T 153      31.932   3.071 -14.193  0.85 82.40     0.108 C 
BRANCH  15  16
HETATM   16  C14   D T 153      33.248   3.812 -13.920  0.85 82.40     0.060 C 
BRANCH  16  17
HETATM   17  C15   D T 153      33.634   4.783 -15.053  0.85 82.40     0.252 C 
BRANCH  17  18
HETATM   18  N2    D T 153      33.286   4.361 -16.390  0.85 82.40     0.141 N 
HETATM   19  C16   D T 153      33.114   5.557 -17.163  0.85 82.40     0.285 C 
HETATM   20  C17   D T 153      32.879   5.218 -18.556  0.85 82.40     0.285 C 
HETATM   21  N3    D T 153      32.930   3.795 -18.735  0.85 82.40     0.143 N 
HETATM   22  C18   D T 153      34.212   3.318 -18.303  0.85 82.40     0.285 C 
HETATM   23  C20   D T 153      32.862   3.556 -20.136  0.85 82.40     0.285 C 
HETATM   24  C19   D T 153      34.410   3.624 -16.899  0.85 82.40     0.285 C 
ENDBRANCH  17  18
ENDBRANCH  16  17
ENDBRANCH  15  16
ENDBRANCH  14  15
BRANCH   1  25
HETATM   25  C21   D T 153      32.178  -0.034 -18.199  0.85 32.23     0.419 C 
HETATM   26  F1    D T 153      31.843  -1.064 -18.916  0.85 32.23    -0.166 F 
HETATM   27  F2    D T 153      33.360   0.248 -18.619  0.85 32.23    -0.166 F 
HETATM   28  F3    D T 153      31.448   0.934 -18.678  0.85 32.23    -0.166 F 
ENDBRANCH   1  25
TORSDOF 10
ENDMDL
MODEL 9
REMARK VINA RESULT:      -5.8     10.408     13.061
REMARK  10 active torsions:
REMARK  status: ('A' for Active; 'I' for Inactive)
REMARK    1  A    between atoms: C1_1  and  C21_25 
REMARK    2  A    between atoms: N1_14  and  C13_15 
REMARK    3  A    between atoms: C13_15  and  C14_16 
REMARK    4  A    between atoms: C14_16  and  C15_17 
REMARK    5  A    between atoms: C15_17  and  N2_18 
REMARK    6  A    between atoms: C1_29  and  C21_53 
REMARK    7  A    between atoms: N1_42  and  C13_43 
REMARK    8  A    between atoms: C13_43  and  C14_44 
REMARK    9  A    between atoms: C14_44  and  C15_45 
REMARK   10  A    between atoms: C15_45  and  N2_46 
ROOT
HETATM    1  C1    D T 153      32.028   9.932  -9.066  0.85 32.23     0.073 C 
HETATM    2  C2    D T 153      32.670  10.557 -10.134  0.85 32.23     0.004 C 
HETATM    3  C3    D T 153      33.657   9.875 -10.804  0.85 32.23     0.008 C 
HETATM    4  C4    D T 153      33.728   8.496 -10.702  0.85 32.23     0.045 C 
HETATM    5  C5    D T 153      32.970   7.810  -9.745  0.85 32.23     0.066 C 
HETATM    6  C6    D T 153      32.131   8.549  -8.885  0.85 32.23     0.022 C 
HETATM    7  S     D T 153      34.784   7.642 -11.829  0.85 32.23    -0.084 SA
HETATM    8  C7    D T 153      34.138   6.026 -11.824  0.85 32.23     0.045 C 
HETATM    9  C8    D T 153      34.334   5.242 -12.972  0.85 32.23     0.008 C 
HETATM   10  C9    D T 153      33.746   3.996 -13.075  0.85 32.23     0.001 C 
HETATM   11  C10   D T 153      32.918   3.552 -12.054  0.85 32.23     0.002 C 
HETATM   12  C11   D T 153      32.813   4.293 -10.886  0.85 32.23     0.018 C 
HETATM   13  C12   D T 153      33.451   5.543 -10.699  0.85 32.23     0.066 C 
HETATM   14  N1    D T 153      33.235   6.416  -9.510  0.85 82.40    -0.327 N 
ENDROOT
BRANCH  14  15
HETATM   15  C13   D T 153      32.626   5.853  -8.303  0.85 82.40     0.108 C 
BRANCH  15  16
HETATM   16  C14   D T 153      33.609   4.978  -7.514  0.85 82.40     0.060 C 
BRANCH  16  17
HETATM   17  C15   D T 153      32.908   3.871  -6.703  0.85 82.40     0.252 C 
BRANCH  17  18
HETATM   18  N2    D T 153      31.847   3.167  -7.386  0.85 82.40     0.141 N 
HETATM   19  C16   D T 153      32.456   2.038  -8.028  0.85 82.40     0.285 C 
HETATM   20  C17   D T 153      31.435   1.206  -8.641  0.85 82.40     0.285 C 
HETATM   21  N3    D T 153      30.131   1.749  -8.380  0.85 82.40     0.143 N 
HETATM   22  C18   D T 153      29.938   1.833  -6.962  0.85 82.40     0.285 C 
HETATM   23  C20   D T 153      29.188   0.797  -8.860  0.85 82.40     0.285 C 
HETATM   24  C19   D T 153      30.938   2.705  -6.373  0.85 82.40     0.285 C 
ENDBRANCH  17  18
ENDBRANCH  16  17
ENDBRANCH  15  16
ENDBRANCH  14  15
BRANCH   1  25
HETATM   25  C21   D T 153      31.253  10.735  -8.131  0.85 32.23     0.419 C 
HETATM   26  F1    D T 153      29.984  10.810  -8.404  0.85 32.23    -0.166 F 
HETATM   27  F2    D T 153      31.615  11.967  -8.068  0.85 32.23    -0.166 F 
HETATM   28  F3    D T 153      31.286  10.345  -6.888  0.85 32.23    -0.166 F 
ENDBRANCH   1  25
TORSDOF 10
ENDMDL
