MODEL 1
REMARK VINA RESULT:      -7.3      0.000      0.000
REMARK  10 active torsions:
REMARK  status: ('A' for Active; 'I' for Inactive)
REMARK    1  A    between atoms: C1_1  and  C21_25 
REMARK    2  A    between atoms: N1_14  and  C13_15 
REMARK    3  A    between atoms: C13_15  and  C14_16 
REMARK    4  A    between atoms: C14_16  and  C15_17 
REMARK    5  A    between atoms: C15_17  and  N2_18 
REMARK    6  A    between atoms: C1_29  and  C21_53 
REMARK    7  A    between atoms: N1_42  and  C13_43 
REMARK    8  A    between atoms: C13_43  and  C14_44 
REMARK    9  A    between atoms: C14_44  and  C15_45 
REMARK   10  A    between atoms: C15_45  and  N2_46 
ROOT
HETATM    1  C1    D T 153     -11.877  -1.654  24.256  0.85 32.23     0.073 C 
HETATM    2  C2    D T 153     -12.724  -0.640  24.703  0.85 32.23     0.004 C 
HETATM    3  C3    D T 153     -13.109  -0.635  26.022  0.85 32.23     0.008 C 
HETATM    4  C4    D T 153     -12.375  -1.345  26.955  0.85 32.23     0.045 C 
HETATM    5  C5    D T 153     -11.395  -2.260  26.548  0.85 32.23     0.066 C 
HETATM    6  C6    D T 153     -11.170  -2.443  25.167  0.85 32.23     0.022 C 
HETATM    7  S     D T 153     -12.702  -1.043  28.661  0.85 32.23    -0.084 SA
HETATM    8  C7    D T 153     -11.242  -1.579  29.443  0.85 32.23     0.045 C 
HETATM    9  C8    D T 153     -10.907  -0.994  30.674  0.85 32.23     0.008 C 
HETATM   10  C9    D T 153      -9.704  -1.291  31.284  0.85 32.23     0.001 C 
HETATM   11  C10   D T 153      -8.809  -2.136  30.642  0.85 32.23     0.002 C 
HETATM   12  C11   D T 153      -9.195  -2.782  29.476  0.85 32.23     0.018 C 
HETATM   13  C12   D T 153     -10.444  -2.567  28.846  0.85 32.23     0.066 C 
HETATM   14  N1    D T 153     -10.815  -3.144  27.522  0.85 82.40    -0.327 N 
ENDROOT
BRANCH  14  15
HETATM   15  C13   D T 153     -10.037  -4.259  26.976  0.85 82.40     0.108 C 
BRANCH  15  16
HETATM   16  C14   D T 153     -10.675  -5.618  27.295  0.85 82.40     0.060 C 
BRANCH  16  17
HETATM   17  C15   D T 153     -10.072  -6.771  26.468  0.85 82.40     0.252 C 
BRANCH  17  18
HETATM   18  N2    D T 153      -8.670  -7.039  26.690  0.85 82.40     0.141 N 
HETATM   19  C16   D T 153      -8.562  -7.567  28.020  0.85 82.40     0.285 C 
HETATM   20  C17   D T 153      -7.194  -7.976  28.282  0.85 82.40     0.285 C 
HETATM   21  N3    D T 153      -6.382  -7.765  27.116  0.85 82.40     0.143 N 
HETATM   22  C18   D T 153      -6.936  -8.506  26.022  0.85 82.40     0.285 C 
HETATM   23  C20   D T 153      -5.110  -8.343  27.393  0.85 82.40     0.285 C 
HETATM   24  C19   D T 153      -8.286  -8.051  25.746  0.85 82.40     0.285 C 
ENDBRANCH  17  18
ENDBRANCH  16  17
ENDBRANCH  15  16
ENDBRANCH  14  15
BRANCH   1  25
HETATM   25  C21   D T 153     -11.742  -1.891  22.826  0.85 32.23     0.419 C 
HETATM   26  F1    D T 153     -11.056  -2.949  22.513  0.85 32.23    -0.166 F 
HETATM   27  F2    D T 153     -11.138  -0.949  22.190  0.85 32.23    -0.166 F 
HETATM   28  F3    D T 153     -12.858  -2.032  22.168  0.85 32.23    -0.166 F 
ENDBRANCH   1  25
TORSDOF 10
ENDMDL
MODEL 2
REMARK VINA RESULT:      -6.3      9.783     14.055
REMARK  10 active torsions:
REMARK  status: ('A' for Active; 'I' for Inactive)
REMARK    1  A    between atoms: C1_1  and  C21_25 
REMARK    2  A    between atoms: N1_14  and  C13_15 
REMARK    3  A    between atoms: C13_15  and  C14_16 
REMARK    4  A    between atoms: C14_16  and  C15_17 
REMARK    5  A    between atoms: C15_17  and  N2_18 
REMARK    6  A    between atoms: C1_29  and  C21_53 
REMARK    7  A    between atoms: N1_42  and  C13_43 
REMARK    8  A    between atoms: C13_43  and  C14_44 
REMARK    9  A    between atoms: C14_44  and  C15_45 
REMARK   10  A    between atoms: C15_45  and  N2_46 
ROOT
HETATM    1  C1    D T 153      -3.984 -10.904  17.095  0.85 32.23     0.073 C 
HETATM    2  C2    D T 153      -4.970 -11.885  17.194  0.85 32.23     0.004 C 
HETATM    3  C3    D T 153      -4.609 -13.146  17.600  0.85 32.23     0.008 C 
HETATM    4  C4    D T 153      -3.416 -13.335  18.275  0.85 32.23     0.045 C 
HETATM    5  C5    D T 153      -2.460 -12.312  18.340  0.85 32.23     0.066 C 
HETATM    6  C6    D T 153      -2.738 -11.084  17.703  0.85 32.23     0.022 C 
HETATM    7  S     D T 153      -3.154 -14.892  19.062  0.85 32.23    -0.084 SA
HETATM    8  C7    D T 153      -1.946 -14.528  20.261  0.85 32.23     0.045 C 
HETATM    9  C8    D T 153      -1.903 -15.333  21.411  0.85 32.23     0.008 C 
HETATM   10  C9    D T 153      -1.047 -15.021  22.450  0.85 32.23     0.001 C 
HETATM   11  C10   D T 153      -0.267 -13.877  22.365  0.85 32.23     0.002 C 
HETATM   12  C11   D T 153      -0.247 -13.149  21.184  0.85 32.23     0.018 C 
HETATM   13  C12   D T 153      -1.053 -13.464  20.063  0.85 32.23     0.066 C 
HETATM   14  N1    D T 153      -1.148 -12.611  18.844  0.85 82.40    -0.327 N 
ENDROOT
BRANCH  14  15
HETATM   15  C13   D T 153      -0.130 -11.587  18.598  0.85 82.40     0.108 C 
BRANCH  15  16
HETATM   16  C14   D T 153      -0.601 -10.190  19.026  0.85 82.40     0.060 C 
BRANCH  16  17
HETATM   17  C15   D T 153      -0.350  -9.905  20.520  0.85 82.40     0.252 C 
BRANCH  17  18
HETATM   18  N2    D T 153      -1.487  -9.426  21.269  0.85 82.40     0.141 N 
HETATM   19  C16   D T 153      -1.051  -9.288  22.629  0.85 82.40     0.285 C 
HETATM   20  C17   D T 153      -2.106  -8.695  23.431  0.85 82.40     0.285 C 
HETATM   21  N3    D T 153      -3.243  -8.392  22.608  0.85 82.40     0.143 N 
HETATM   22  C18   D T 153      -2.836  -7.502  21.561  0.85 82.40     0.285 C 
HETATM   23  C20   D T 153      -4.156  -7.666  23.424  0.85 82.40     0.285 C 
HETATM   24  C19   D T 153      -1.815  -8.129  20.743  0.85 82.40     0.285 C 
ENDBRANCH  17  18
ENDBRANCH  16  17
ENDBRANCH  15  16
ENDBRANCH  14  15
BRANCH   1  25
HETATM   25  C21   D T 153      -4.260  -9.688  16.343  0.85 32.23     0.419 C 
HETATM   26  F1    D T 153      -5.518  -9.472  16.103  0.85 32.23    -0.166 F 
HETATM   27  F2    D T 153      -3.726  -9.660  15.172  0.85 32.23    -0.166 F 
HETATM   28  F3    D T 153      -3.847  -8.579  16.890  0.85 32.23    -0.166 F 
ENDBRANCH   1  25
TORSDOF 10
ENDMDL
MODEL 3
REMARK VINA RESULT:      -6.2     11.380     14.277
REMARK  10 active torsions:
REMARK  status: ('A' for Active; 'I' for Inactive)
REMARK    1  A    between atoms: C1_1  and  C21_25 
REMARK    2  A    between atoms: N1_14  and  C13_15 
REMARK    3  A    between atoms: C13_15  and  C14_16 
REMARK    4  A    between atoms: C14_16  and  C15_17 
REMARK    5  A    between atoms: C15_17  and  N2_18 
REMARK    6  A    between atoms: C1_29  and  C21_53 
REMARK    7  A    between atoms: N1_42  and  C13_43 
REMARK    8  A    between atoms: C13_43  and  C14_44 
REMARK    9  A    between atoms: C14_44  and  C15_45 
REMARK   10  A    between atoms: C15_45  and  N2_46 
ROOT
HETATM    1  C1    D T 153      -4.477 -11.232  17.077  0.85 32.23     0.073 C 
HETATM    2  C2    D T 153      -5.740 -11.806  16.941  0.85 32.23     0.004 C 
HETATM    3  C3    D T 153      -5.892 -13.143  17.216  0.85 32.23     0.008 C 
HETATM    4  C4    D T 153      -4.946 -13.798  17.984  0.85 32.23     0.045 C 
HETATM    5  C5    D T 153      -3.720 -13.188  18.284  0.85 32.23     0.066 C 
HETATM    6  C6    D T 153      -3.469 -11.892  17.786  0.85 32.23     0.022 C 
HETATM    7  S     D T 153      -5.345 -15.407  18.586  0.85 32.23    -0.084 SA
HETATM    8  C7    D T 153      -4.273 -15.597  19.944  0.85 32.23     0.045 C 
HETATM    9  C8    D T 153      -4.674 -16.459  20.977  0.85 32.23     0.008 C 
HETATM   10  C9    D T 153      -3.924 -16.560  22.133  0.85 32.23     0.001 C 
HETATM   11  C10   D T 153      -2.798 -15.762  22.282  0.85 32.23     0.002 C 
HETATM   12  C11   D T 153      -2.361 -14.991  21.215  0.85 32.23     0.018 C 
HETATM   13  C12   D T 153      -3.054 -14.905  19.983  0.85 32.23     0.066 C 
HETATM   14  N1    D T 153      -2.676 -13.973  18.882  0.85 82.40    -0.327 N 
ENDROOT
BRANCH  14  15
HETATM   15  C13   D T 153      -1.346 -13.357  18.882  0.85 82.40     0.108 C 
BRANCH  15  16
HETATM   16  C14   D T 153      -1.161 -12.382  20.052  0.85 82.40     0.060 C 
BRANCH  16  17
HETATM   17  C15   D T 153      -0.226 -11.205  19.709  0.85 82.40     0.252 C 
BRANCH  17  18
HETATM   18  N2    D T 153      -0.426  -9.998  20.477  0.85 82.40     0.141 N 
HETATM   19  C16   D T 153      -1.698  -9.468  20.080  0.85 82.40     0.285 C 
HETATM   20  C17   D T 153      -2.031  -8.313  20.895  0.85 82.40     0.285 C 
HETATM   21  N3    D T 153      -1.004  -8.084  21.873  0.85 82.40     0.143 N 
HETATM   22  C18   D T 153      -0.863  -9.257  22.683  0.85 82.40     0.285 C 
HETATM   23  C20   D T 153      -1.480  -7.054  22.732  0.85 82.40     0.285 C 
HETATM   24  C19   D T 153      -0.486 -10.390  21.858  0.85 82.40     0.285 C 
ENDBRANCH  17  18
ENDBRANCH  16  17
ENDBRANCH  15  16
ENDBRANCH  14  15
BRANCH   1  25
HETATM   25  C21   D T 153      -4.212  -9.938  16.465  0.85 32.23     0.419 C 
HETATM   26  F1    D T 153      -3.686  -9.058  17.262  0.85 32.23    -0.166 F 
HETATM   27  F2    D T 153      -5.261  -9.342  16.018  0.85 32.23    -0.166 F 
HETATM   28  F3    D T 153      -3.410  -9.953  15.437  0.85 32.23    -0.166 F 
ENDBRANCH   1  25
TORSDOF 10
ENDMDL
MODEL 4
REMARK VINA RESULT:      -6.0     12.306     14.701
REMARK  10 active torsions:
REMARK  status: ('A' for Active; 'I' for Inactive)
REMARK    1  A    between atoms: C1_1  and  C21_25 
REMARK    2  A    between atoms: N1_14  and  C13_15 
REMARK    3  A    between atoms: C13_15  and  C14_16 
REMARK    4  A    between atoms: C14_16  and  C15_17 
REMARK    5  A    between atoms: C15_17  and  N2_18 
REMARK    6  A    between atoms: C1_29  and  C21_53 
REMARK    7  A    between atoms: N1_42  and  C13_43 
REMARK    8  A    between atoms: C13_43  and  C14_44 
REMARK    9  A    between atoms: C14_44  and  C15_45 
REMARK   10  A    between atoms: C15_45  and  N2_46 
ROOT
HETATM    1  C1    D T 153      -5.494 -12.517  17.192  0.85 32.23     0.073 C 
HETATM    2  C2    D T 153      -5.056 -11.284  16.711  0.85 32.23     0.004 C 
HETATM    3  C3    D T 153      -3.895 -10.752  17.216  0.85 32.23     0.008 C 
HETATM    4  C4    D T 153      -2.986 -11.574  17.859  0.85 32.23     0.045 C 
HETATM    5  C5    D T 153      -3.333 -12.884  18.216  0.85 32.23     0.066 C 
HETATM    6  C6    D T 153      -4.629 -13.350  17.907  0.85 32.23     0.022 C 
HETATM    7  S     D T 153      -1.380 -10.924  18.189  0.85 32.23    -0.084 SA
HETATM    8  C7    D T 153      -0.407 -12.356  18.379  0.85 32.23     0.045 C 
HETATM    9  C8    D T 153       0.963 -12.257  18.089  0.85 32.23     0.008 C 
HETATM   10  C9    D T 153       1.762 -13.384  18.106  0.85 32.23     0.001 C 
HETATM   11  C10   D T 153       1.186 -14.620  18.363  0.85 32.23     0.002 C 
HETATM   12  C11   D T 153      -0.146 -14.687  18.744  0.85 32.23     0.018 C 
HETATM   13  C12   D T 153      -0.994 -13.555  18.810  0.85 32.23     0.066 C 
HETATM   14  N1    D T 153      -2.458 -13.630  19.078  0.85 82.40    -0.327 N 
ENDROOT
BRANCH  14  15
HETATM   15  C13   D T 153      -3.027 -14.855  19.646  0.85 82.40     0.108 C 
BRANCH  15  16
HETATM   16  C14   D T 153      -3.196 -14.762  21.168  0.85 82.40     0.060 C 
BRANCH  16  17
HETATM   17  C15   D T 153      -4.455 -13.975  21.584  0.85 82.40     0.252 C 
BRANCH  17  18
HETATM   18  N2    D T 153      -5.440 -14.715  22.337  0.85 82.40     0.141 N 
HETATM   19  C16   D T 153      -6.063 -13.778  23.226  0.85 82.40     0.285 C 
HETATM   20  C17   D T 153      -7.154 -14.419  23.939  0.85 82.40     0.285 C 
HETATM   21  N3    D T 153      -7.299 -15.780  23.503  0.85 82.40     0.143 N 
HETATM   22  C18   D T 153      -7.534 -15.793  22.089  0.85 82.40     0.285 C 
HETATM   23  C20   D T 153      -8.482 -16.281  24.115  0.85 82.40     0.285 C 
HETATM   24  C19   D T 153      -6.413 -15.190  21.392  0.85 82.40     0.285 C 
ENDBRANCH  17  18
ENDBRANCH  16  17
ENDBRANCH  15  16
ENDBRANCH  14  15
BRANCH   1  25
HETATM   25  C21   D T 153      -6.869 -12.930  16.949  0.85 32.23     0.419 C 
HETATM   26  F1    D T 153      -7.712 -11.952  16.803  0.85 32.23    -0.166 F 
HETATM   27  F2    D T 153      -7.386 -13.626  17.900  0.85 32.23    -0.166 F 
HETATM   28  F3    D T 153      -7.059 -13.671  15.894  0.85 32.23    -0.166 F 
ENDBRANCH   1  25
TORSDOF 10
ENDMDL
MODEL 5
REMARK VINA RESULT:      -6.0      1.843      2.213
REMARK  10 active torsions:
REMARK  status: ('A' for Active; 'I' for Inactive)
REMARK    1  A    between atoms: C1_1  and  C21_25 
REMARK    2  A    between atoms: N1_14  and  C13_15 
REMARK    3  A    between atoms: C13_15  and  C14_16 
REMARK    4  A    between atoms: C14_16  and  C15_17 
REMARK    5  A    between atoms: C15_17  and  N2_18 
REMARK    6  A    between atoms: C1_29  and  C21_53 
REMARK    7  A    between atoms: N1_42  and  C13_43 
REMARK    8  A    between atoms: C13_43  and  C14_44 
REMARK    9  A    between atoms: C14_44  and  C15_45 
REMARK   10  A    between atoms: C15_45  and  N2_46 
ROOT
HETATM    1  C1    D T 153     -11.708  -2.249  25.571  0.85 32.23     0.073 C 
HETATM    2  C2    D T 153     -12.318  -1.353  26.448  0.85 32.23     0.004 C 
HETATM    3  C3    D T 153     -12.222  -1.582  27.799  0.85 32.23     0.008 C 
HETATM    4  C4    D T 153     -11.231  -2.415  28.286  0.85 32.23     0.045 C 
HETATM    5  C5    D T 153     -10.478  -3.216  27.416  0.85 32.23     0.066 C 
HETATM    6  C6    D T 153     -10.751  -3.157  26.033  0.85 32.23     0.022 C 
HETATM    7  S     D T 153     -10.937  -2.415  30.025  0.85 32.23    -0.084 SA
HETATM    8  C7    D T 153      -9.312  -3.027  30.150  0.85 32.23     0.045 C 
HETATM    9  C8    D T 153      -8.555  -2.646  31.269  0.85 32.23     0.008 C 
HETATM   10  C9    D T 153      -7.223  -3.002  31.365  0.85 32.23     0.001 C 
HETATM   11  C10   D T 153      -6.631  -3.697  30.320  0.85 32.23     0.002 C 
HETATM   12  C11   D T 153      -7.415  -4.150  29.269  0.85 32.23     0.018 C 
HETATM   13  C12   D T 153      -8.799  -3.873  29.156  0.85 32.23     0.066 C 
HETATM   14  N1    D T 153      -9.622  -4.231  27.965  0.85 82.40    -0.327 N 
ENDROOT
BRANCH  14  15
HETATM   15  C13   D T 153      -9.113  -5.213  27.004  0.85 82.40     0.108 C 
BRANCH  15  16
HETATM   16  C14   D T 153      -9.463  -6.652  27.407  0.85 82.40     0.060 C 
BRANCH  16  17
HETATM   17  C15   D T 153      -9.522  -7.614  26.204  0.85 82.40     0.252 C 
BRANCH  17  18
HETATM   18  N2    D T 153      -8.705  -8.800  26.306  0.85 82.40     0.141 N 
HETATM   19  C16   D T 153      -7.636  -8.483  27.207  0.85 82.40     0.285 C 
HETATM   20  C17   D T 153      -6.831  -9.664  27.460  0.85 82.40     0.285 C 
HETATM   21  N3    D T 153      -7.379 -10.794  26.762  0.85 82.40     0.143 N 
HETATM   22  C18   D T 153      -8.731 -10.996  27.191  0.85 82.40     0.285 C 
HETATM   23  C20   D T 153      -6.644 -11.935  27.192  0.85 82.40     0.285 C 
HETATM   24  C19   D T 153      -9.530  -9.822  26.890  0.85 82.40     0.285 C 
ENDBRANCH  17  18
ENDBRANCH  16  17
ENDBRANCH  15  16
ENDBRANCH  14  15
BRANCH   1  25
HETATM   25  C21   D T 153     -12.084  -2.238  24.164  0.85 32.23     0.419 C 
HETATM   26  F1    D T 153     -11.140  -2.594  23.347  0.85 32.23    -0.166 F 
HETATM   27  F2    D T 153     -12.436  -1.081  23.722  0.85 32.23    -0.166 F 
HETATM   28  F3    D T 153     -13.088  -3.003  23.841  0.85 32.23    -0.166 F 
ENDBRANCH   1  25
TORSDOF 10
ENDMDL
MODEL 6
REMARK VINA RESULT:      -5.9      3.336      5.226
REMARK  10 active torsions:
REMARK  status: ('A' for Active; 'I' for Inactive)
REMARK    1  A    between atoms: C1_1  and  C21_25 
REMARK    2  A    between atoms: N1_14  and  C13_15 
REMARK    3  A    between atoms: C13_15  and  C14_16 
REMARK    4  A    between atoms: C14_16  and  C15_17 
REMARK    5  A    between atoms: C15_17  and  N2_18 
REMARK    6  A    between atoms: C1_29  and  C21_53 
REMARK    7  A    between atoms: N1_42  and  C13_43 
REMARK    8  A    between atoms: C13_43  and  C14_44 
REMARK    9  A    between atoms: C14_44  and  C15_45 
REMARK   10  A    between atoms: C15_45  and  N2_46 
ROOT
HETATM    1  C1    D T 153     -11.471  -3.140  25.854  0.85 32.23     0.073 C 
HETATM    2  C2    D T 153     -10.754  -2.092  26.430  0.85 32.23     0.004 C 
HETATM    3  C3    D T 153      -9.888  -2.372  27.459  0.85 32.23     0.008 C 
HETATM    4  C4    D T 153      -9.433  -3.665  27.642  0.85 32.23     0.045 C 
HETATM    5  C5    D T 153     -10.022  -4.735  26.953  0.85 32.23     0.066 C 
HETATM    6  C6    D T 153     -11.088  -4.467  26.069  0.85 32.23     0.022 C 
HETATM    7  S     D T 153      -8.082  -3.914  28.747  0.85 32.23    -0.084 SA
HETATM    8  C7    D T 153      -7.428  -5.443  28.234  0.85 32.23     0.045 C 
HETATM    9  C8    D T 153      -6.067  -5.686  28.477  0.85 32.23     0.008 C 
HETATM   10  C9    D T 153      -5.464  -6.829  27.989  0.85 32.23     0.001 C 
HETATM   11  C10   D T 153      -6.207  -7.708  27.212  0.85 32.23     0.002 C 
HETATM   12  C11   D T 153      -7.571  -7.504  27.064  0.85 32.23     0.018 C 
HETATM   13  C12   D T 153      -8.253  -6.386  27.603  0.85 32.23     0.066 C 
HETATM   14  N1    D T 153      -9.686  -6.080  27.333  0.85 82.40    -0.327 N 
ENDROOT
BRANCH  14  15
HETATM   15  C13   D T 153     -10.558  -7.124  26.786  0.85 82.40     0.108 C 
BRANCH  15  16
HETATM   16  C14   D T 153     -11.100  -8.055  27.880  0.85 82.40     0.060 C 
BRANCH  16  17
HETATM   17  C15   D T 153     -11.022  -9.544  27.491  0.85 82.40     0.252 C 
BRANCH  17  18
HETATM   18  N2    D T 153     -11.864  -9.953  26.391  0.85 82.40     0.141 N 
HETATM   19  C16   D T 153     -11.856 -11.387  26.382  0.85 82.40     0.285 C 
HETATM   20  C17   D T 153     -12.777 -11.883  25.376  0.85 82.40     0.285 C 
HETATM   21  N3    D T 153     -13.443 -10.786  24.730  0.85 82.40     0.143 N 
HETATM   22  C18   D T 153     -14.134 -10.013  25.719  0.85 82.40     0.285 C 
HETATM   23  C20   D T 153     -14.442 -11.352  23.888  0.85 82.40     0.285 C 
HETATM   24  C19   D T 153     -13.191  -9.488  26.690  0.85 82.40     0.285 C 
ENDBRANCH  17  18
ENDBRANCH  16  17
ENDBRANCH  15  16
ENDBRANCH  14  15
BRANCH   1  25
HETATM   25  C21   D T 153     -12.632  -2.841  25.028  0.85 32.23     0.419 C 
HETATM   26  F1    D T 153     -13.022  -1.602  25.067  0.85 32.23    -0.166 F 
HETATM   27  F2    D T 153     -13.692  -3.494  25.353  0.85 32.23    -0.166 F 
HETATM   28  F3    D T 153     -12.501  -3.091  23.755  0.85 32.23    -0.166 F 
ENDBRANCH   1  25
TORSDOF 10
ENDMDL
MODEL 7
REMARK VINA RESULT:      -5.8      7.005     10.025
REMARK  10 active torsions:
REMARK  status: ('A' for Active; 'I' for Inactive)
REMARK    1  A    between atoms: C1_1  and  C21_25 
REMARK    2  A    between atoms: N1_14  and  C13_15 
REMARK    3  A    between atoms: C13_15  and  C14_16 
REMARK    4  A    between atoms: C14_16  and  C15_17 
REMARK    5  A    between atoms: C15_17  and  N2_18 
REMARK    6  A    between atoms: C1_29  and  C21_53 
REMARK    7  A    between atoms: N1_42  and  C13_43 
REMARK    8  A    between atoms: C13_43  and  C14_44 
REMARK    9  A    between atoms: C14_44  and  C15_45 
REMARK   10  A    between atoms: C15_45  and  N2_46 
ROOT
HETATM    1  C1    D T 153     -13.028 -12.459  25.127  0.85 32.23     0.073 C 
HETATM    2  C2    D T 153     -13.460 -13.772  24.947  0.85 32.23     0.004 C 
HETATM    3  C3    D T 153     -12.558 -14.793  25.117  0.85 32.23     0.008 C 
HETATM    4  C4    D T 153     -11.394 -14.570  25.831  0.85 32.23     0.045 C 
HETATM    5  C5    D T 153     -11.005 -13.269  26.176  0.85 32.23     0.066 C 
HETATM    6  C6    D T 153     -11.823 -12.190  25.781  0.85 32.23     0.022 C 
HETATM    7  S     D T 153     -10.437 -15.974  26.305  0.85 32.23    -0.084 SA
HETATM    8  C7    D T 153      -9.499 -15.377  27.644  0.85 32.23     0.045 C 
HETATM    9  C8    D T 153      -9.070 -16.305  28.606  0.85 32.23     0.008 C 
HETATM   10  C9    D T 153      -8.425 -15.876  29.750  0.85 32.23     0.001 C 
HETATM   11  C10   D T 153      -8.250 -14.516  29.960  0.85 32.23     0.002 C 
HETATM   12  C11   D T 153      -8.590 -13.620  28.957  0.85 32.23     0.018 C 
HETATM   13  C12   D T 153      -9.190 -14.012  27.736  0.85 32.23     0.066 C 
HETATM   14  N1    D T 153      -9.689 -13.051  26.711  0.85 82.40    -0.327 N 
ENDROOT
BRANCH  14  15
HETATM   15  C13   D T 153      -9.252 -11.653  26.758  0.85 82.40     0.108 C 
BRANCH  15  16
HETATM   16  C14   D T 153      -7.851 -11.465  26.159  0.85 82.40     0.060 C 
BRANCH  16  17
HETATM   17  C15   D T 153      -7.614 -10.038  25.627  0.85 82.40     0.252 C 
BRANCH  17  18
HETATM   18  N2    D T 153      -7.193  -9.063  26.606  0.85 82.40     0.141 N 
HETATM   19  C16   D T 153      -6.220  -9.712  27.435  0.85 82.40     0.285 C 
HETATM   20  C17   D T 153      -5.655  -8.761  28.376  0.85 82.40     0.285 C 
HETATM   21  N3    D T 153      -6.215  -7.456  28.157  0.85 82.40     0.143 N 
HETATM   22  C18   D T 153      -5.952  -7.056  26.807  0.85 82.40     0.285 C 
HETATM   23  C20   D T 153      -5.495  -6.557  28.993  0.85 82.40     0.285 C 
HETATM   24  C19   D T 153      -6.562  -7.994  25.882  0.85 82.40     0.285 C 
ENDBRANCH  17  18
ENDBRANCH  16  17
ENDBRANCH  15  16
ENDBRANCH  14  15
BRANCH   1  25
HETATM   25  C21   D T 153     -13.843 -11.364  24.617  0.85 32.23     0.419 C 
HETATM   26  F1    D T 153     -13.328 -10.183  24.779  0.85 32.23    -0.166 F 
HETATM   27  F2    D T 153     -14.997 -11.262  25.177  0.85 32.23    -0.166 F 
HETATM   28  F3    D T 153     -14.126 -11.415  23.346  0.85 32.23    -0.166 F 
ENDBRANCH   1  25
TORSDOF 10
ENDMDL
MODEL 8
REMARK VINA RESULT:      -5.7      2.089      2.561
REMARK  10 active torsions:
REMARK  status: ('A' for Active; 'I' for Inactive)
REMARK    1  A    between atoms: C1_1  and  C21_25 
REMARK    2  A    between atoms: N1_14  and  C13_15 
REMARK    3  A    between atoms: C13_15  and  C14_16 
REMARK    4  A    between atoms: C14_16  and  C15_17 
REMARK    5  A    between atoms: C15_17  and  N2_18 
REMARK    6  A    between atoms: C1_29  and  C21_53 
REMARK    7  A    between atoms: N1_42  and  C13_43 
REMARK    8  A    between atoms: C13_43  and  C14_44 
REMARK    9  A    between atoms: C14_44  and  C15_45 
REMARK   10  A    between atoms: C15_45  and  N2_46 
ROOT
HETATM    1  C1    D T 153     -12.037  -2.459  24.716  0.85 32.23     0.073 C 
HETATM    2  C2    D T 153     -12.960  -1.730  25.466  0.85 32.23     0.004 C 
HETATM    3  C3    D T 153     -13.375  -2.235  26.674  0.85 32.23     0.008 C 
HETATM    4  C4    D T 153     -12.618  -3.201  27.312  0.85 32.23     0.045 C 
HETATM    5  C5    D T 153     -11.569  -3.845  26.642  0.85 32.23     0.066 C 
HETATM    6  C6    D T 153     -11.299  -3.490  25.304  0.85 32.23     0.022 C 
HETATM    7  S     D T 153     -13.004  -3.572  28.992  0.85 32.23    -0.084 SA
HETATM    8  C7    D T 153     -11.530  -4.281  29.588  0.85 32.23     0.045 C 
HETATM    9  C8    D T 153     -11.264  -4.177  30.963  0.85 32.23     0.008 C 
HETATM   10  C9    D T 153     -10.058  -4.614  31.475  0.85 32.23     0.001 C 
HETATM   11  C10   D T 153      -9.094  -5.111  30.609  0.85 32.23     0.002 C 
HETATM   12  C11   D T 153      -9.408  -5.298  29.271  0.85 32.23     0.018 C 
HETATM   13  C12   D T 153     -10.654  -4.932  28.706  0.85 32.23     0.066 C 
HETATM   14  N1    D T 153     -10.954  -4.995  27.248  0.85 82.40    -0.327 N 
ENDROOT
BRANCH  14  15
HETATM   15  C13   D T 153     -10.091  -5.784  26.366  0.85 82.40     0.108 C 
BRANCH  15  16
HETATM   16  C14   D T 153     -10.325  -7.293  26.527  0.85 82.40     0.060 C 
BRANCH  16  17
HETATM   17  C15   D T 153      -9.169  -8.142  25.963  0.85 82.40     0.252 C 
BRANCH  17  18
HETATM   18  N2    D T 153      -8.902  -9.381  26.654  0.85 82.40     0.141 N 
HETATM   19  C16   D T 153      -7.876 -10.051  25.909  0.85 82.40     0.285 C 
HETATM   20  C17   D T 153      -7.462 -11.256  26.605  0.85 82.40     0.285 C 
HETATM   21  N3    D T 153      -8.179 -11.383  27.844  0.85 82.40     0.143 N 
HETATM   22  C18   D T 153      -7.934 -10.221  28.645  0.85 82.40     0.285 C 
HETATM   23  C20   D T 153      -7.602 -12.483  28.539  0.85 82.40     0.285 C 
HETATM   24  C19   D T 153      -8.395  -9.032  27.952  0.85 82.40     0.285 C 
ENDBRANCH  17  18
ENDBRANCH  16  17
ENDBRANCH  15  16
ENDBRANCH  14  15
BRANCH   1  25
HETATM   25  C21   D T 153     -11.852  -2.140  23.307  0.85 32.23     0.419 C 
HETATM   26  F1    D T 153     -12.938  -2.175  22.596  0.85 32.23    -0.166 F 
HETATM   27  F2    D T 153     -11.065  -2.945  22.684  0.85 32.23    -0.166 F 
HETATM   28  F3    D T 153     -11.347  -0.965  23.055  0.85 32.23    -0.166 F 
ENDBRANCH   1  25
TORSDOF 10
ENDMDL
MODEL 9
REMARK VINA RESULT:      -5.7      3.050      4.669
REMARK  10 active torsions:
REMARK  status: ('A' for Active; 'I' for Inactive)
REMARK    1  A    between atoms: C1_1  and  C21_25 
REMARK    2  A    between atoms: N1_14  and  C13_15 
REMARK    3  A    between atoms: C13_15  and  C14_16 
REMARK    4  A    between atoms: C14_16  and  C15_17 
REMARK    5  A    between atoms: C15_17  and  N2_18 
REMARK    6  A    between atoms: C1_29  and  C21_53 
REMARK    7  A    between atoms: N1_42  and  C13_43 
REMARK    8  A    between atoms: C13_43  and  C14_44 
REMARK    9  A    between atoms: C14_44  and  C15_45 
REMARK   10  A    between atoms: C15_45  and  N2_46 
ROOT
HETATM    1  C1    D T 153     -11.421  -3.159  25.758  0.85 32.23     0.073 C 
HETATM    2  C2    D T 153     -10.769  -2.112  26.409  0.85 32.23     0.004 C 
HETATM    3  C3    D T 153      -9.952  -2.403  27.474  0.85 32.23     0.008 C 
HETATM    4  C4    D T 153      -9.469  -3.689  27.638  0.85 32.23     0.045 C 
HETATM    5  C5    D T 153      -9.986  -4.750  26.882  0.85 32.23     0.066 C 
HETATM    6  C6    D T 153     -11.010  -4.481  25.950  0.85 32.23     0.022 C 
HETATM    7  S     D T 153      -8.174  -3.938  28.809  0.85 32.23    -0.084 SA
HETATM    8  C7    D T 153      -7.447  -5.428  28.281  0.85 32.23     0.045 C 
HETATM    9  C8    D T 153      -6.094  -5.642  28.592  0.85 32.23     0.008 C 
HETATM   10  C9    D T 153      -5.431  -6.749  28.099  0.85 32.23     0.001 C 
HETATM   11  C10   D T 153      -6.103  -7.620  27.253  0.85 32.23     0.002 C 
HETATM   12  C11   D T 153      -7.462  -7.450  27.036  0.85 32.23     0.018 C 
HETATM   13  C12   D T 153      -8.206  -6.372  27.573  0.85 32.23     0.066 C 
HETATM   14  N1    D T 153      -9.632  -6.097  27.234  0.85 82.40    -0.327 N 
ENDROOT
BRANCH  14  15
HETATM   15  C13   D T 153     -10.439  -7.145  26.604  0.85 82.40     0.108 C 
BRANCH  15  16
HETATM   16  C14   D T 153     -11.314  -7.890  27.622  0.85 82.40     0.060 C 
BRANCH  16  17
HETATM   17  C15   D T 153     -10.587  -9.080  28.279  0.85 82.40     0.252 C 
BRANCH  17  18
HETATM   18  N2    D T 153     -10.616 -10.321  27.541  0.85 82.40     0.141 N 
HETATM   19  C16   D T 153      -9.253 -10.649  27.241  0.85 82.40     0.285 C 
HETATM   20  C17   D T 153      -9.183 -11.950  26.600  0.85 82.40     0.285 C 
HETATM   21  N3    D T 153     -10.497 -12.524  26.503  0.85 82.40     0.143 N 
HETATM   22  C18   D T 153     -11.057 -12.631  27.817  0.85 82.40     0.285 C 
HETATM   23  C20   D T 153     -10.327 -13.855  26.026  0.85 82.40     0.285 C 
HETATM   24  C19   D T 153     -11.160 -11.316  28.423  0.85 82.40     0.285 C 
ENDBRANCH  17  18
ENDBRANCH  16  17
ENDBRANCH  15  16
ENDBRANCH  14  15
BRANCH   1  25
HETATM   25  C21   D T 153     -12.544  -2.863  24.879  0.85 32.23     0.419 C 
HETATM   26  F1    D T 153     -13.013  -1.657  24.985  0.85 32.23    -0.166 F 
HETATM   27  F2    D T 153     -13.578  -3.601  25.080  0.85 32.23    -0.166 F 
HETATM   28  F3    D T 153     -12.315  -3.003  23.603  0.85 32.23    -0.166 F 
ENDBRANCH   1  25
TORSDOF 10
ENDMDL
