MODEL 1
REMARK VINA RESULT:    -6.771      0.000      0.000
REMARK INTER + INTRA:          -9.653
REMARK INTER:                  -8.750
REMARK INTRA:                  -0.903
REMARK UNBOUND:                -0.903
REMARK  10 active torsions:
REMARK  status: ('A' for Active; 'I' for Inactive)
REMARK    1  A    between atoms: C1_1  and  C21_25 
REMARK    2  A    between atoms: N1_14  and  C13_15 
REMARK    3  A    between atoms: C13_15  and  C14_16 
REMARK    4  A    between atoms: C14_16  and  C15_17 
REMARK    5  A    between atoms: C15_17  and  N2_18 
REMARK    6  A    between atoms: C1_29  and  C21_53 
REMARK    7  A    between atoms: N1_42  and  C13_43 
REMARK    8  A    between atoms: C13_43  and  C14_44 
REMARK    9  A    between atoms: C14_44  and  C15_45 
REMARK   10  A    between atoms: C15_45  and  N2_46 
ROOT
HETATM    1  C1    D T 153      11.318   5.154  -8.878  0.85 32.23     0.073 C 
HETATM    2  C2    D T 153      11.358   3.822  -9.291  0.85 32.23     0.004 C 
HETATM    3  C3    D T 153      11.524   2.840  -8.344  0.85 32.23     0.008 C 
HETATM    4  C4    D T 153      11.248   3.114  -7.016  0.85 32.23     0.045 C 
HETATM    5  C5    D T 153      11.038   4.432  -6.586  0.85 32.23     0.066 C 
HETATM    6  C6    D T 153      11.112   5.475  -7.533  0.85 32.23     0.022 C 
HETATM    7  S     D T 153      11.151   1.753  -5.899  0.85 32.23    -0.084 SA
HETATM    8  C7    D T 153      10.206   2.391  -4.583  0.85 32.23     0.045 C 
HETATM    9  C8    D T 153       9.462   1.483  -3.813  0.85 32.23     0.008 C 
HETATM   10  C9    D T 153       8.603   1.939  -2.832  0.85 32.23     0.001 C 
HETATM   11  C10   D T 153       8.446   3.306  -2.652  0.85 32.23     0.002 C 
HETATM   12  C11   D T 153       9.258   4.186  -3.351  0.85 32.23     0.018 C 
HETATM   13  C12   D T 153      10.206   3.769  -4.317  0.85 32.23     0.066 C 
HETATM   14  N1    D T 153      10.983   4.706  -5.176  0.85 82.40    -0.327 N 
ENDROOT
BRANCH  14  15
HETATM   15  C13   D T 153      11.068   6.122  -4.806  0.85 82.40     0.108 C 
BRANCH  15  16
HETATM   16  C14   D T 153      12.048   6.358  -3.649  0.85 82.40     0.060 C 
BRANCH  16  17
HETATM   17  C15   D T 153      11.417   7.141  -2.481  0.85 82.40     0.252 C 
BRANCH  17  18
HETATM   18  N2    D T 153      10.297   7.987  -2.821  0.85 82.40     0.141 N 
HETATM   19  C16   D T 153       9.240   7.650  -1.912  0.85 82.40     0.285 C 
HETATM   20  C17   D T 153       8.112   8.543  -2.107  0.85 82.40     0.285 C 
HETATM   21  N3    D T 153       8.418   9.512  -3.122  0.85 82.40     0.143 N 
HETATM   22  C18   D T 153       9.586  10.244  -2.729  0.85 82.40     0.285 C 
HETATM   23  C20   D T 153       7.342  10.444  -3.134  0.85 82.40     0.285 C 
HETATM   24  C19   D T 153      10.713   9.342  -2.583  0.85 82.40     0.285 C 
ENDBRANCH  17  18
ENDBRANCH  16  17
ENDBRANCH  15  16
ENDBRANCH  14  15
BRANCH   1  25
HETATM   25  C21   D T 153      11.503   6.211  -9.861  0.85 32.23     0.419 C 
HETATM   26  F1    D T 153      12.618   6.147 -10.524  0.85 32.23    -0.166 F 
HETATM   27  F2    D T 153      11.521   7.397  -9.363  0.85 32.23    -0.166 F 
HETATM   28  F3    D T 153      10.589   6.287 -10.787  0.85 32.23    -0.166 F 
ENDBRANCH   1  25
TORSDOF 10
ENDMDL
MODEL 2
REMARK VINA RESULT:    -6.679      1.706      2.456
REMARK INTER + INTRA:          -9.534
REMARK INTER:                  -8.954
REMARK INTRA:                  -0.580
REMARK UNBOUND:                -0.903
REMARK  10 active torsions:
REMARK  status: ('A' for Active; 'I' for Inactive)
REMARK    1  A    between atoms: C1_1  and  C21_25 
REMARK    2  A    between atoms: N1_14  and  C13_15 
REMARK    3  A    between atoms: C13_15  and  C14_16 
REMARK    4  A    between atoms: C14_16  and  C15_17 
REMARK    5  A    between atoms: C15_17  and  N2_18 
REMARK    6  A    between atoms: C1_29  and  C21_53 
REMARK    7  A    between atoms: N1_42  and  C13_43 
REMARK    8  A    between atoms: C13_43  and  C14_44 
REMARK    9  A    between atoms: C14_44  and  C15_45 
REMARK   10  A    between atoms: C15_45  and  N2_46 
ROOT
HETATM    1  C1    D T 153      10.857   5.059  -8.219  0.85 32.23     0.073 C 
HETATM    2  C2    D T 153      11.254   3.730  -8.075  0.85 32.23     0.004 C 
HETATM    3  C3    D T 153      11.287   3.181  -6.816  0.85 32.23     0.008 C 
HETATM    4  C4    D T 153      10.572   3.773  -5.790  0.85 32.23     0.045 C 
HETATM    5  C5    D T 153      10.013   5.049  -5.952  0.85 32.23     0.066 C 
HETATM    6  C6    D T 153      10.194   5.719  -7.180  0.85 32.23     0.022 C 
HETATM    7  S     D T 153      10.373   2.862  -4.294  0.85 32.23    -0.084 SA
HETATM    8  C7    D T 153       8.972   3.598  -3.568  0.85 32.23     0.045 C 
HETATM    9  C8    D T 153       8.197   2.813  -2.701  0.85 32.23     0.008 C 
HETATM   10  C9    D T 153       7.011   3.301  -2.188  0.85 32.23     0.001 C 
HETATM   11  C10   D T 153       6.570   4.557  -2.580  0.85 32.23     0.002 C 
HETATM   12  C11   D T 153       7.393   5.359  -3.357  0.85 32.23     0.018 C 
HETATM   13  C12   D T 153       8.650   4.934  -3.852  0.85 32.23     0.066 C 
HETATM   14  N1    D T 153       9.479   5.728  -4.803  0.85 82.40    -0.327 N 
ENDROOT
BRANCH  14  15
HETATM   15  C13   D T 153       9.198   7.154  -4.988  0.85 82.40     0.108 C 
BRANCH  15  16
HETATM   16  C14   D T 153       9.467   7.966  -3.715  0.85 82.40     0.060 C 
BRANCH  16  17
HETATM   17  C15   D T 153       8.824   9.366  -3.750  0.85 82.40     0.252 C 
BRANCH  17  18
HETATM   18  N2    D T 153       9.612  10.437  -3.188  0.85 82.40     0.141 N 
HETATM   19  C16   D T 153       8.836  10.998  -2.120  0.85 82.40     0.285 C 
HETATM   20  C17   D T 153       9.611  12.007  -1.420  0.85 82.40     0.285 C 
HETATM   21  N3    D T 153      10.926  12.103  -1.986  0.85 82.40     0.143 N 
HETATM   22  C18   D T 153      11.564  10.821  -1.902  0.85 82.40     0.285 C 
HETATM   23  C20   D T 153      11.670  12.979  -1.146  0.85 82.40     0.285 C 
HETATM   24  C19   D T 153      10.801   9.837  -2.645  0.85 82.40     0.285 C 
ENDBRANCH  17  18
ENDBRANCH  16  17
ENDBRANCH  15  16
ENDBRANCH  14  15
BRANCH   1  25
HETATM   25  C21   D T 153      11.149   5.761  -9.460  0.85 32.23     0.419 C 
HETATM   26  F1    D T 153      10.191   5.734 -10.337  0.85 32.23    -0.166 F 
HETATM   27  F2    D T 153      12.156   5.290 -10.107  0.85 32.23    -0.166 F 
HETATM   28  F3    D T 153      11.432   7.027  -9.340  0.85 32.23    -0.166 F 
ENDBRANCH   1  25
TORSDOF 10
ENDMDL
MODEL 3
REMARK VINA RESULT:    -6.392      1.756      2.953
REMARK INTER + INTRA:          -9.163
REMARK INTER:                  -8.337
REMARK INTRA:                  -0.826
REMARK UNBOUND:                -0.903
REMARK  10 active torsions:
REMARK  status: ('A' for Active; 'I' for Inactive)
REMARK    1  A    between atoms: C1_1  and  C21_25 
REMARK    2  A    between atoms: N1_14  and  C13_15 
REMARK    3  A    between atoms: C13_15  and  C14_16 
REMARK    4  A    between atoms: C14_16  and  C15_17 
REMARK    5  A    between atoms: C15_17  and  N2_18 
REMARK    6  A    between atoms: C1_29  and  C21_53 
REMARK    7  A    between atoms: N1_42  and  C13_43 
REMARK    8  A    between atoms: C13_43  and  C14_44 
REMARK    9  A    between atoms: C14_44  and  C15_45 
REMARK   10  A    between atoms: C15_45  and  N2_46 
ROOT
HETATM    1  C1    D T 153      10.832   5.063  -8.163  0.85 32.23     0.073 C 
HETATM    2  C2    D T 153      11.198   3.722  -8.045  0.85 32.23     0.004 C 
HETATM    3  C3    D T 153      11.222   3.150  -6.796  0.85 32.23     0.008 C 
HETATM    4  C4    D T 153      10.523   3.740  -5.757  0.85 32.23     0.045 C 
HETATM    5  C5    D T 153       9.994   5.031  -5.894  0.85 32.23     0.066 C 
HETATM    6  C6    D T 153      10.187   5.719  -7.110  0.85 32.23     0.022 C 
HETATM    7  S     D T 153      10.307   2.806  -4.277  0.85 32.23    -0.084 SA
HETATM    8  C7    D T 153       8.926   3.562  -3.534  0.85 32.23     0.045 C 
HETATM    9  C8    D T 153       8.135   2.779  -2.678  0.85 32.23     0.008 C 
HETATM   10  C9    D T 153       6.963   3.286  -2.152  0.85 32.23     0.001 C 
HETATM   11  C10   D T 153       6.551   4.559  -2.520  0.85 32.23     0.002 C 
HETATM   12  C11   D T 153       7.389   5.355  -3.285  0.85 32.23     0.018 C 
HETATM   13  C12   D T 153       8.635   4.910  -3.792  0.85 32.23     0.066 C 
HETATM   14  N1    D T 153       9.479   5.702  -4.731  0.85 82.40    -0.327 N 
ENDROOT
BRANCH  14  15
HETATM   15  C13   D T 153       9.231   7.137  -4.890  0.85 82.40     0.108 C 
BRANCH  15  16
HETATM   16  C14   D T 153       9.317   7.889  -3.555  0.85 82.40     0.060 C 
BRANCH  16  17
HETATM   17  C15   D T 153      10.767   8.182  -3.125  0.85 82.40     0.252 C 
BRANCH  17  18
HETATM   18  N2    D T 153      11.261   7.414  -2.007  0.85 82.40     0.141 N 
HETATM   19  C16   D T 153      10.110   6.989  -1.264  0.85 82.40     0.285 C 
HETATM   20  C17   D T 153      10.513   6.105  -0.185  0.85 82.40     0.285 C 
HETATM   21  N3    D T 153      11.933   5.897  -0.219  0.85 82.40     0.143 N 
HETATM   22  C18   D T 153      12.292   5.344  -1.493  0.85 82.40     0.285 C 
HETATM   23  C20   D T 153      12.224   4.897   0.751  0.85 82.40     0.285 C 
HETATM   24  C19   D T 153      11.923   6.261  -2.555  0.85 82.40     0.285 C 
ENDBRANCH  17  18
ENDBRANCH  16  17
ENDBRANCH  15  16
ENDBRANCH  14  15
BRANCH   1  25
HETATM   25  C21   D T 153      11.136   5.780  -9.392  0.85 32.23     0.419 C 
HETATM   26  F1    D T 153      10.186   5.768 -10.278  0.85 32.23    -0.166 F 
HETATM   27  F2    D T 153      12.147   5.315 -10.037  0.85 32.23    -0.166 F 
HETATM   28  F3    D T 153      11.422   7.044  -9.254  0.85 32.23    -0.166 F 
ENDBRANCH   1  25
TORSDOF 10
ENDMDL
MODEL 4
REMARK VINA RESULT:    -5.984      4.105      5.922
REMARK INTER + INTRA:          -8.636
REMARK INTER:                  -7.719
REMARK INTRA:                  -0.916
REMARK UNBOUND:                -0.903
REMARK  10 active torsions:
REMARK  status: ('A' for Active; 'I' for Inactive)
REMARK    1  A    between atoms: C1_1  and  C21_25 
REMARK    2  A    between atoms: N1_14  and  C13_15 
REMARK    3  A    between atoms: C13_15  and  C14_16 
REMARK    4  A    between atoms: C14_16  and  C15_17 
REMARK    5  A    between atoms: C15_17  and  N2_18 
REMARK    6  A    between atoms: C1_29  and  C21_53 
REMARK    7  A    between atoms: N1_42  and  C13_43 
REMARK    8  A    between atoms: C13_43  and  C14_44 
REMARK    9  A    between atoms: C14_44  and  C15_45 
REMARK   10  A    between atoms: C15_45  and  N2_46 
ROOT
HETATM    1  C1    D T 153      12.273   3.256  -2.261  0.85 32.23     0.073 C 
HETATM    2  C2    D T 153      12.569   2.009  -2.812  0.85 32.23     0.004 C 
HETATM    3  C3    D T 153      11.950   1.638  -3.981  0.85 32.23     0.008 C 
HETATM    4  C4    D T 153      11.382   2.604  -4.794  0.85 32.23     0.045 C 
HETATM    5  C5    D T 153      11.215   3.918  -4.333  0.85 32.23     0.066 C 
HETATM    6  C6    D T 153      11.636   4.238  -3.025  0.85 32.23     0.022 C 
HETATM    7  S     D T 153      10.902   2.129  -6.423  0.85 32.23    -0.084 SA
HETATM    8  C7    D T 153      10.860   3.645  -7.277  0.85 32.23     0.045 C 
HETATM    9  C8    D T 153      11.076   3.618  -8.665  0.85 32.23     0.008 C 
HETATM   10  C9    D T 153      11.172   4.797  -9.379  0.85 32.23     0.001 C 
HETATM   11  C10   D T 153      11.104   6.006  -8.702  0.85 32.23     0.002 C 
HETATM   12  C11   D T 153      10.793   6.018  -7.351  0.85 32.23     0.018 C 
HETATM   13  C12   D T 153      10.614   4.840  -6.585  0.85 32.23     0.066 C 
HETATM   14  N1    D T 153      10.421   4.833  -5.107  0.85 82.40    -0.327 N 
ENDROOT
BRANCH  14  15
HETATM   15  C13   D T 153      10.043   6.072  -4.422  0.85 82.40     0.108 C 
BRANCH  15  16
HETATM   16  C14   D T 153       8.521   6.229  -4.312  0.85 82.40     0.060 C 
BRANCH  16  17
HETATM   17  C15   D T 153       7.826   4.963  -3.773  0.85 82.40     0.252 C 
BRANCH  17  18
HETATM   18  N2    D T 153       6.586   5.177  -3.066  0.85 82.40     0.141 N 
HETATM   19  C16   D T 153       6.406   4.044  -2.204  0.85 82.40     0.285 C 
HETATM   20  C17   D T 153       5.238   4.238  -1.365  0.85 82.40     0.285 C 
HETATM   21  N3    D T 153       4.647   5.520  -1.627  0.85 82.40     0.143 N 
HETATM   22  C18   D T 153       5.624   6.541  -1.385  0.85 82.40     0.285 C 
HETATM   23  C20   D T 153       3.622   5.704  -0.656  0.85 82.40     0.285 C 
HETATM   24  C19   D T 153       6.763   6.358  -2.265  0.85 82.40     0.285 C 
ENDBRANCH  17  18
ENDBRANCH  16  17
ENDBRANCH  15  16
ENDBRANCH  14  15
BRANCH   1  25
HETATM   25  C21   D T 153      12.625   3.524  -0.874  0.85 32.23     0.419 C 
HETATM   26  F1    D T 153      12.103   2.704  -0.013  0.85 32.23    -0.166 F 
HETATM   27  F2    D T 153      12.249   4.679  -0.449  0.85 32.23    -0.166 F 
HETATM   28  F3    D T 153      13.898   3.502  -0.600  0.85 32.23    -0.166 F 
ENDBRANCH   1  25
TORSDOF 10
ENDMDL
MODEL 5
REMARK VINA RESULT:    -5.917      1.179      1.979
REMARK INTER + INTRA:          -8.549
REMARK INTER:                  -8.272
REMARK INTRA:                  -0.277
REMARK UNBOUND:                -0.903
REMARK  10 active torsions:
REMARK  status: ('A' for Active; 'I' for Inactive)
REMARK    1  A    between atoms: C1_1  and  C21_25 
REMARK    2  A    between atoms: N1_14  and  C13_15 
REMARK    3  A    between atoms: C13_15  and  C14_16 
REMARK    4  A    between atoms: C14_16  and  C15_17 
REMARK    5  A    between atoms: C15_17  and  N2_18 
REMARK    6  A    between atoms: C1_29  and  C21_53 
REMARK    7  A    between atoms: N1_42  and  C13_43 
REMARK    8  A    between atoms: C13_43  and  C14_44 
REMARK    9  A    between atoms: C14_44  and  C15_45 
REMARK   10  A    between atoms: C15_45  and  N2_46 
ROOT
HETATM    1  C1    D T 153      11.278   5.145  -8.791  0.85 32.23     0.073 C 
HETATM    2  C2    D T 153      11.466   3.800  -9.108  0.85 32.23     0.004 C 
HETATM    3  C3    D T 153      11.646   2.898  -8.087  0.85 32.23     0.008 C 
HETATM    4  C4    D T 153      11.249   3.227  -6.802  0.85 32.23     0.045 C 
HETATM    5  C5    D T 153      10.892   4.544  -6.479  0.85 32.23     0.066 C 
HETATM    6  C6    D T 153      10.945   5.529  -7.488  0.85 32.23     0.022 C 
HETATM    7  S     D T 153      11.188   1.935  -5.604  0.85 32.23    -0.084 SA
HETATM    8  C7    D T 153      10.096   2.563  -4.403  0.85 32.23     0.045 C 
HETATM    9  C8    D T 153       9.379   1.639  -3.626  0.85 32.23     0.008 C 
HETATM   10  C9    D T 153       8.411   2.074  -2.740  0.85 32.23     0.001 C 
HETATM   11  C10   D T 153       8.121   3.429  -2.666  0.85 32.23     0.002 C 
HETATM   12  C11   D T 153       8.903   4.335  -3.366  0.85 32.23     0.018 C 
HETATM   13  C12   D T 153       9.954   3.949  -4.233  0.85 32.23     0.066 C 
HETATM   14  N1    D T 153      10.708   4.900  -5.099  0.85 82.40    -0.327 N 
ENDROOT
BRANCH  14  15
HETATM   15  C13   D T 153      10.640   6.337  -4.822  0.85 82.40     0.108 C 
BRANCH  15  16
HETATM   16  C14   D T 153       9.251   6.917  -5.120  0.85 82.40     0.060 C 
BRANCH  16  17
HETATM   17  C15   D T 153       8.867   8.068  -4.169  0.85 82.40     0.252 C 
BRANCH  17  18
HETATM   18  N2    D T 153       8.838   7.742  -2.763  0.85 82.40     0.141 N 
HETATM   19  C16   D T 153       9.579   8.769  -2.090  0.85 82.40     0.285 C 
HETATM   20  C17   D T 153       9.495   8.581  -0.653  0.85 82.40     0.285 C 
HETATM   21  N3    D T 153       8.665   7.451  -0.348  0.85 82.40     0.143 N 
HETATM   22  C18   D T 153       7.364   7.664  -0.911  0.85 82.40     0.285 C 
HETATM   23  C20   D T 153       8.496   7.436   1.066  0.85 82.40     0.285 C 
HETATM   24  C19   D T 153       7.461   7.803  -2.352  0.85 82.40     0.285 C 
ENDBRANCH  17  18
ENDBRANCH  16  17
ENDBRANCH  15  16
ENDBRANCH  14  15
BRANCH   1  25
HETATM   25  C21   D T 153      11.442   6.152  -9.829  0.85 32.23     0.419 C 
HETATM   26  F1    D T 153      11.468   7.377  -9.397  0.85 32.23    -0.166 F 
HETATM   27  F2    D T 153      10.499   6.166 -10.703  0.85 32.23    -0.166 F 
HETATM   28  F3    D T 153      12.522   6.049 -10.551  0.85 32.23    -0.166 F 
ENDBRANCH   1  25
TORSDOF 10
ENDMDL
MODEL 6
REMARK VINA RESULT:    -5.878      3.996      6.136
REMARK INTER + INTRA:          -8.499
REMARK INTER:                  -7.410
REMARK INTRA:                  -1.089
REMARK UNBOUND:                -0.903
REMARK  10 active torsions:
REMARK  status: ('A' for Active; 'I' for Inactive)
REMARK    1  A    between atoms: C1_1  and  C21_25 
REMARK    2  A    between atoms: N1_14  and  C13_15 
REMARK    3  A    between atoms: C13_15  and  C14_16 
REMARK    4  A    between atoms: C14_16  and  C15_17 
REMARK    5  A    between atoms: C15_17  and  N2_18 
REMARK    6  A    between atoms: C1_29  and  C21_53 
REMARK    7  A    between atoms: N1_42  and  C13_43 
REMARK    8  A    between atoms: C13_43  and  C14_44 
REMARK    9  A    between atoms: C14_44  and  C15_45 
REMARK   10  A    between atoms: C15_45  and  N2_46 
ROOT
HETATM    1  C1    D T 153      12.259   3.317  -2.385  0.85 32.23     0.073 C 
HETATM    2  C2    D T 153      12.598   2.077  -2.928  0.85 32.23     0.004 C 
HETATM    3  C3    D T 153      12.006   1.686  -4.105  0.85 32.23     0.008 C 
HETATM    4  C4    D T 153      11.424   2.634  -4.929  0.85 32.23     0.045 C 
HETATM    5  C5    D T 153      11.214   3.944  -4.475  0.85 32.23     0.066 C 
HETATM    6  C6    D T 153      11.607   4.279  -3.162  0.85 32.23     0.022 C 
HETATM    7  S     D T 153      10.981   2.141  -6.563  0.85 32.23    -0.084 SA
HETATM    8  C7    D T 153      10.910   3.653  -7.423  0.85 32.23     0.045 C 
HETATM    9  C8    D T 153      11.146   3.629  -8.807  0.85 32.23     0.008 C 
HETATM   10  C9    D T 153      11.220   4.808  -9.524  0.85 32.23     0.001 C 
HETATM   11  C10   D T 153      11.109   6.017  -8.851  0.85 32.23     0.002 C 
HETATM   12  C11   D T 153      10.778   6.023  -7.505  0.85 32.23     0.018 C 
HETATM   13  C12   D T 153      10.620   4.843  -6.737  0.85 32.23     0.066 C 
HETATM   14  N1    D T 153      10.406   4.835  -5.262  0.85 82.40    -0.327 N 
ENDROOT
BRANCH  14  15
HETATM   15  C13   D T 153       9.984   6.065  -4.588  0.85 82.40     0.108 C 
BRANCH  15  16
HETATM   16  C14   D T 153       8.518   6.004  -4.139  0.85 82.40     0.060 C 
BRANCH  16  17
HETATM   17  C15   D T 153       7.865   4.635  -4.416  0.85 82.40     0.252 C 
BRANCH  17  18
HETATM   18  N2    D T 153       7.154   4.041  -3.308  0.85 82.40     0.141 N 
HETATM   19  C16   D T 153       8.101   3.224  -2.607  0.85 82.40     0.285 C 
HETATM   20  C17   D T 153       7.496   2.683  -1.403  0.85 82.40     0.285 C 
HETATM   21  N3    D T 153       6.151   3.164  -1.266  0.85 82.40     0.143 N 
HETATM   22  C18   D T 153       6.170   4.597  -1.227  0.85 82.40     0.285 C 
HETATM   23  C20   D T 153       5.689   2.731   0.010  0.85 82.40     0.285 C 
HETATM   24  C19   D T 153       6.736   5.121  -2.456  0.85 82.40     0.285 C 
ENDBRANCH  17  18
ENDBRANCH  16  17
ENDBRANCH  15  16
ENDBRANCH  14  15
BRANCH   1  25
HETATM   25  C21   D T 153      12.584   3.599  -0.995  0.85 32.23     0.419 C 
HETATM   26  F1    D T 153      13.726   3.126  -0.597  0.85 32.23    -0.166 F 
HETATM   27  F2    D T 153      11.749   3.108  -0.149  0.85 32.23    -0.166 F 
HETATM   28  F3    D T 153      12.634   4.860  -0.671  0.85 32.23    -0.166 F 
ENDBRANCH   1  25
TORSDOF 10
ENDMDL
MODEL 7
REMARK VINA RESULT:    -5.748      3.499      5.419
REMARK INTER + INTRA:          -8.331
REMARK INTER:                  -7.439
REMARK INTRA:                  -0.892
REMARK UNBOUND:                -0.903
REMARK  10 active torsions:
REMARK  status: ('A' for Active; 'I' for Inactive)
REMARK    1  A    between atoms: C1_1  and  C21_25 
REMARK    2  A    between atoms: N1_14  and  C13_15 
REMARK    3  A    between atoms: C13_15  and  C14_16 
REMARK    4  A    between atoms: C14_16  and  C15_17 
REMARK    5  A    between atoms: C15_17  and  N2_18 
REMARK    6  A    between atoms: C1_29  and  C21_53 
REMARK    7  A    between atoms: N1_42  and  C13_43 
REMARK    8  A    between atoms: C13_43  and  C14_44 
REMARK    9  A    between atoms: C14_44  and  C15_45 
REMARK   10  A    between atoms: C15_45  and  N2_46 
ROOT
HETATM    1  C1    D T 153      11.965   4.613  -2.043  0.85 32.23     0.073 C 
HETATM    2  C2    D T 153      12.284   3.276  -2.285  0.85 32.23     0.004 C 
HETATM    3  C3    D T 153      11.721   2.647  -3.368  0.85 32.23     0.008 C 
HETATM    4  C4    D T 153      11.197   3.400  -4.404  0.85 32.23     0.045 C 
HETATM    5  C5    D T 153      11.011   4.782  -4.260  0.85 32.23     0.066 C 
HETATM    6  C6    D T 153      11.369   5.392  -3.039  0.85 32.23     0.022 C 
HETATM    7  S     D T 153      10.796   2.567  -5.905  0.85 32.23    -0.084 SA
HETATM    8  C7    D T 153      10.799   3.851  -7.081  0.85 32.23     0.045 C 
HETATM    9  C8    D T 153      11.082   3.515  -8.414  0.85 32.23     0.008 C 
HETATM   10  C9    D T 153      11.216   4.503  -9.370  0.85 32.23     0.001 C 
HETATM   11  C10   D T 153      11.119   5.833  -8.987  0.85 32.23     0.002 C 
HETATM   12  C11   D T 153      10.742   6.146  -7.690  0.85 32.23     0.018 C 
HETATM   13  C12   D T 153      10.523   5.169  -6.687  0.85 32.23     0.066 C 
HETATM   14  N1    D T 153      10.258   5.494  -5.257  0.85 82.40    -0.327 N 
ENDROOT
BRANCH  14  15
HETATM   15  C13   D T 153       9.851   6.852  -4.888  0.85 82.40     0.108 C 
BRANCH  15  16
HETATM   16  C14   D T 153       8.552   6.863  -4.070  0.85 82.40     0.060 C 
BRANCH  16  17
HETATM   17  C15   D T 153       8.515   7.992  -3.022  0.85 82.40     0.252 C 
BRANCH  17  18
HETATM   18  N2    D T 153       9.613   8.929  -3.066  0.85 82.40     0.141 N 
HETATM   19  C16   D T 153       9.045  10.208  -3.380  0.85 82.40     0.285 C 
HETATM   20  C17   D T 153      10.070  11.235  -3.324  0.85 82.40     0.285 C 
HETATM   21  N3    D T 153      11.325  10.660  -2.932  0.85 82.40     0.143 N 
HETATM   22  C18   D T 153      11.169  10.025  -1.656  0.85 82.40     0.285 C 
HETATM   23  C20   D T 153      12.228  11.744  -2.736  0.85 82.40     0.285 C 
HETATM   24  C19   D T 153      10.175   8.973  -1.743  0.85 82.40     0.285 C 
ENDBRANCH  17  18
ENDBRANCH  16  17
ENDBRANCH  15  16
ENDBRANCH  14  15
BRANCH   1  25
HETATM   25  C21   D T 153      12.249   5.189  -0.738  0.85 32.23     0.419 C 
HETATM   26  F1    D T 153      11.875   6.425  -0.597  0.85 32.23    -0.166 F 
HETATM   27  F2    D T 153      13.499   5.222  -0.437  0.85 32.23    -0.166 F 
HETATM   28  F3    D T 153      11.710   4.579   0.280  0.85 32.23    -0.166 F 
ENDBRANCH   1  25
TORSDOF 10
ENDMDL
MODEL 8
REMARK VINA RESULT:    -5.733      4.490      6.746
REMARK INTER + INTRA:          -8.312
REMARK INTER:                  -7.248
REMARK INTRA:                  -1.064
REMARK UNBOUND:                -0.903
REMARK  10 active torsions:
REMARK  status: ('A' for Active; 'I' for Inactive)
REMARK    1  A    between atoms: C1_1  and  C21_25 
REMARK    2  A    between atoms: N1_14  and  C13_15 
REMARK    3  A    between atoms: C13_15  and  C14_16 
REMARK    4  A    between atoms: C14_16  and  C15_17 
REMARK    5  A    between atoms: C15_17  and  N2_18 
REMARK    6  A    between atoms: C1_29  and  C21_53 
REMARK    7  A    between atoms: N1_42  and  C13_43 
REMARK    8  A    between atoms: C13_43  and  C14_44 
REMARK    9  A    between atoms: C14_44  and  C15_45 
REMARK   10  A    between atoms: C15_45  and  N2_46 
ROOT
HETATM    1  C1    D T 153       7.628   3.873  -2.639  0.85 32.23     0.073 C 
HETATM    2  C2    D T 153       7.156   5.139  -2.985  0.85 32.23     0.004 C 
HETATM    3  C3    D T 153       7.941   5.946  -3.772  0.85 32.23     0.008 C 
HETATM    4  C4    D T 153       8.957   5.389  -4.528  0.85 32.23     0.045 C 
HETATM    5  C5    D T 153       9.354   4.060  -4.323  0.85 32.23     0.066 C 
HETATM    6  C6    D T 153       8.699   3.300  -3.331  0.85 32.23     0.022 C 
HETATM    7  S     D T 153       9.710   6.397  -5.763  0.85 32.23    -0.084 SA
HETATM    8  C7    D T 153      10.410   5.230  -6.850  0.85 32.23     0.045 C 
HETATM    9  C8    D T 153      10.584   5.609  -8.191  0.85 32.23     0.008 C 
HETATM   10  C9    D T 153      11.022   4.691  -9.125  0.85 32.23     0.001 C 
HETATM   11  C10   D T 153      11.240   3.378  -8.732  0.85 32.23     0.002 C 
HETATM   12  C11   D T 153      11.160   3.043  -7.389  0.85 32.23     0.018 C 
HETATM   13  C12   D T 153      10.783   3.962  -6.380  0.85 32.23     0.066 C 
HETATM   14  N1    D T 153      10.554   3.584  -4.956  0.85 82.40    -0.327 N 
ENDROOT
BRANCH  14  15
HETATM   15  C13   D T 153      11.063   2.303  -4.459  0.85 82.40     0.108 C 
BRANCH  15  16
HETATM   16  C14   D T 153      12.262   2.484  -3.519  0.85 82.40     0.060 C 
BRANCH  16  17
HETATM   17  C15   D T 153      11.980   1.990  -2.087  0.85 82.40     0.252 C 
BRANCH  17  18
HETATM   18  N2    D T 153      12.189   2.956  -1.034  0.85 82.40     0.141 N 
HETATM   19  C16   D T 153      13.477   2.673  -0.470  0.85 82.40     0.285 C 
HETATM   20  C17   D T 153      13.817   3.679   0.520  0.85 82.40     0.285 C 
HETATM   21  N3    D T 153      12.780   4.667   0.599  0.85 82.40     0.143 N 
HETATM   22  C18   D T 153      12.604   5.262  -0.693  0.85 82.40     0.285 C 
HETATM   23  C20   D T 153      13.261   5.698   1.456  0.85 82.40     0.285 C 
HETATM   24  C19   D T 153      12.219   4.251  -1.659  0.85 82.40     0.285 C 
ENDBRANCH  17  18
ENDBRANCH  16  17
ENDBRANCH  15  16
ENDBRANCH  14  15
BRANCH   1  25
HETATM   25  C21   D T 153       7.001   3.153  -1.541  0.85 32.23     0.419 C 
HETATM   26  F1    D T 153       7.300   3.599  -0.358  0.85 32.23    -0.166 F 
HETATM   27  F2    D T 153       7.318   1.908  -1.476  0.85 32.23    -0.166 F 
HETATM   28  F3    D T 153       5.698   3.132  -1.550  0.85 32.23    -0.166 F 
ENDBRANCH   1  25
TORSDOF 10
ENDMDL
MODEL 9
REMARK VINA RESULT:    -5.503      4.859      9.254
REMARK INTER + INTRA:          -8.015
REMARK INTER:                  -7.244
REMARK INTRA:                  -0.771
REMARK UNBOUND:                -0.903
REMARK  10 active torsions:
REMARK  status: ('A' for Active; 'I' for Inactive)
REMARK    1  A    between atoms: C1_1  and  C21_25 
REMARK    2  A    between atoms: N1_14  and  C13_15 
REMARK    3  A    between atoms: C13_15  and  C14_16 
REMARK    4  A    between atoms: C14_16  and  C15_17 
REMARK    5  A    between atoms: C15_17  and  N2_18 
REMARK    6  A    between atoms: C1_29  and  C21_53 
REMARK    7  A    between atoms: N1_42  and  C13_43 
REMARK    8  A    between atoms: C13_43  and  C14_44 
REMARK    9  A    between atoms: C14_44  and  C15_45 
REMARK   10  A    between atoms: C15_45  and  N2_46 
ROOT
HETATM    1  C1    D T 153       5.690  12.407  -2.552  0.85 32.23     0.073 C 
HETATM    2  C2    D T 153       5.786  13.308  -1.491  0.85 32.23     0.004 C 
HETATM    3  C3    D T 153       6.872  13.230  -0.653  0.85 32.23     0.008 C 
HETATM    4  C4    D T 153       8.017  12.574  -1.072  0.85 32.23     0.045 C 
HETATM    5  C5    D T 153       8.005  11.785  -2.231  0.85 32.23     0.066 C 
HETATM    6  C6    D T 153       6.805  11.671  -2.963  0.85 32.23     0.022 C 
HETATM    7  S     D T 153       9.482  12.786  -0.114  0.85 32.23    -0.084 SA
HETATM    8  C7    D T 153      10.748  12.386  -1.240  0.85 32.23     0.045 C 
HETATM    9  C8    D T 153      12.011  12.966  -1.034  0.85 32.23     0.008 C 
HETATM   10  C9    D T 153      13.022  12.782  -1.958  0.85 32.23     0.001 C 
HETATM   11  C10   D T 153      12.760  12.061  -3.114  0.85 32.23     0.002 C 
HETATM   12  C11   D T 153      11.542  11.414  -3.256  0.85 32.23     0.018 C 
HETATM   13  C12   D T 153      10.495  11.511  -2.306  0.85 32.23     0.066 C 
HETATM   14  N1    D T 153       9.134  10.940  -2.511  0.85 82.40    -0.327 N 
ENDROOT
BRANCH  14  15
HETATM   15  C13   D T 153       8.923   9.933  -3.555  0.85 82.40     0.108 C 
BRANCH  15  16
HETATM   16  C14   D T 153       9.376   8.537  -3.110  0.85 82.40     0.060 C 
BRANCH  16  17
HETATM   17  C15   D T 153       8.559   7.405  -3.764  0.85 82.40     0.252 C 
BRANCH  17  18
HETATM   18  N2    D T 153       9.326   6.337  -4.360  0.85 82.40     0.141 N 
HETATM   19  C16   D T 153       9.362   6.598  -5.771  0.85 82.40     0.285 C 
HETATM   20  C17   D T 153      10.220   5.632  -6.433  0.85 82.40     0.285 C 
HETATM   21  N3    D T 153      10.798   4.740  -5.469  0.85 82.40     0.143 N 
HETATM   22  C18   D T 153      11.540   5.508  -4.511  0.85 82.40     0.285 C 
HETATM   23  C20   D T 153      11.748   3.942  -6.168  0.85 82.40     0.285 C 
HETATM   24  C19   D T 153      10.658   6.434  -3.827  0.85 82.40     0.285 C 
ENDBRANCH  17  18
ENDBRANCH  16  17
ENDBRANCH  15  16
ENDBRANCH  14  15
BRANCH   1  25
HETATM   25  C21   D T 153       4.411  12.231  -3.224  0.85 32.23     0.419 C 
HETATM   26  F1    D T 153       3.447  12.965  -2.757  0.85 32.23    -0.166 F 
HETATM   27  F2    D T 153       3.936  11.038  -3.151  0.85 32.23    -0.166 F 
HETATM   28  F3    D T 153       4.406  12.480  -4.503  0.85 32.23    -0.166 F 
ENDBRANCH   1  25
TORSDOF 10
ENDMDL
