MODEL 1
REMARK VINA RESULT:      -7.3      0.000      0.000
REMARK  10 active torsions:
REMARK  status: ('A' for Active; 'I' for Inactive)
REMARK    1  A    between atoms: C1_1  and  C21_25 
REMARK    2  A    between atoms: N1_14  and  C13_15 
REMARK    3  A    between atoms: C13_15  and  C14_16 
REMARK    4  A    between atoms: C14_16  and  C15_17 
REMARK    5  A    between atoms: C15_17  and  N2_18 
REMARK    6  A    between atoms: C1_29  and  C21_53 
REMARK    7  A    between atoms: N1_42  and  C13_43 
REMARK    8  A    between atoms: C13_43  and  C14_44 
REMARK    9  A    between atoms: C14_44  and  C15_45 
REMARK   10  A    between atoms: C15_45  and  N2_46 
ROOT
HETATM    1  C1    D T 153      -7.019  -9.333  19.147  0.85 32.23     0.073 C 
HETATM    2  C2    D T 153      -6.891 -10.561  18.498  0.85 32.23     0.004 C 
HETATM    3  C3    D T 153      -6.125 -11.541  19.082  0.85 32.23     0.008 C 
HETATM    4  C4    D T 153      -5.834 -11.471  20.433  0.85 32.23     0.045 C 
HETATM    5  C5    D T 153      -6.100 -10.304  21.163  0.85 32.23     0.066 C 
HETATM    6  C6    D T 153      -6.669  -9.200  20.493  0.85 32.23     0.022 C 
HETATM    7  S     D T 153      -5.144 -12.901  21.201  0.85 32.23    -0.084 SA
HETATM    8  C7    D T 153      -5.518 -12.663  22.884  0.85 32.23     0.045 C 
HETATM    9  C8    D T 153      -5.639 -13.803  23.694  0.85 32.23     0.008 C 
HETATM   10  C9    D T 153      -6.049 -13.687  25.008  0.85 32.23     0.001 C 
HETATM   11  C10   D T 153      -6.388 -12.436  25.502  0.85 32.23     0.002 C 
HETATM   12  C11   D T 153      -6.170 -11.309  24.722  0.85 32.23     0.018 C 
HETATM   13  C12   D T 153      -5.685 -11.365  23.394  0.85 32.23     0.066 C 
HETATM   14  N1    D T 153      -5.580 -10.180  22.498  0.85 82.40    -0.327 N 
ENDROOT
BRANCH  14  15
HETATM   15  C13   D T 153      -5.635  -8.834  23.072  0.85 82.40     0.108 C 
BRANCH  15  16
HETATM   16  C14   D T 153      -4.272  -8.381  23.613  0.85 82.40     0.060 C 
BRANCH  16  17
HETATM   17  C15   D T 153      -4.282  -6.926  24.119  0.85 82.40     0.252 C 
BRANCH  17  18
HETATM   18  N2    D T 153      -3.093  -6.155  23.845  0.85 82.40     0.141 N 
HETATM   19  C16   D T 153      -3.238  -4.916  24.553  0.85 82.40     0.285 C 
HETATM   20  C17   D T 153      -2.027  -4.126  24.429  0.85 82.40     0.285 C 
HETATM   21  N3    D T 153      -1.043  -4.846  23.670  0.85 82.40     0.143 N 
HETATM   22  C18   D T 153      -0.775  -6.094  24.322  0.85 82.40     0.285 C 
HETATM   23  C20   D T 153       0.161  -4.087  23.737  0.85 82.40     0.285 C 
HETATM   24  C19   D T 153      -1.987  -6.888  24.396  0.85 82.40     0.285 C 
ENDBRANCH  17  18
ENDBRANCH  16  17
ENDBRANCH  15  16
ENDBRANCH  14  15
BRANCH   1  25
HETATM   25  C21   D T 153      -7.512  -8.182  18.403  0.85 32.23     0.419 C 
HETATM   26  F1    D T 153      -7.589  -7.084  19.092  0.85 32.23    -0.166 F 
HETATM   27  F2    D T 153      -8.702  -8.326  17.939  0.85 32.23    -0.166 F 
HETATM   28  F3    D T 153      -6.815  -7.848  17.353  0.85 32.23    -0.166 F 
ENDBRANCH   1  25
TORSDOF 10
ENDMDL
MODEL 2
REMARK VINA RESULT:      -7.2      1.043      1.601
REMARK  10 active torsions:
REMARK  status: ('A' for Active; 'I' for Inactive)
REMARK    1  A    between atoms: C1_1  and  C21_25 
REMARK    2  A    between atoms: N1_14  and  C13_15 
REMARK    3  A    between atoms: C13_15  and  C14_16 
REMARK    4  A    between atoms: C14_16  and  C15_17 
REMARK    5  A    between atoms: C15_17  and  N2_18 
REMARK    6  A    between atoms: C1_29  and  C21_53 
REMARK    7  A    between atoms: N1_42  and  C13_43 
REMARK    8  A    between atoms: C13_43  and  C14_44 
REMARK    9  A    between atoms: C14_44  and  C15_45 
REMARK   10  A    between atoms: C15_45  and  N2_46 
ROOT
HETATM    1  C1    D T 153      -6.949  -9.342  20.281  0.85 32.23     0.073 C 
HETATM    2  C2    D T 153      -6.826 -10.628  19.753  0.85 32.23     0.004 C 
HETATM    3  C3    D T 153      -6.109 -11.565  20.457  0.85 32.23     0.008 C 
HETATM    4  C4    D T 153      -5.871 -11.377  21.807  0.85 32.23     0.045 C 
HETATM    5  C5    D T 153      -6.136 -10.141  22.414  0.85 32.23     0.066 C 
HETATM    6  C6    D T 153      -6.650  -9.092  21.623  0.85 32.23     0.022 C 
HETATM    7  S     D T 153      -5.248 -12.743  22.731  0.85 32.23    -0.084 SA
HETATM    8  C7    D T 153      -5.683 -12.342  24.368  0.85 32.23     0.045 C 
HETATM    9  C8    D T 153      -5.865 -13.399  25.274  0.85 32.23     0.008 C 
HETATM   10  C9    D T 153      -6.325 -13.152  26.553  0.85 32.23     0.001 C 
HETATM   11  C10   D T 153      -6.652 -11.854  26.915  0.85 32.23     0.002 C 
HETATM   12  C11   D T 153      -6.374 -10.810  26.045  0.85 32.23     0.018 C 
HETATM   13  C12   D T 153      -5.838 -10.999  24.749  0.85 32.23     0.066 C 
HETATM   14  N1    D T 153      -5.667  -9.905  23.753  0.85 82.40    -0.327 N 
ENDROOT
BRANCH  14  15
HETATM   15  C13   D T 153      -5.712  -8.510  24.198  0.85 82.40     0.108 C 
BRANCH  15  16
HETATM   16  C14   D T 153      -4.425  -7.751  23.846  0.85 82.40     0.060 C 
BRANCH  16  17
HETATM   17  C15   D T 153      -4.240  -6.468  24.679  0.85 82.40     0.252 C 
BRANCH  17  18
HETATM   18  N2    D T 153      -2.940  -5.845  24.595  0.85 82.40     0.141 N 
HETATM   19  C16   D T 153      -1.987  -6.907  24.452  0.85 82.40     0.285 C 
HETATM   20  C17   D T 153      -0.659  -6.360  24.240  0.85 82.40     0.285 C 
HETATM   21  N3    D T 153      -0.717  -4.925  24.198  0.85 82.40     0.143 N 
HETATM   22  C18   D T 153      -1.609  -4.526  23.149  0.85 82.40     0.285 C 
HETATM   23  C20   D T 153       0.580  -4.475  23.821  0.85 82.40     0.285 C 
HETATM   24  C19   D T 153      -2.940  -5.044  23.403  0.85 82.40     0.285 C 
ENDBRANCH  17  18
ENDBRANCH  16  17
ENDBRANCH  15  16
ENDBRANCH  14  15
BRANCH   1  25
HETATM   25  C21   D T 153      -7.382  -8.255  19.414  0.85 32.23     0.419 C 
HETATM   26  F1    D T 153      -8.403  -8.536  18.661  0.85 32.23    -0.166 F 
HETATM   27  F2    D T 153      -6.492  -7.864  18.573  0.85 32.23    -0.166 F 
HETATM   28  F3    D T 153      -7.731  -7.155  20.020  0.85 32.23    -0.166 F 
ENDBRANCH   1  25
TORSDOF 10
ENDMDL
MODEL 3
REMARK VINA RESULT:      -7.0      4.992      6.297
REMARK  10 active torsions:
REMARK  status: ('A' for Active; 'I' for Inactive)
REMARK    1  A    between atoms: C1_1  and  C21_25 
REMARK    2  A    between atoms: N1_14  and  C13_15 
REMARK    3  A    between atoms: C13_15  and  C14_16 
REMARK    4  A    between atoms: C14_16  and  C15_17 
REMARK    5  A    between atoms: C15_17  and  N2_18 
REMARK    6  A    between atoms: C1_29  and  C21_53 
REMARK    7  A    between atoms: N1_42  and  C13_43 
REMARK    8  A    between atoms: C13_43  and  C14_44 
REMARK    9  A    between atoms: C14_44  and  C15_45 
REMARK   10  A    between atoms: C15_45  and  N2_46 
ROOT
HETATM    1  C1    D T 153      -7.139 -13.365  15.528  0.85 32.23     0.073 C 
HETATM    2  C2    D T 153      -6.175 -14.308  15.172  0.85 32.23     0.004 C 
HETATM    3  C3    D T 153      -5.079 -14.473  15.983  0.85 32.23     0.008 C 
HETATM    4  C4    D T 153      -5.123 -14.034  17.295  0.85 32.23     0.045 C 
HETATM    5  C5    D T 153      -6.169 -13.212  17.739  0.85 32.23     0.066 C 
HETATM    6  C6    D T 153      -7.176 -12.841  16.823  0.85 32.23     0.022 C 
HETATM    7  S     D T 153      -3.838 -14.559  18.382  0.85 32.23    -0.084 SA
HETATM    8  C7    D T 153      -4.553 -14.367  19.958  0.85 32.23     0.045 C 
HETATM    9  C8    D T 153      -4.078 -15.185  20.995  0.85 32.23     0.008 C 
HETATM   10  C9    D T 153      -4.684 -15.162  22.236  0.85 32.23     0.001 C 
HETATM   11  C10   D T 153      -5.799 -14.360  22.430  0.85 32.23     0.002 C 
HETATM   12  C11   D T 153      -6.196 -13.486  21.428  0.85 32.23     0.018 C 
HETATM   13  C12   D T 153      -5.567 -13.417  20.162  0.85 32.23     0.066 C 
HETATM   14  N1    D T 153      -6.068 -12.588  19.031  0.85 82.40    -0.327 N 
ENDROOT
BRANCH  14  15
HETATM   15  C13   D T 153      -7.036 -11.520  19.291  0.85 82.40     0.108 C 
BRANCH  15  16
HETATM   16  C14   D T 153      -6.356 -10.227  19.760  0.85 82.40     0.060 C 
BRANCH  16  17
HETATM   17  C15   D T 153      -7.355  -9.079  20.003  0.85 82.40     0.252 C 
BRANCH  17  18
HETATM   18  N2    D T 153      -7.487  -8.120  18.932  0.85 82.40     0.141 N 
HETATM   19  C16   D T 153      -6.187  -7.990  18.340  0.85 82.40     0.285 C 
HETATM   20  C17   D T 153      -6.255  -7.130  17.172  0.85 82.40     0.285 C 
HETATM   21  N3    D T 153      -7.610  -6.708  16.947  0.85 82.40     0.143 N 
HETATM   22  C18   D T 153      -8.436  -7.868  16.778  0.85 82.40     0.285 C 
HETATM   23  C20   D T 153      -7.622  -6.017  15.702  0.85 82.40     0.285 C 
HETATM   24  C19   D T 153      -8.390  -8.691  17.972  0.85 82.40     0.285 C 
ENDBRANCH  17  18
ENDBRANCH  16  17
ENDBRANCH  15  16
ENDBRANCH  14  15
BRANCH   1  25
HETATM   25  C21   D T 153      -8.104 -12.921  14.532  0.85 32.23     0.419 C 
HETATM   26  F1    D T 153      -7.835 -13.288  13.315  0.85 32.23    -0.166 F 
HETATM   27  F2    D T 153      -8.215 -11.643  14.439  0.85 32.23    -0.166 F 
HETATM   28  F3    D T 153      -9.331 -13.318  14.718  0.85 32.23    -0.166 F 
ENDBRANCH   1  25
TORSDOF 10
ENDMDL
MODEL 4
REMARK VINA RESULT:      -6.9     13.395     15.244
REMARK  10 active torsions:
REMARK  status: ('A' for Active; 'I' for Inactive)
REMARK    1  A    between atoms: C1_1  and  C21_25 
REMARK    2  A    between atoms: N1_14  and  C13_15 
REMARK    3  A    between atoms: C13_15  and  C14_16 
REMARK    4  A    between atoms: C14_16  and  C15_17 
REMARK    5  A    between atoms: C15_17  and  N2_18 
REMARK    6  A    between atoms: C1_29  and  C21_53 
REMARK    7  A    between atoms: N1_42  and  C13_43 
REMARK    8  A    between atoms: C13_43  and  C14_44 
REMARK    9  A    between atoms: C14_44  and  C15_45 
REMARK   10  A    between atoms: C15_45  and  N2_46 
ROOT
HETATM    1  C1    D T 153     -11.893   0.199  24.683  0.85 32.23     0.073 C 
HETATM    2  C2    D T 153     -11.367  -0.967  25.239  0.85 32.23     0.004 C 
HETATM    3  C3    D T 153     -11.233  -1.046  26.604  0.85 32.23     0.008 C 
HETATM    4  C4    D T 153     -11.959  -0.194  27.417  0.85 32.23     0.045 C 
HETATM    5  C5    D T 153     -12.642   0.904  26.872  0.85 32.23     0.066 C 
HETATM    6  C6    D T 153     -12.574   1.123  25.480  0.85 32.23     0.022 C 
HETATM    7  S     D T 153     -12.013  -0.549  29.143  0.85 32.23    -0.084 SA
HETATM    8  C7    D T 153     -13.447   0.285  29.672  0.85 32.23     0.045 C 
HETATM    9  C8    D T 153     -14.110  -0.211  30.805  0.85 32.23     0.008 C 
HETATM   10  C9    D T 153     -15.315   0.334  31.204  0.85 32.23     0.001 C 
HETATM   11  C10   D T 153     -15.886   1.342  30.442  0.85 32.23     0.002 C 
HETATM   12  C11   D T 153     -15.174   1.888  29.384  0.85 32.23     0.018 C 
HETATM   13  C12   D T 153     -13.904   1.415  28.975  0.85 32.23     0.066 C 
HETATM   14  N1    D T 153     -13.192   1.894  27.758  0.85 82.40    -0.327 N 
ENDROOT
BRANCH  14  15
HETATM   15  C13   D T 153     -13.613   3.144  27.121  0.85 82.40     0.108 C 
BRANCH  15  16
HETATM   16  C14   D T 153     -13.118   4.378  27.888  0.85 82.40     0.060 C 
BRANCH  16  17
HETATM   17  C15   D T 153     -13.748   5.690  27.382  0.85 82.40     0.252 C 
BRANCH  17  18
HETATM   18  N2    D T 153     -12.839   6.633  26.774  0.85 82.40     0.141 N 
HETATM   19  C16   D T 153     -13.500   7.906  26.795  0.85 82.40     0.285 C 
HETATM   20  C17   D T 153     -12.604   8.940  26.309  0.85 82.40     0.285 C 
HETATM   21  N3    D T 153     -11.321   8.375  25.996  0.85 82.40     0.143 N 
HETATM   22  C18   D T 153     -10.789   7.748  27.170  0.85 82.40     0.285 C 
HETATM   23  C20   D T 153     -10.457   9.465  25.692  0.85 82.40     0.285 C 
HETATM   24  C19   D T 153     -11.676   6.689  27.614  0.85 82.40     0.285 C 
ENDBRANCH  17  18
ENDBRANCH  16  17
ENDBRANCH  15  16
ENDBRANCH  14  15
BRANCH   1  25
HETATM   25  C21   D T 153     -11.718   0.452  23.260  0.85 32.23     0.419 C 
HETATM   26  F1    D T 153     -12.737   0.129  22.522  0.85 32.23    -0.166 F 
HETATM   27  F2    D T 153     -10.746  -0.199  22.725  0.85 32.23    -0.166 F 
HETATM   28  F3    D T 153     -11.470   1.689  22.932  0.85 32.23    -0.166 F 
ENDBRANCH   1  25
TORSDOF 10
ENDMDL
MODEL 5
REMARK VINA RESULT:      -6.8      9.852     12.397
REMARK  10 active torsions:
REMARK  status: ('A' for Active; 'I' for Inactive)
REMARK    1  A    between atoms: C1_1  and  C21_25 
REMARK    2  A    between atoms: N1_14  and  C13_15 
REMARK    3  A    between atoms: C13_15  and  C14_16 
REMARK    4  A    between atoms: C14_16  and  C15_17 
REMARK    5  A    between atoms: C15_17  and  N2_18 
REMARK    6  A    between atoms: C1_29  and  C21_53 
REMARK    7  A    between atoms: N1_42  and  C13_43 
REMARK    8  A    between atoms: C13_43  and  C14_44 
REMARK    9  A    between atoms: C14_44  and  C15_45 
REMARK   10  A    between atoms: C15_45  and  N2_46 
ROOT
HETATM    1  C1    D T 153     -11.888   0.563  25.376  0.85 32.23     0.073 C 
HETATM    2  C2    D T 153     -12.805   1.521  25.808  0.85 32.23     0.004 C 
HETATM    3  C3    D T 153     -13.128   1.573  27.142  0.85 32.23     0.008 C 
HETATM    4  C4    D T 153     -12.288   0.991  28.076  0.85 32.23     0.045 C 
HETATM    5  C5    D T 153     -11.245   0.146  27.671  0.85 32.23     0.066 C 
HETATM    6  C6    D T 153     -11.068  -0.102  26.293  0.85 32.23     0.022 C 
HETATM    7  S     D T 153     -12.562   1.368  29.776  0.85 32.23    -0.084 SA
HETATM    8  C7    D T 153     -11.023   1.015  30.510  0.85 32.23     0.045 C 
HETATM    9  C8    D T 153     -10.687   1.703  31.687  0.85 32.23     0.008 C 
HETATM   10  C9    D T 153      -9.434   1.554  32.250  0.85 32.23     0.001 C 
HETATM   11  C10   D T 153      -8.496   0.757  31.611  0.85 32.23     0.002 C 
HETATM   12  C11   D T 153      -8.873   0.007  30.506  0.85 32.23     0.018 C 
HETATM   13  C12   D T 153     -10.164   0.068  29.929  0.85 32.23     0.066 C 
HETATM   14  N1    D T 153     -10.541  -0.620  28.663  0.85 82.40    -0.327 N 
ENDROOT
BRANCH  14  15
HETATM   15  C13   D T 153      -9.688  -1.691  28.142  0.85 82.40     0.108 C 
BRANCH  15  16
HETATM   16  C14   D T 153     -10.354  -3.069  28.262  0.85 82.40     0.060 C 
BRANCH  16  17
HETATM   17  C15   D T 153      -9.723  -3.946  29.359  0.85 82.40     0.252 C 
BRANCH  17  18
HETATM   18  N2    D T 153      -8.333  -4.288  29.171  0.85 82.40     0.141 N 
HETATM   19  C16   D T 153      -7.767  -4.428  30.482  0.85 82.40     0.285 C 
HETATM   20  C17   D T 153      -6.394  -4.890  30.385  0.85 82.40     0.285 C 
HETATM   21  N3    D T 153      -6.040  -5.103  29.009  0.85 82.40     0.143 N 
HETATM   22  C18   D T 153      -6.943  -6.059  28.440  0.85 82.40     0.285 C 
HETATM   23  C20   D T 153      -4.752  -5.711  29.008  0.85 82.40     0.285 C 
HETATM   24  C19   D T 153      -8.304  -5.560  28.504  0.85 82.40     0.285 C 
ENDBRANCH  17  18
ENDBRANCH  16  17
ENDBRANCH  15  16
ENDBRANCH  14  15
BRANCH   1  25
HETATM   25  C21   D T 153     -11.799   0.251  23.957  0.85 32.23     0.419 C 
HETATM   26  F1    D T 153     -12.897  -0.202  23.431  0.85 32.23    -0.166 F 
HETATM   27  F2    D T 153     -10.936  -0.658  23.670  0.85 32.23    -0.166 F 
HETATM   28  F3    D T 153     -11.462   1.243  23.181  0.85 32.23    -0.166 F 
ENDBRANCH   1  25
TORSDOF 10
ENDMDL
MODEL 6
REMARK VINA RESULT:      -6.7      1.099      1.401
REMARK  10 active torsions:
REMARK  status: ('A' for Active; 'I' for Inactive)
REMARK    1  A    between atoms: C1_1  and  C21_25 
REMARK    2  A    between atoms: N1_14  and  C13_15 
REMARK    3  A    between atoms: C13_15  and  C14_16 
REMARK    4  A    between atoms: C14_16  and  C15_17 
REMARK    5  A    between atoms: C15_17  and  N2_18 
REMARK    6  A    between atoms: C1_29  and  C21_53 
REMARK    7  A    between atoms: N1_42  and  C13_43 
REMARK    8  A    between atoms: C13_43  and  C14_44 
REMARK    9  A    between atoms: C14_44  and  C15_45 
REMARK   10  A    between atoms: C15_45  and  N2_46 
ROOT
HETATM    1  C1    D T 153      -7.266  -9.157  18.532  0.85 32.23     0.073 C 
HETATM    2  C2    D T 153      -7.650 -10.317  17.859  0.85 32.23     0.004 C 
HETATM    3  C3    D T 153      -7.100 -11.516  18.243  0.85 32.23     0.008 C 
HETATM    4  C4    D T 153      -6.518 -11.636  19.493  0.85 32.23     0.045 C 
HETATM    5  C5    D T 153      -6.263 -10.500  20.275  0.85 32.23     0.066 C 
HETATM    6  C6    D T 153      -6.611  -9.232  19.764  0.85 32.23     0.022 C 
HETATM    7  S     D T 153      -6.133 -13.257  20.069  0.85 32.23    -0.084 SA
HETATM    8  C7    D T 153      -6.048 -13.052  21.795  0.85 32.23     0.045 C 
HETATM    9  C8    D T 153      -6.323 -14.168  22.601  0.85 32.23     0.008 C 
HETATM   10  C9    D T 153      -6.387 -14.040  23.974  0.85 32.23     0.001 C 
HETATM   11  C10   D T 153      -6.227 -12.786  24.545  0.85 32.23     0.002 C 
HETATM   12  C11   D T 153      -5.859 -11.712  23.747  0.85 32.23     0.018 C 
HETATM   13  C12   D T 153      -5.710 -11.803  22.342  0.85 32.23     0.066 C 
HETATM   14  N1    D T 153      -5.455 -10.632  21.457  0.85 82.40    -0.327 N 
ENDROOT
BRANCH  14  15
HETATM   15  C13   D T 153      -4.985  -9.374  22.042  0.85 82.40     0.108 C 
BRANCH  15  16
HETATM   16  C14   D T 153      -6.088  -8.660  22.836  0.85 82.40     0.060 C 
BRANCH  16  17
HETATM   17  C15   D T 153      -5.566  -8.005  24.129  0.85 82.40     0.252 C 
BRANCH  17  18
HETATM   18  N2    D T 153      -4.684  -6.876  23.952  0.85 82.40     0.141 N 
HETATM   19  C16   D T 153      -4.995  -5.948  25.001  0.85 82.40     0.285 C 
HETATM   20  C17   D T 153      -4.067  -4.831  24.969  0.85 82.40     0.285 C 
HETATM   21  N3    D T 153      -3.101  -5.021  23.923  0.85 82.40     0.143 N 
HETATM   22  C18   D T 153      -2.408  -6.256  24.149  0.85 82.40     0.285 C 
HETATM   23  C20   D T 153      -2.136  -3.983  24.065  0.85 82.40     0.285 C 
HETATM   24  C19   D T 153      -3.344  -7.363  24.132  0.85 82.40     0.285 C 
ENDBRANCH  17  18
ENDBRANCH  16  17
ENDBRANCH  15  16
ENDBRANCH  14  15
BRANCH   1  25
HETATM   25  C21   D T 153      -7.545  -7.860  17.931  0.85 32.23     0.419 C 
HETATM   26  F1    D T 153      -7.257  -6.840  18.683  0.85 32.23    -0.166 F 
HETATM   27  F2    D T 153      -8.782  -7.670  17.636  0.85 32.23    -0.166 F 
HETATM   28  F3    D T 153      -6.926  -7.611  16.811  0.85 32.23    -0.166 F 
ENDBRANCH   1  25
TORSDOF 10
ENDMDL
MODEL 7
REMARK VINA RESULT:      -6.5     13.625     15.559
REMARK  10 active torsions:
REMARK  status: ('A' for Active; 'I' for Inactive)
REMARK    1  A    between atoms: C1_1  and  C21_25 
REMARK    2  A    between atoms: N1_14  and  C13_15 
REMARK    3  A    between atoms: C13_15  and  C14_16 
REMARK    4  A    between atoms: C14_16  and  C15_17 
REMARK    5  A    between atoms: C15_17  and  N2_18 
REMARK    6  A    between atoms: C1_29  and  C21_53 
REMARK    7  A    between atoms: N1_42  and  C13_43 
REMARK    8  A    between atoms: C13_43  and  C14_44 
REMARK    9  A    between atoms: C14_44  and  C15_45 
REMARK   10  A    between atoms: C15_45  and  N2_46 
ROOT
HETATM    1  C1    D T 153     -11.810   0.210  24.214  0.85 32.23     0.073 C 
HETATM    2  C2    D T 153     -11.048  -0.841  24.726  0.85 32.23     0.004 C 
HETATM    3  C3    D T 153     -10.795  -0.878  26.075  0.85 32.23     0.008 C 
HETATM    4  C4    D T 153     -11.591  -0.153  26.944  0.85 32.23     0.045 C 
HETATM    5  C5    D T 153     -12.494   0.804  26.457  0.85 32.23     0.066 C 
HETATM    6  C6    D T 153     -12.575   1.013  25.064  0.85 32.23     0.022 C 
HETATM    7  S     D T 153     -11.446  -0.489  28.669  0.85 32.23    -0.084 SA
HETATM    8  C7    D T 153     -12.956   0.092  29.312  0.85 32.23     0.045 C 
HETATM    9  C8    D T 153     -13.433  -0.496  30.494  0.85 32.23     0.008 C 
HETATM   10  C9    D T 153     -14.678  -0.161  30.988  0.85 32.23     0.001 C 
HETATM   11  C10   D T 153     -15.474   0.724  30.274  0.85 32.23     0.002 C 
HETATM   12  C11   D T 153     -14.952   1.370  29.163  0.85 32.23     0.018 C 
HETATM   13  C12   D T 153     -13.655   1.117  28.654  0.85 32.23     0.066 C 
HETATM   14  N1    D T 153     -13.135   1.696  27.384  0.85 82.40    -0.327 N 
ENDROOT
BRANCH  14  15
HETATM   15  C13   D T 153     -13.814   2.846  26.783  0.85 82.40     0.108 C 
BRANCH  15  16
HETATM   16  C14   D T 153     -13.751   4.088  27.683  0.85 82.40     0.060 C 
BRANCH  16  17
HETATM   17  C15   D T 153     -15.080   4.866  27.724  0.85 82.40     0.252 C 
BRANCH  17  18
HETATM   18  N2    D T 153     -16.081   4.456  26.769  0.85 82.40     0.141 N 
HETATM   19  C16   D T 153     -17.113   3.798  27.517  0.85 82.40     0.285 C 
HETATM   20  C17   D T 153     -18.222   3.457  26.643  0.85 82.40     0.285 C 
HETATM   21  N3    D T 153     -17.960   3.920  25.309  0.85 82.40     0.143 N 
HETATM   22  C18   D T 153     -17.751   5.338  25.341  0.85 82.40     0.285 C 
HETATM   23  C20   D T 153     -19.152   3.703  24.560  0.85 82.40     0.285 C 
HETATM   24  C19   D T 153     -16.612   5.655  26.182  0.85 82.40     0.285 C 
ENDBRANCH  17  18
ENDBRANCH  16  17
ENDBRANCH  15  16
ENDBRANCH  14  15
BRANCH   1  25
HETATM   25  C21   D T 153     -11.793   0.470  22.782  0.85 32.23     0.419 C 
HETATM   26  F1    D T 153     -11.766   1.728  22.459  0.85 32.23    -0.166 F 
HETATM   27  F2    D T 153     -12.823   0.025  22.153  0.85 32.23    -0.166 F 
HETATM   28  F3    D T 153     -10.792  -0.046  22.125  0.85 32.23    -0.166 F 
ENDBRANCH   1  25
TORSDOF 10
ENDMDL
MODEL 8
REMARK VINA RESULT:      -6.5      2.139      2.966
REMARK  10 active torsions:
REMARK  status: ('A' for Active; 'I' for Inactive)
REMARK    1  A    between atoms: C1_1  and  C21_25 
REMARK    2  A    between atoms: N1_14  and  C13_15 
REMARK    3  A    between atoms: C13_15  and  C14_16 
REMARK    4  A    between atoms: C14_16  and  C15_17 
REMARK    5  A    between atoms: C15_17  and  N2_18 
REMARK    6  A    between atoms: C1_29  and  C21_53 
REMARK    7  A    between atoms: N1_42  and  C13_43 
REMARK    8  A    between atoms: C13_43  and  C14_44 
REMARK    9  A    between atoms: C14_44  and  C15_45 
REMARK   10  A    between atoms: C15_45  and  N2_46 
ROOT
HETATM    1  C1    D T 153      -6.710  -9.373  19.536  0.85 32.23     0.073 C 
HETATM    2  C2    D T 153      -6.992 -10.665  19.095  0.85 32.23     0.004 C 
HETATM    3  C3    D T 153      -6.468 -11.729  19.788  0.85 32.23     0.008 C 
HETATM    4  C4    D T 153      -6.030 -11.553  21.089  0.85 32.23     0.045 C 
HETATM    5  C5    D T 153      -5.887 -10.267  21.627  0.85 32.23     0.066 C 
HETATM    6  C6    D T 153      -6.199  -9.154  20.818  0.85 32.23     0.022 C 
HETATM    7  S     D T 153      -5.682 -12.996  22.042  0.85 32.23    -0.084 SA
HETATM    8  C7    D T 153      -5.798 -12.421  23.681  0.85 32.23     0.045 C 
HETATM    9  C8    D T 153      -6.142 -13.350  24.676  0.85 32.23     0.008 C 
HETATM   10  C9    D T 153      -6.365 -12.933  25.974  0.85 32.23     0.001 C 
HETATM   11  C10   D T 153      -6.295 -11.580  26.272  0.85 32.23     0.002 C 
HETATM   12  C11   D T 153      -5.858 -10.688  25.303  0.85 32.23     0.018 C 
HETATM   13  C12   D T 153      -5.549 -11.071  23.976  0.85 32.23     0.066 C 
HETATM   14  N1    D T 153      -5.217 -10.107  22.890  0.85 82.40    -0.327 N 
ENDROOT
BRANCH  14  15
HETATM   15  C13   D T 153      -4.841  -8.734  23.233  0.85 82.40     0.108 C 
BRANCH  15  16
HETATM   16  C14   D T 153      -6.053  -7.892  23.653  0.85 82.40     0.060 C 
BRANCH  16  17
HETATM   17  C15   D T 153      -5.690  -6.424  23.948  0.85 82.40     0.252 C 
BRANCH  17  18
HETATM   18  N2    D T 153      -5.960  -5.965  25.290  0.85 82.40     0.141 N 
HETATM   19  C16   D T 153      -6.583  -7.059  25.977  0.85 82.40     0.285 C 
HETATM   20  C17   D T 153      -6.781  -6.721  27.375  0.85 82.40     0.285 C 
HETATM   21  N3    D T 153      -6.254  -5.412  27.647  0.85 82.40     0.143 N 
HETATM   22  C18   D T 153      -4.862  -5.392  27.307  0.85 82.40     0.285 C 
HETATM   23  C20   D T 153      -6.331  -5.226  29.056  0.85 82.40     0.285 C 
HETATM   24  C19   D T 153      -4.688  -5.687  25.897  0.85 82.40     0.285 C 
ENDBRANCH  17  18
ENDBRANCH  16  17
ENDBRANCH  15  16
ENDBRANCH  14  15
BRANCH   1  25
HETATM   25  C21   D T 153      -6.943  -8.248  18.641  0.85 32.23     0.419 C 
HETATM   26  F1    D T 153      -5.900  -7.865  17.967  0.85 32.23    -0.166 F 
HETATM   27  F2    D T 153      -7.324  -7.172  19.234  0.85 32.23    -0.166 F 
HETATM   28  F3    D T 153      -7.858  -8.431  17.730  0.85 32.23    -0.166 F 
ENDBRANCH   1  25
TORSDOF 10
ENDMDL
MODEL 9
REMARK VINA RESULT:      -6.4      4.281      6.493
REMARK  10 active torsions:
REMARK  status: ('A' for Active; 'I' for Inactive)
REMARK    1  A    between atoms: C1_1  and  C21_25 
REMARK    2  A    between atoms: N1_14  and  C13_15 
REMARK    3  A    between atoms: C13_15  and  C14_16 
REMARK    4  A    between atoms: C14_16  and  C15_17 
REMARK    5  A    between atoms: C15_17  and  N2_18 
REMARK    6  A    between atoms: C1_29  and  C21_53 
REMARK    7  A    between atoms: N1_42  and  C13_43 
REMARK    8  A    between atoms: C13_43  and  C14_44 
REMARK    9  A    between atoms: C14_44  and  C15_45 
REMARK   10  A    between atoms: C15_45  and  N2_46 
ROOT
HETATM    1  C1    D T 153      -6.798 -13.339  17.216  0.85 32.23     0.073 C 
HETATM    2  C2    D T 153      -6.742 -14.649  17.692  0.85 32.23     0.004 C 
HETATM    3  C3    D T 153      -5.985 -14.915  18.807  0.85 32.23     0.008 C 
HETATM    4  C4    D T 153      -5.632 -13.885  19.660  0.85 32.23     0.045 C 
HETATM    5  C5    D T 153      -5.825 -12.548  19.284  0.85 32.23     0.066 C 
HETATM    6  C6    D T 153      -6.385 -12.272  18.019  0.85 32.23     0.022 C 
HETATM    7  S     D T 153      -4.958 -14.313  21.232  0.85 32.23    -0.084 SA
HETATM    8  C7    D T 153      -5.248 -12.886  22.186  0.85 32.23     0.045 C 
HETATM    9  C8    D T 153      -5.372 -13.043  23.576  0.85 32.23     0.008 C 
HETATM   10  C9    D T 153      -5.719 -11.969  24.372  0.85 32.23     0.001 C 
HETATM   11  C10   D T 153      -5.993 -10.746  23.777  0.85 32.23     0.002 C 
HETATM   12  C11   D T 153      -5.771 -10.581  22.417  0.85 32.23     0.018 C 
HETATM   13  C12   D T 153      -5.348 -11.630  21.566  0.85 32.23     0.066 C 
HETATM   14  N1    D T 153      -5.242 -11.505  20.085  0.85 82.40    -0.327 N 
ENDROOT
BRANCH  14  15
HETATM   15  C13   D T 153      -5.225 -10.175  19.472  0.85 82.40     0.108 C 
BRANCH  15  16
HETATM   16  C14   D T 153      -6.520  -9.398  19.746  0.85 82.40     0.060 C 
BRANCH  16  17
HETATM   17  C15   D T 153      -6.704  -8.191  18.807  0.85 82.40     0.252 C 
BRANCH  17  18
HETATM   18  N2    D T 153      -7.965  -8.121  18.108  0.85 82.40     0.141 N 
HETATM   19  C16   D T 153      -7.717  -7.406  16.890  0.85 82.40     0.285 C 
HETATM   20  C17   D T 153      -8.913  -7.395  16.066  0.85 82.40     0.285 C 
HETATM   21  N3    D T 153      -9.962  -8.138  16.709  0.85 82.40     0.143 N 
HETATM   22  C18   D T 153      -9.510  -9.479  16.937  0.85 82.40     0.285 C 
HETATM   23  C20   D T 153     -11.033  -8.224  15.774  0.85 82.40     0.285 C 
HETATM   24  C19   D T 153      -8.342  -9.472  17.797  0.85 82.40     0.285 C 
ENDBRANCH  17  18
ENDBRANCH  16  17
ENDBRANCH  15  16
ENDBRANCH  14  15
BRANCH   1  25
HETATM   25  C21   D T 153      -7.284 -13.091  15.866  0.85 32.23     0.419 C 
HETATM   26  F1    D T 153      -6.434 -13.372  14.924  0.85 32.23    -0.166 F 
HETATM   27  F2    D T 153      -7.591 -11.865  15.633  0.85 32.23    -0.166 F 
HETATM   28  F3    D T 153      -8.360 -13.743  15.525  0.85 32.23    -0.166 F 
ENDBRANCH   1  25
TORSDOF 10
ENDMDL
