MODEL 1
REMARK VINA RESULT:      -8.1      0.000      0.000
REMARK  10 active torsions:
REMARK  status: ('A' for Active; 'I' for Inactive)
REMARK    1  A    between atoms: C1_1  and  C21_25 
REMARK    2  A    between atoms: N1_14  and  C13_15 
REMARK    3  A    between atoms: C13_15  and  C14_16 
REMARK    4  A    between atoms: C14_16  and  C15_17 
REMARK    5  A    between atoms: C15_17  and  N2_18 
REMARK    6  A    between atoms: C1_29  and  C21_53 
REMARK    7  A    between atoms: N1_42  and  C13_43 
REMARK    8  A    between atoms: C13_43  and  C14_44 
REMARK    9  A    between atoms: C14_44  and  C15_45 
REMARK   10  A    between atoms: C15_45  and  N2_46 
ROOT
HETATM    1  C1    D T 153     -31.015   3.731   2.145  0.85 32.23     0.073 C 
HETATM    2  C2    D T 153     -29.944   3.472   1.288  0.85 32.23     0.004 C 
HETATM    3  C3    D T 153     -29.829   4.207   0.133  0.85 32.23     0.008 C 
HETATM    4  C4    D T 153     -30.489   5.418   0.021  0.85 32.23     0.045 C 
HETATM    5  C5    D T 153     -31.461   5.793   0.960  0.85 32.23     0.066 C 
HETATM    6  C6    D T 153     -31.754   4.911   2.022  0.85 32.23     0.022 C 
HETATM    7  S     D T 153     -30.049   6.473  -1.321  0.85 32.23    -0.084 SA
HETATM    8  C7    D T 153     -30.569   8.043  -0.775  0.85 32.23     0.045 C 
HETATM    9  C8    D T 153     -29.904   9.166  -1.289  0.85 32.23     0.008 C 
HETATM   10  C9    D T 153     -30.191  10.429  -0.807  0.85 32.23     0.001 C 
HETATM   11  C10   D T 153     -31.107  10.567   0.226  0.85 32.23     0.002 C 
HETATM   12  C11   D T 153     -31.827   9.461   0.654  0.85 32.23     0.018 C 
HETATM   13  C12   D T 153     -31.623   8.156   0.145  0.85 32.23     0.066 C 
HETATM   14  N1    D T 153     -32.286   6.939   0.693  0.85 82.40    -0.327 N 
ENDROOT
BRANCH  14  15
HETATM   15  C13   D T 153     -33.462   7.083   1.555  0.85 82.40     0.108 C 
BRANCH  15  16
HETATM   16  C14   D T 153     -34.721   6.478   0.919  0.85 82.40     0.060 C 
BRANCH  16  17
HETATM   17  C15   D T 153     -35.905   6.391   1.901  0.85 82.40     0.252 C 
BRANCH  17  18
HETATM   18  N2    D T 153     -36.328   5.058   2.262  0.85 82.40     0.141 N 
HETATM   19  C16   D T 153     -35.461   4.628   3.320  0.85 82.40     0.285 C 
HETATM   20  C17   D T 153     -35.895   3.339   3.826  0.85 82.40     0.285 C 
HETATM   21  N3    D T 153     -37.083   2.912   3.140  0.85 82.40     0.143 N 
HETATM   22  C18   D T 153     -38.104   3.902   3.317  0.85 82.40     0.285 C 
HETATM   23  C20   D T 153     -37.538   1.737   3.802  0.85 82.40     0.285 C 
HETATM   24  C19   D T 153     -37.669   5.171   2.764  0.85 82.40     0.285 C 
ENDBRANCH  17  18
ENDBRANCH  16  17
ENDBRANCH  15  16
ENDBRANCH  14  15
BRANCH   1  25
HETATM   25  C21   D T 153     -31.362   2.754   3.167  0.85 32.23     0.419 C 
HETATM   26  F1    D T 153     -30.743   2.908   4.298  0.85 32.23    -0.166 F 
HETATM   27  F2    D T 153     -31.096   1.537   2.846  0.85 32.23    -0.166 F 
HETATM   28  F3    D T 153     -32.622   2.710   3.500  0.85 32.23    -0.166 F 
ENDBRANCH   1  25
TORSDOF 10
ENDMDL
MODEL 2
REMARK VINA RESULT:      -8.0      1.275      1.948
REMARK  10 active torsions:
REMARK  status: ('A' for Active; 'I' for Inactive)
REMARK    1  A    between atoms: C1_1  and  C21_25 
REMARK    2  A    between atoms: N1_14  and  C13_15 
REMARK    3  A    between atoms: C13_15  and  C14_16 
REMARK    4  A    between atoms: C14_16  and  C15_17 
REMARK    5  A    between atoms: C15_17  and  N2_18 
REMARK    6  A    between atoms: C1_29  and  C21_53 
REMARK    7  A    between atoms: N1_42  and  C13_43 
REMARK    8  A    between atoms: C13_43  and  C14_44 
REMARK    9  A    between atoms: C14_44  and  C15_45 
REMARK   10  A    between atoms: C15_45  and  N2_46 
ROOT
HETATM    1  C1    D T 153     -30.928   3.767   2.005  0.85 32.23     0.073 C 
HETATM    2  C2    D T 153     -29.859   3.460   1.162  0.85 32.23     0.004 C 
HETATM    3  C3    D T 153     -29.712   4.168  -0.005  0.85 32.23     0.008 C 
HETATM    4  C4    D T 153     -30.334   5.396  -0.147  0.85 32.23     0.045 C 
HETATM    5  C5    D T 153     -31.302   5.818   0.776  0.85 32.23     0.066 C 
HETATM    6  C6    D T 153     -31.631   4.966   1.852  0.85 32.23     0.022 C 
HETATM    7  S     D T 153     -29.852   6.411  -1.505  0.85 32.23    -0.084 SA
HETATM    8  C7    D T 153     -30.329   8.006  -0.994  0.85 32.23     0.045 C 
HETATM    9  C8    D T 153     -29.627   9.098  -1.524  0.85 32.23     0.008 C 
HETATM   10  C9    D T 153     -29.880  10.378  -1.069  0.85 32.23     0.001 C 
HETATM   11  C10   D T 153     -30.800  10.564  -0.047  0.85 32.23     0.002 C 
HETATM   12  C11   D T 153     -31.557   9.489   0.396  0.85 32.23     0.018 C 
HETATM   13  C12   D T 153     -31.388   8.168  -0.086  0.85 32.23     0.066 C 
HETATM   14  N1    D T 153     -32.090   6.982   0.479  0.85 82.40    -0.327 N 
ENDROOT
BRANCH  14  15
HETATM   15  C13   D T 153     -33.269   7.178   1.327  0.85 82.40     0.108 C 
BRANCH  15  16
HETATM   16  C14   D T 153     -34.566   6.772   0.615  0.85 82.40     0.060 C 
BRANCH  16  17
HETATM   17  C15   D T 153     -35.413   5.778   1.433  0.85 82.40     0.252 C 
BRANCH  17  18
HETATM   18  N2    D T 153     -35.707   6.169   2.791  0.85 82.40     0.141 N 
HETATM   19  C16   D T 153     -36.733   7.168   2.715  0.85 82.40     0.285 C 
HETATM   20  C17   D T 153     -37.175   7.531   4.049  0.85 82.40     0.285 C 
HETATM   21  N3    D T 153     -36.478   6.748   5.031  0.85 82.40     0.143 N 
HETATM   22  C18   D T 153     -36.717   5.358   4.773  0.85 82.40     0.285 C 
HETATM   23  C20   D T 153     -37.081   7.037   6.288  0.85 82.40     0.285 C 
HETATM   24  C19   D T 153     -36.228   5.005   3.454  0.85 82.40     0.285 C 
ENDBRANCH  17  18
ENDBRANCH  16  17
ENDBRANCH  15  16
ENDBRANCH  14  15
BRANCH   1  25
HETATM   25  C21   D T 153     -31.313   2.821   3.042  0.85 32.23     0.419 C 
HETATM   26  F1    D T 153     -31.071   1.576   2.758  0.85 32.23    -0.166 F 
HETATM   27  F2    D T 153     -32.570   2.822   3.318  0.85 32.23    -0.166 F 
HETATM   28  F3    D T 153     -30.748   2.995   4.204  0.85 32.23    -0.166 F 
ENDBRANCH   1  25
TORSDOF 10
ENDMDL
MODEL 3
REMARK VINA RESULT:      -7.6      2.317      3.622
REMARK  10 active torsions:
REMARK  status: ('A' for Active; 'I' for Inactive)
REMARK    1  A    between atoms: C1_1  and  C21_25 
REMARK    2  A    between atoms: N1_14  and  C13_15 
REMARK    3  A    between atoms: C13_15  and  C14_16 
REMARK    4  A    between atoms: C14_16  and  C15_17 
REMARK    5  A    between atoms: C15_17  and  N2_18 
REMARK    6  A    between atoms: C1_29  and  C21_53 
REMARK    7  A    between atoms: N1_42  and  C13_43 
REMARK    8  A    between atoms: C13_43  and  C14_44 
REMARK    9  A    between atoms: C14_44  and  C15_45 
REMARK   10  A    between atoms: C15_45  and  N2_46 
ROOT
HETATM    1  C1    D T 153     -30.922   3.687   1.954  0.85 32.23     0.073 C 
HETATM    2  C2    D T 153     -29.823   3.421   1.138  0.85 32.23     0.004 C 
HETATM    3  C3    D T 153     -29.657   4.158  -0.009  0.85 32.23     0.008 C 
HETATM    4  C4    D T 153     -30.301   5.376  -0.142  0.85 32.23     0.045 C 
HETATM    5  C5    D T 153     -31.305   5.756   0.760  0.85 32.23     0.066 C 
HETATM    6  C6    D T 153     -31.647   4.873   1.807  0.85 32.23     0.022 C 
HETATM    7  S     D T 153     -29.802   6.431  -1.463  0.85 32.23    -0.084 SA
HETATM    8  C7    D T 153     -30.328   8.003  -0.932  0.85 32.23     0.045 C 
HETATM    9  C8    D T 153     -29.634   9.121  -1.417  0.85 32.23     0.008 C 
HETATM   10  C9    D T 153     -29.928  10.385  -0.942  0.85 32.23     0.001 C 
HETATM   11  C10   D T 153     -30.881  10.529   0.056  0.85 32.23     0.002 C 
HETATM   12  C11   D T 153     -31.627   9.428   0.453  0.85 32.23     0.018 C 
HETATM   13  C12   D T 153     -31.416   8.122  -0.052  0.85 32.23     0.066 C 
HETATM   14  N1    D T 153     -32.109   6.910   0.466  0.85 82.40    -0.327 N 
ENDROOT
BRANCH  14  15
HETATM   15  C13   D T 153     -33.316   7.062   1.282  0.85 82.40     0.108 C 
BRANCH  15  16
HETATM   16  C14   D T 153     -34.591   7.090   0.429  0.85 82.40     0.060 C 
BRANCH  16  17
HETATM   17  C15   D T 153     -35.876   7.184   1.274  0.85 82.40     0.252 C 
BRANCH  17  18
HETATM   18  N2    D T 153     -36.622   8.413   1.151  0.85 82.40     0.141 N 
HETATM   19  C16   D T 153     -36.116   9.300   2.159  0.85 82.40     0.285 C 
HETATM   20  C17   D T 153     -36.732  10.607   2.027  0.85 82.40     0.285 C 
HETATM   21  N3    D T 153     -37.627  10.622   0.903  0.85 82.40     0.143 N 
HETATM   22  C18   D T 153     -36.894  10.280  -0.280  0.85 82.40     0.285 C 
HETATM   23  C20   D T 153     -38.056  11.969   0.739  0.85 82.40     0.285 C 
HETATM   24  C19   D T 153     -36.324   8.952  -0.147  0.85 82.40     0.285 C 
ENDBRANCH  17  18
ENDBRANCH  16  17
ENDBRANCH  15  16
ENDBRANCH  14  15
BRANCH   1  25
HETATM   25  C21   D T 153     -31.317   2.709   2.959  0.85 32.23     0.419 C 
HETATM   26  F1    D T 153     -32.587   2.695   3.232  0.85 32.23    -0.166 F 
HETATM   27  F2    D T 153     -30.769   2.882   4.109  0.85 32.23    -0.166 F 
HETATM   28  F3    D T 153     -31.042   1.467   2.676  0.85 32.23    -0.166 F 
ENDBRANCH   1  25
TORSDOF 10
ENDMDL
MODEL 4
REMARK VINA RESULT:      -7.6      2.540      6.903
REMARK  10 active torsions:
REMARK  status: ('A' for Active; 'I' for Inactive)
REMARK    1  A    between atoms: C1_1  and  C21_25 
REMARK    2  A    between atoms: N1_14  and  C13_15 
REMARK    3  A    between atoms: C13_15  and  C14_16 
REMARK    4  A    between atoms: C14_16  and  C15_17 
REMARK    5  A    between atoms: C15_17  and  N2_18 
REMARK    6  A    between atoms: C1_29  and  C21_53 
REMARK    7  A    between atoms: N1_42  and  C13_43 
REMARK    8  A    between atoms: C13_43  and  C14_44 
REMARK    9  A    between atoms: C14_44  and  C15_45 
REMARK   10  A    between atoms: C15_45  and  N2_46 
ROOT
HETATM    1  C1    D T 153     -30.442   4.176   1.088  0.85 32.23     0.073 C 
HETATM    2  C2    D T 153     -30.397   3.095   1.969  0.85 32.23     0.004 C 
HETATM    3  C3    D T 153     -31.236   3.094   3.057  0.85 32.23     0.008 C 
HETATM    4  C4    D T 153     -32.357   3.905   3.061  0.85 32.23     0.045 C 
HETATM    5  C5    D T 153     -32.521   4.903   2.090  0.85 32.23     0.066 C 
HETATM    6  C6    D T 153     -31.522   5.064   1.106  0.85 32.23     0.022 C 
HETATM    7  S     D T 153     -33.570   3.626   4.310  0.85 32.23    -0.084 SA
HETATM    8  C7    D T 153     -35.007   4.335   3.628  0.85 32.23     0.045 C 
HETATM    9  C8    D T 153     -36.246   3.828   4.047  0.85 32.23     0.008 C 
HETATM   10  C9    D T 153     -37.416   4.268   3.457  0.85 32.23     0.001 C 
HETATM   11  C10   D T 153     -37.346   5.178   2.411  0.85 32.23     0.002 C 
HETATM   12  C11   D T 153     -36.124   5.743   2.077  0.85 32.23     0.018 C 
HETATM   13  C12   D T 153     -34.904   5.381   2.697  0.85 32.23     0.066 C 
HETATM   14  N1    D T 153     -33.570   5.872   2.253  0.85 82.40    -0.327 N 
ENDROOT
BRANCH  14  15
HETATM   15  C13   D T 153     -33.486   7.044   1.377  0.85 82.40     0.108 C 
BRANCH  15  16
HETATM   16  C14   D T 153     -32.727   8.204   2.035  0.85 82.40     0.060 C 
BRANCH  16  17
HETATM   17  C15   D T 153     -32.820   9.514   1.230  0.85 82.40     0.252 C 
BRANCH  17  18
HETATM   18  N2    D T 153     -31.593   9.966   0.618  0.85 82.40     0.141 N 
HETATM   19  C16   D T 153     -31.149   8.905  -0.239  0.85 82.40     0.285 C 
HETATM   20  C17   D T 153     -29.979   9.327  -0.988  0.85 82.40     0.285 C 
HETATM   21  N3    D T 153     -29.653  10.689  -0.671  0.85 82.40     0.143 N 
HETATM   22  C18   D T 153     -30.780  11.521  -0.973  0.85 82.40     0.285 C 
HETATM   23  C20   D T 153     -28.612  11.078  -1.561  0.85 82.40     0.285 C 
HETATM   24  C19   D T 153     -31.926  11.113  -0.181  0.85 82.40     0.285 C 
ENDBRANCH  17  18
ENDBRANCH  16  17
ENDBRANCH  15  16
ENDBRANCH  14  15
BRANCH   1  25
HETATM   25  C21   D T 153     -29.344   4.380   0.153  0.85 32.23     0.419 C 
HETATM   26  F1    D T 153     -28.896   3.294  -0.401  0.85 32.23    -0.166 F 
HETATM   27  F2    D T 153     -28.292   4.900   0.679  0.85 32.23    -0.166 F 
HETATM   28  F3    D T 153     -29.600   5.166  -0.855  0.85 32.23    -0.166 F 
ENDBRANCH   1  25
TORSDOF 10
ENDMDL
MODEL 5
REMARK VINA RESULT:      -7.2      3.110      5.698
REMARK  10 active torsions:
REMARK  status: ('A' for Active; 'I' for Inactive)
REMARK    1  A    between atoms: C1_1  and  C21_25 
REMARK    2  A    between atoms: N1_14  and  C13_15 
REMARK    3  A    between atoms: C13_15  and  C14_16 
REMARK    4  A    between atoms: C14_16  and  C15_17 
REMARK    5  A    between atoms: C15_17  and  N2_18 
REMARK    6  A    between atoms: C1_29  and  C21_53 
REMARK    7  A    between atoms: N1_42  and  C13_43 
REMARK    8  A    between atoms: C13_43  and  C14_44 
REMARK    9  A    between atoms: C14_44  and  C15_45 
REMARK   10  A    between atoms: C15_45  and  N2_46 
ROOT
HETATM    1  C1    D T 153     -30.316   3.934   1.014  0.85 32.23     0.073 C 
HETATM    2  C2    D T 153     -30.426   2.795   1.812  0.85 32.23     0.004 C 
HETATM    3  C3    D T 153     -31.270   2.826   2.895  0.85 32.23     0.008 C 
HETATM    4  C4    D T 153     -32.273   3.777   2.958  0.85 32.23     0.045 C 
HETATM    5  C5    D T 153     -32.292   4.856   2.063  0.85 32.23     0.066 C 
HETATM    6  C6    D T 153     -31.269   4.954   1.096  0.85 32.23     0.022 C 
HETATM    7  S     D T 153     -33.526   3.571   4.181  0.85 32.23    -0.084 SA
HETATM    8  C7    D T 153     -34.848   4.513   3.552  0.85 32.23     0.045 C 
HETATM    9  C8    D T 153     -36.148   4.147   3.929  0.85 32.23     0.008 C 
HETATM   10  C9    D T 153     -37.243   4.780   3.371  0.85 32.23     0.001 C 
HETATM   11  C10   D T 153     -37.041   5.747   2.397  0.85 32.23     0.002 C 
HETATM   12  C11   D T 153     -35.751   6.168   2.107  0.85 32.23     0.018 C 
HETATM   13  C12   D T 153     -34.597   5.601   2.701  0.85 32.23     0.066 C 
HETATM   14  N1    D T 153     -33.204   5.942   2.296  0.85 82.40    -0.327 N 
ENDROOT
BRANCH  14  15
HETATM   15  C13   D T 153     -32.956   7.153   1.510  0.85 82.40     0.108 C 
BRANCH  15  16
HETATM   16  C14   D T 153     -32.960   8.417   2.380  0.85 82.40     0.060 C 
BRANCH  16  17
HETATM   17  C15   D T 153     -33.225   9.701   1.570  0.85 82.40     0.252 C 
BRANCH  17  18
HETATM   18  N2    D T 153     -34.569  10.223   1.637  0.85 82.40     0.141 N 
HETATM   19  C16   D T 153     -35.261   9.716   0.488  0.85 82.40     0.285 C 
HETATM   20  C17   D T 153     -36.661  10.097   0.541  0.85 82.40     0.285 C 
HETATM   21  N3    D T 153     -36.929  10.829   1.748  0.85 82.40     0.143 N 
HETATM   22  C18   D T 153     -36.577  10.015   2.874  0.85 82.40     0.285 C 
HETATM   23  C20   D T 153     -38.338  11.017   1.808  0.85 82.40     0.285 C 
HETATM   24  C19   D T 153     -35.165   9.683   2.827  0.85 82.40     0.285 C 
ENDBRANCH  17  18
ENDBRANCH  16  17
ENDBRANCH  15  16
ENDBRANCH  14  15
BRANCH   1  25
HETATM   25  C21   D T 153     -29.191   4.058   0.098  0.85 32.23     0.419 C 
HETATM   26  F1    D T 153     -28.059   4.350   0.665  0.85 32.23    -0.166 F 
HETATM   27  F2    D T 153     -29.327   4.983  -0.785  0.85 32.23    -0.166 F 
HETATM   28  F3    D T 153     -28.923   2.998  -0.613  0.85 32.23    -0.166 F 
ENDBRANCH   1  25
TORSDOF 10
ENDMDL
MODEL 6
REMARK VINA RESULT:      -7.1      2.371      3.149
REMARK  10 active torsions:
REMARK  status: ('A' for Active; 'I' for Inactive)
REMARK    1  A    between atoms: C1_1  and  C21_25 
REMARK    2  A    between atoms: N1_14  and  C13_15 
REMARK    3  A    between atoms: C13_15  and  C14_16 
REMARK    4  A    between atoms: C14_16  and  C15_17 
REMARK    5  A    between atoms: C15_17  and  N2_18 
REMARK    6  A    between atoms: C1_29  and  C21_53 
REMARK    7  A    between atoms: N1_42  and  C13_43 
REMARK    8  A    between atoms: C13_43  and  C14_44 
REMARK    9  A    between atoms: C14_44  and  C15_45 
REMARK   10  A    between atoms: C15_45  and  N2_46 
ROOT
HETATM    1  C1    D T 153     -31.574   3.999   2.690  0.85 32.23     0.073 C 
HETATM    2  C2    D T 153     -30.616   4.295   1.719  0.85 32.23     0.004 C 
HETATM    3  C3    D T 153     -30.968   5.105   0.668  0.85 32.23     0.008 C 
HETATM    4  C4    D T 153     -32.077   5.926   0.775  0.85 32.23     0.045 C 
HETATM    5  C5    D T 153     -32.984   5.769   1.833  0.85 32.23     0.066 C 
HETATM    6  C6    D T 153     -32.744   4.758   2.788  0.85 32.23     0.022 C 
HETATM    7  S     D T 153     -32.294   7.179  -0.446  0.85 32.23    -0.084 SA
HETATM    8  C7    D T 153     -33.338   8.325   0.346  0.85 32.23     0.045 C 
HETATM    9  C8    D T 153     -33.270   9.663  -0.067  0.85 32.23     0.008 C 
HETATM   10  C9    D T 153     -33.986  10.638   0.602  0.85 32.23     0.001 C 
HETATM   11  C10   D T 153     -34.732  10.284   1.717  0.85 32.23     0.002 C 
HETATM   12  C11   D T 153     -34.868   8.945   2.053  0.85 32.23     0.018 C 
HETATM   13  C12   D T 153     -34.213   7.899   1.358  0.85 32.23     0.066 C 
HETATM   14  N1    D T 153     -34.235   6.474   1.792  0.85 82.40    -0.327 N 
ENDROOT
BRANCH  14  15
HETATM   15  C13   D T 153     -35.241   6.029   2.760  0.85 82.40     0.108 C 
BRANCH  15  16
HETATM   16  C14   D T 153     -36.505   5.494   2.075  0.85 82.40     0.060 C 
BRANCH  16  17
HETATM   17  C15   D T 153     -37.723   5.446   3.018  0.85 82.40     0.252 C 
BRANCH  17  18
HETATM   18  N2    D T 153     -37.591   6.175   4.257  0.85 82.40     0.141 N 
HETATM   19  C16   D T 153     -38.359   7.377   4.107  0.85 82.40     0.285 C 
HETATM   20  C17   D T 153     -38.379   8.115   5.356  0.85 82.40     0.285 C 
HETATM   21  N3    D T 153     -37.657   7.394   6.368  0.85 82.40     0.143 N 
HETATM   22  C18   D T 153     -38.250   6.099   6.529  0.85 82.40     0.285 C 
HETATM   23  C20   D T 153     -37.864   8.090   7.592  0.85 82.40     0.285 C 
HETATM   24  C19   D T 153     -38.181   5.360   5.283  0.85 82.40     0.285 C 
ENDBRANCH  17  18
ENDBRANCH  16  17
ENDBRANCH  15  16
ENDBRANCH  14  15
BRANCH   1  25
HETATM   25  C21   D T 153     -31.349   2.883   3.597  0.85 32.23     0.419 C 
HETATM   26  F1    D T 153     -30.438   3.092   4.500  0.85 32.23    -0.166 F 
HETATM   27  F2    D T 153     -30.950   1.805   3.019  0.85 32.23    -0.166 F 
HETATM   28  F3    D T 153     -32.388   2.493   4.281  0.85 32.23    -0.166 F 
ENDBRANCH   1  25
TORSDOF 10
ENDMDL
MODEL 7
REMARK VINA RESULT:      -6.9      4.219      8.215
REMARK  10 active torsions:
REMARK  status: ('A' for Active; 'I' for Inactive)
REMARK    1  A    between atoms: C1_1  and  C21_25 
REMARK    2  A    between atoms: N1_14  and  C13_15 
REMARK    3  A    between atoms: C13_15  and  C14_16 
REMARK    4  A    between atoms: C14_16  and  C15_17 
REMARK    5  A    between atoms: C15_17  and  N2_18 
REMARK    6  A    between atoms: C1_29  and  C21_53 
REMARK    7  A    between atoms: N1_42  and  C13_43 
REMARK    8  A    between atoms: C13_43  and  C14_44 
REMARK    9  A    between atoms: C14_44  and  C15_45 
REMARK   10  A    between atoms: C15_45  and  N2_46 
ROOT
HETATM    1  C1    D T 153     -32.017   9.554   1.288  0.85 32.23     0.073 C 
HETATM    2  C2    D T 153     -32.721   9.565   2.493  0.85 32.23     0.004 C 
HETATM    3  C3    D T 153     -33.381   8.426   2.884  0.85 32.23     0.008 C 
HETATM    4  C4    D T 153     -33.030   7.205   2.334  0.85 32.23     0.045 C 
HETATM    5  C5    D T 153     -32.187   7.141   1.215  0.85 32.23     0.066 C 
HETATM    6  C6    D T 153     -31.703   8.345   0.660  0.85 32.23     0.022 C 
HETATM    7  S     D T 153     -33.659   5.747   3.099  0.85 32.23    -0.084 SA
HETATM    8  C7    D T 153     -32.546   4.515   2.573  0.85 32.23     0.045 C 
HETATM    9  C8    D T 153     -32.383   3.390   3.394  0.85 32.23     0.008 C 
HETATM   10  C9    D T 153     -31.430   2.436   3.091  0.85 32.23     0.001 C 
HETATM   11  C10   D T 153     -30.602   2.631   1.994  0.85 32.23     0.002 C 
HETATM   12  C11   D T 153     -30.842   3.696   1.137  0.85 32.23     0.018 C 
HETATM   13  C12   D T 153     -31.851   4.664   1.362  0.85 32.23     0.066 C 
HETATM   14  N1    D T 153     -32.027   5.887   0.532  0.85 82.40    -0.327 N 
ENDROOT
BRANCH  14  15
HETATM   15  C13   D T 153     -31.388   5.965  -0.785  0.85 82.40     0.108 C 
BRANCH  15  16
HETATM   16  C14   D T 153     -29.856   5.948  -0.685  0.85 82.40     0.060 C 
BRANCH  16  17
HETATM   17  C15   D T 153     -29.177   6.847  -1.736  0.85 82.40     0.252 C 
BRANCH  17  18
HETATM   18  N2    D T 153     -28.675   8.111  -1.253  0.85 82.40     0.141 N 
HETATM   19  C16   D T 153     -27.250   8.073  -1.418  0.85 82.40     0.285 C 
HETATM   20  C17   D T 153     -26.674   9.359  -1.067  0.85 82.40     0.285 C 
HETATM   21  N3    D T 153     -27.711  10.284  -0.704  0.85 82.40     0.143 N 
HETATM   22  C18   D T 153     -28.624  10.414  -1.801  0.85 82.40     0.285 C 
HETATM   23  C20   D T 153     -27.089  11.553  -0.541  0.85 82.40     0.285 C 
HETATM   24  C19   D T 153     -29.223   9.129  -2.107  0.85 82.40     0.285 C 
ENDBRANCH  17  18
ENDBRANCH  16  17
ENDBRANCH  15  16
ENDBRANCH  14  15
BRANCH   1  25
HETATM   25  C21   D T 153     -31.620  10.817   0.683  0.85 32.23     0.419 C 
HETATM   26  F1    D T 153     -30.383  11.153   0.891  0.85 32.23    -0.166 F 
HETATM   27  F2    D T 153     -32.280  11.836   1.108  0.85 32.23    -0.166 F 
HETATM   28  F3    D T 153     -31.754  10.888  -0.612  0.85 32.23    -0.166 F 
ENDBRANCH   1  25
TORSDOF 10
ENDMDL
MODEL 8
REMARK VINA RESULT:      -6.9      2.849      7.048
REMARK  10 active torsions:
REMARK  status: ('A' for Active; 'I' for Inactive)
REMARK    1  A    between atoms: C1_1  and  C21_25 
REMARK    2  A    between atoms: N1_14  and  C13_15 
REMARK    3  A    between atoms: C13_15  and  C14_16 
REMARK    4  A    between atoms: C14_16  and  C15_17 
REMARK    5  A    between atoms: C15_17  and  N2_18 
REMARK    6  A    between atoms: C1_29  and  C21_53 
REMARK    7  A    between atoms: N1_42  and  C13_43 
REMARK    8  A    between atoms: C13_43  and  C14_44 
REMARK    9  A    between atoms: C14_44  and  C15_45 
REMARK   10  A    between atoms: C15_45  and  N2_46 
ROOT
HETATM    1  C1    D T 153     -32.435   3.790   2.993  0.85 32.23     0.073 C 
HETATM    2  C2    D T 153     -33.368   3.219   3.860  0.85 32.23     0.004 C 
HETATM    3  C3    D T 153     -34.224   4.045   4.546  0.85 32.23     0.008 C 
HETATM    4  C4    D T 153     -34.441   5.336   4.098  0.85 32.23     0.045 C 
HETATM    5  C5    D T 153     -33.624   5.894   3.105  0.85 32.23     0.066 C 
HETATM    6  C6    D T 153     -32.576   5.115   2.570  0.85 32.23     0.022 C 
HETATM    7  S     D T 153     -35.784   6.236   4.801  0.85 32.23    -0.084 SA
HETATM    8  C7    D T 153     -36.110   7.456   3.602  0.85 32.23     0.045 C 
HETATM    9  C8    D T 153     -37.412   7.972   3.535  0.85 32.23     0.008 C 
HETATM   10  C9    D T 153     -37.763   8.855   2.530  0.85 32.23     0.001 C 
HETATM   11  C10   D T 153     -36.826   9.183   1.561  0.85 32.23     0.002 C 
HETATM   12  C11   D T 153     -35.517   8.743   1.697  0.85 32.23     0.018 C 
HETATM   13  C12   D T 153     -35.087   7.895   2.746  0.85 32.23     0.066 C 
HETATM   14  N1    D T 153     -33.724   7.301   2.826  0.85 82.40    -0.327 N 
ENDROOT
BRANCH  14  15
HETATM   15  C13   D T 153     -32.643   7.860   2.009  0.85 82.40     0.108 C 
BRANCH  15  16
HETATM   16  C14   D T 153     -32.158   9.214   2.543  0.85 82.40     0.060 C 
BRANCH  16  17
HETATM   17  C15   D T 153     -32.016  10.278   1.437  0.85 82.40     0.252 C 
BRANCH  17  18
HETATM   18  N2    D T 153     -30.680  10.484   0.929  0.85 82.40     0.141 N 
HETATM   19  C16   D T 153     -30.707  10.106  -0.455  0.85 82.40     0.285 C 
HETATM   20  C17   D T 153     -29.428  10.398  -1.075  0.85 82.40     0.285 C 
HETATM   21  N3    D T 153     -28.545  11.014  -0.124  0.85 82.40     0.143 N 
HETATM   22  C18   D T 153     -29.157  12.210   0.374  0.85 82.40     0.285 C 
HETATM   23  C20   D T 153     -27.387  11.420  -0.844  0.85 82.40     0.285 C 
HETATM   24  C19   D T 153     -30.412  11.892   1.030  0.85 82.40     0.285 C 
ENDBRANCH  17  18
ENDBRANCH  16  17
ENDBRANCH  15  16
ENDBRANCH  14  15
BRANCH   1  25
HETATM   25  C21   D T 153     -31.304   2.994   2.539  0.85 32.23     0.419 C 
HETATM   26  F1    D T 153     -31.452   2.461   1.363  0.85 32.23    -0.166 F 
HETATM   27  F2    D T 153     -31.033   1.985   3.289  0.85 32.23    -0.166 F 
HETATM   28  F3    D T 153     -30.166   3.625   2.458  0.85 32.23    -0.166 F 
ENDBRANCH   1  25
TORSDOF 10
ENDMDL
MODEL 9
REMARK VINA RESULT:      -6.8     13.787     16.421
REMARK  10 active torsions:
REMARK  status: ('A' for Active; 'I' for Inactive)
REMARK    1  A    between atoms: C1_1  and  C21_25 
REMARK    2  A    between atoms: N1_14  and  C13_15 
REMARK    3  A    between atoms: C13_15  and  C14_16 
REMARK    4  A    between atoms: C14_16  and  C15_17 
REMARK    5  A    between atoms: C15_17  and  N2_18 
REMARK    6  A    between atoms: C1_29  and  C21_53 
REMARK    7  A    between atoms: N1_42  and  C13_43 
REMARK    8  A    between atoms: C13_43  and  C14_44 
REMARK    9  A    between atoms: C14_44  and  C15_45 
REMARK   10  A    between atoms: C15_45  and  N2_46 
ROOT
HETATM    1  C1    D T 153     -29.846  -8.869   8.837  0.85 32.23     0.073 C 
HETATM    2  C2    D T 153     -31.240  -8.829   8.782  0.85 32.23     0.004 C 
HETATM    3  C3    D T 153     -31.851  -8.735   7.556  0.85 32.23     0.008 C 
HETATM    4  C4    D T 153     -31.153  -9.080   6.412  0.85 32.23     0.045 C 
HETATM    5  C5    D T 153     -29.768  -9.291   6.456  0.85 32.23     0.066 C 
HETATM    6  C6    D T 153     -29.098  -9.145   7.689  0.85 32.23     0.022 C 
HETATM    7  S     D T 153     -32.067  -9.265   4.916  0.85 32.23    -0.084 SA
HETATM    8  C7    D T 153     -31.031 -10.272   3.944  0.85 32.23     0.045 C 
HETATM    9  C8    D T 153     -31.634 -11.073   2.962  0.85 32.23     0.008 C 
HETATM   10  C9    D T 153     -30.879 -11.979   2.241  0.85 32.23     0.001 C 
HETATM   11  C10   D T 153     -29.531 -12.122   2.533  0.85 32.23     0.002 C 
HETATM   12  C11   D T 153     -28.930 -11.255   3.434  0.85 32.23     0.018 C 
HETATM   13  C12   D T 153     -29.642 -10.262   4.150  0.85 32.23     0.066 C 
HETATM   14  N1    D T 153     -29.041  -9.421   5.223  0.85 82.40    -0.327 N 
ENDROOT
BRANCH  14  15
HETATM   15  C13   D T 153     -27.583  -9.332   5.339  0.85 82.40     0.108 C 
BRANCH  15  16
HETATM   16  C14   D T 153     -26.999  -8.234   4.440  0.85 82.40     0.060 C 
BRANCH  16  17
HETATM   17  C15   D T 153     -28.026  -7.141   4.084  0.85 82.40     0.252 C 
BRANCH  17  18
HETATM   18  N2    D T 153     -28.249  -6.921   2.675  0.85 82.40     0.141 N 
HETATM   19  C16   D T 153     -27.656  -8.032   1.989  0.85 82.40     0.285 C 
HETATM   20  C17   D T 153     -27.942  -7.950   0.568  0.85 82.40     0.285 C 
HETATM   21  N3    D T 153     -28.764  -6.805   0.294  0.85 82.40     0.143 N 
HETATM   22  C18   D T 153     -29.975  -6.908   1.054  0.85 82.40     0.285 C 
HETATM   23  C20   D T 153     -29.137  -6.888  -1.077  0.85 82.40     0.285 C 
HETATM   24  C19   D T 153     -29.672  -6.943   2.472  0.85 82.40     0.285 C 
ENDBRANCH  17  18
ENDBRANCH  16  17
ENDBRANCH  15  16
ENDBRANCH  14  15
BRANCH   1  25
HETATM   25  C21   D T 153     -29.175  -8.610  10.103  0.85 32.23     0.419 C 
HETATM   26  F1    D T 153     -29.824  -7.827  10.911  0.85 32.23    -0.166 F 
HETATM   27  F2    D T 153     -28.031  -8.033   9.986  0.85 32.23    -0.166 F 
HETATM   28  F3    D T 153     -28.910  -9.662  10.827  0.85 32.23    -0.166 F 
ENDBRANCH   1  25
TORSDOF 10
ENDMDL
