MODEL 1
REMARK VINA RESULT:      -7.9      0.000      0.000
REMARK  2 active torsions:
REMARK  status: ('A' for Active; 'I' for Inactive)
REMARK    1  A    between atoms: C5_4  and  O7_13 
REMARK    2  A    between atoms: C8_10  and  O7_13 
ROOT
HETATM    1  O7    D T 502       7.366  13.838 143.596  1.00 24.96    -0.304 OA
ENDROOT
BRANCH   1   2
HETATM    2  C5    D T 502       7.493  14.162 142.280  1.00 24.69     0.125 A 
HETATM    3  C6    D T 502       7.634  13.136 141.356  1.00 25.95     0.154 A 
HETATM    4  C1    D T 502       7.688  13.430 139.974  1.00 27.27     0.041 A 
HETATM    5  O17   D T 502       7.752  11.848 141.821  1.00 23.71    -0.188 OA
HETATM    6  C2    D T 502       7.599  14.761 139.547  1.00 21.79     0.060 A 
HETATM    7  C3    D T 502       7.468  15.789 140.481  1.00 27.99     0.014 A 
HETATM    8 CL14   D T 502       7.641  15.135 137.873  1.00  9.14    -0.082 Cl
HETATM    9  C4    D T 502       7.409  15.491 141.860  1.00 29.15     0.028 A 
ENDBRANCH   1   2
BRANCH   1  10
HETATM   10  C8    D T 502       6.219  14.174 144.255  1.00 22.86     0.111 A 
HETATM   11  C9    D T 502       6.331  14.651 145.594  1.00 16.25     0.081 A 
HETATM   12  C10   D T 502       5.168  14.985 146.308  1.00 16.94     0.025 A 
HETATM   13 CL16   D T 502       7.874  14.787 146.364  1.00  2.00    -0.080 Cl
HETATM   14  C11   D T 502       3.897  14.841 145.690  1.00 21.46     0.059 A 
HETATM   15  C12   D T 502       3.789  14.366 144.357  1.00 21.21     0.013 A 
HETATM   16 CL15   D T 502       2.467  15.227 146.580  1.00  9.25    -0.082 Cl
HETATM   17  C13   D T 502       4.952  14.033 143.640  1.00 21.49     0.026 A 
ENDBRANCH   1  10
TORSDOF 2
ENDMDL
MODEL 2
REMARK VINA RESULT:      -7.9      1.580      2.143
REMARK  2 active torsions:
REMARK  status: ('A' for Active; 'I' for Inactive)
REMARK    1  A    between atoms: C5_4  and  O7_13 
REMARK    2  A    between atoms: C8_10  and  O7_13 
ROOT
HETATM    1  O7    D T 502       7.235  14.455 143.769  1.00 24.96    -0.304 OA
ENDROOT
BRANCH   1   2
HETATM    2  C5    D T 502       6.933  13.803 142.613  1.00 24.69     0.125 A 
HETATM    3  C6    D T 502       7.062  14.488 141.413  1.00 25.95     0.154 A 
HETATM    4  C1    D T 502       6.835  13.820 140.188  1.00 27.27     0.041 A 
HETATM    5  O17   D T 502       7.380  15.825 141.454  1.00 23.71    -0.188 OA
HETATM    6  C2    D T 502       6.479  12.465 140.196  1.00 21.79     0.060 A 
HETATM    7  C3    D T 502       6.340  11.785 141.406  1.00 27.99     0.014 A 
HETATM    8 CL14   D T 502       6.220  11.632 138.718  1.00  9.14    -0.082 Cl
HETATM    9  C4    D T 502       6.573  12.454 142.626  1.00 29.15     0.028 A 
ENDBRANCH   1   2
BRANCH   1  10
HETATM   10  C8    D T 502       6.246  14.681 144.682  1.00 22.86     0.111 A 
HETATM   11  C9    D T 502       6.587  14.635 146.066  1.00 16.25     0.081 A 
HETATM   12  C10   D T 502       5.588  14.841 147.032  1.00 16.94     0.025 A 
HETATM   13 CL16   D T 502       8.205  14.290 146.571  1.00  2.00    -0.080 Cl
HETATM   14  C11   D T 502       4.251  15.089 146.619  1.00 21.46     0.059 A 
HETATM   15  C12   D T 502       3.914  15.135 145.241  1.00 21.21     0.013 A 
HETATM   16 CL15   D T 502       3.019  15.315 147.810  1.00  9.25    -0.082 Cl
HETATM   17  C13   D T 502       4.914  14.931 144.273  1.00 21.49     0.026 A 
ENDBRANCH   1  10
TORSDOF 2
ENDMDL
MODEL 3
REMARK VINA RESULT:      -7.8      9.435     12.355
REMARK  2 active torsions:
REMARK  status: ('A' for Active; 'I' for Inactive)
REMARK    1  A    between atoms: C5_4  and  O7_13 
REMARK    2  A    between atoms: C8_10  and  O7_13 
ROOT
HETATM    1  O7    D T 502       5.214  23.033 136.061  1.00 24.96    -0.304 OA
ENDROOT
BRANCH   1   2
HETATM    2  C5    D T 502       6.199  22.150 136.378  1.00 24.69     0.125 A 
HETATM    3  C6    D T 502       7.108  22.497 137.367  1.00 25.95     0.154 A 
HETATM    4  C1    D T 502       8.096  21.573 137.779  1.00 27.27     0.041 A 
HETATM    5  O17   D T 502       7.041  23.762 137.902  1.00 23.71    -0.188 OA
HETATM    6  C2    D T 502       8.149  20.308 137.180  1.00 21.79     0.060 A 
HETATM    7  C3    D T 502       7.240  19.968 136.179  1.00 27.99     0.014 A 
HETATM    8 CL14   D T 502       9.327  19.165 137.682  1.00  9.14    -0.082 Cl
HETATM    9  C4    D T 502       6.252  20.891 135.775  1.00 29.15     0.028 A 
ENDBRANCH   1   2
BRANCH   1  10
HETATM   10  C8    D T 502       4.815  23.146 134.761  1.00 22.86     0.111 A 
HETATM   11  C9    D T 502       5.738  23.692 133.821  1.00 16.25     0.081 A 
HETATM   12  C10   D T 502       5.351  23.841 132.479  1.00 16.94     0.025 A 
HETATM   13 CL16   D T 502       7.313  24.208 134.319  1.00  2.00    -0.080 Cl
HETATM   14  C11   D T 502       4.046  23.451 132.075  1.00 21.46     0.059 A 
HETATM   15  C12   D T 502       3.130  22.907 133.012  1.00 21.21     0.013 A 
HETATM   16 CL15   D T 502       3.564  23.662 130.429  1.00  9.25    -0.082 Cl
HETATM   17  C13   D T 502       3.516  22.755 134.356  1.00 21.49     0.026 A 
ENDBRANCH   1  10
TORSDOF 2
ENDMDL
MODEL 4
REMARK VINA RESULT:      -7.8      1.458      5.971
REMARK  2 active torsions:
REMARK  status: ('A' for Active; 'I' for Inactive)
REMARK    1  A    between atoms: C5_4  and  O7_13 
REMARK    2  A    between atoms: C8_10  and  O7_13 
ROOT
HETATM    1  O7    D T 502       7.310  13.900 143.463  1.00 24.96    -0.304 OA
ENDROOT
BRANCH   1   2
HETATM    2  C5    D T 502       6.208  14.173 144.214  1.00 24.69     0.125 A 
HETATM    3  C6    D T 502       6.386  14.699 145.486  1.00 25.95     0.154 A 
HETATM    4  C1    D T 502       5.266  15.070 146.263  1.00 27.27     0.041 A 
HETATM    5  O17   D T 502       7.667  14.814 145.972  1.00 23.71    -0.188 OA
HETATM    6  C2    D T 502       3.977  14.902 145.741  1.00 21.79     0.060 A 
HETATM    7  C3    D T 502       3.803  14.363 144.466  1.00 27.99     0.014 A 
HETATM    8 CL14   D T 502       2.605  15.368 146.661  1.00  9.14    -0.082 Cl
HETATM    9  C4    D T 502       4.925  13.999 143.691  1.00 29.15     0.028 A 
ENDBRANCH   1   2
BRANCH   1  10
HETATM   10  C8    D T 502       7.306  14.222 142.137  1.00 22.86     0.111 A 
HETATM   11  C9    D T 502       7.225  13.160 141.189  1.00 16.25     0.081 A 
HETATM   12  C10   D T 502       7.242  13.456 139.816  1.00 16.94     0.025 A 
HETATM   13 CL16   D T 502       7.147  11.510 141.707  1.00  2.00    -0.080 Cl
HETATM   14  C11   D T 502       7.342  14.807 139.389  1.00 21.46     0.059 A 
HETATM   15  C12   D T 502       7.421  15.862 140.334  1.00 21.21     0.013 A 
HETATM   16 CL15   D T 502       7.389  15.166 137.699  1.00  9.25    -0.082 Cl
HETATM   17  C13   D T 502       7.403  15.568 141.709  1.00 21.49     0.026 A 
ENDBRANCH   1  10
TORSDOF 2
ENDMDL
MODEL 5
REMARK VINA RESULT:      -7.7      1.861      5.882
REMARK  2 active torsions:
REMARK  status: ('A' for Active; 'I' for Inactive)
REMARK    1  A    between atoms: C5_4  and  O7_13 
REMARK    2  A    between atoms: C8_10  and  O7_13 
ROOT
HETATM    1  O7    D T 502       7.732  14.115 143.703  1.00 24.96    -0.304 OA
ENDROOT
BRANCH   1   2
HETATM    2  C5    D T 502       6.748  14.361 144.610  1.00 24.69     0.125 A 
HETATM    3  C6    D T 502       7.086  14.424 145.954  1.00 25.95     0.154 A 
HETATM    4  C1    D T 502       6.107  14.756 146.918  1.00 27.27     0.041 A 
HETATM    5  O17   D T 502       8.378  14.124 146.318  1.00 23.71    -0.188 OA
HETATM    6  C2    D T 502       4.794  15.019 146.504  1.00 21.79     0.060 A 
HETATM    7  C3    D T 502       4.457  14.944 145.153  1.00 27.99     0.014 A 
HETATM    8 CL14   D T 502       3.596  15.446 147.657  1.00  9.14    -0.082 Cl
HETATM    9  C4    D T 502       5.440  14.618 144.194  1.00 29.15     0.028 A 
ENDBRANCH   1   2
BRANCH   1  10
HETATM   10  C8    D T 502       7.431  13.418 142.568  1.00 22.86     0.111 A 
HETATM   11  C9    D T 502       7.294  14.147 141.350  1.00 16.25     0.081 A 
HETATM   12  C10   D T 502       6.963  13.462 140.169  1.00 16.94     0.025 A 
HETATM   13 CL16   D T 502       7.493  15.865 141.314  1.00  2.00    -0.080 Cl
HETATM   14  C11   D T 502       6.765  12.056 140.202  1.00 21.46     0.059 A 
HETATM   15  C12   D T 502       6.902  11.333 141.416  1.00 21.21     0.013 A 
HETATM   16 CL15   D T 502       6.330  11.221 138.753  1.00  9.25    -0.082 Cl
HETATM   17  C13   D T 502       7.235  12.017 142.599  1.00 21.49     0.026 A 
ENDBRANCH   1  10
TORSDOF 2
ENDMDL
MODEL 6
REMARK VINA RESULT:      -7.6      9.142     11.438
REMARK  2 active torsions:
REMARK  status: ('A' for Active; 'I' for Inactive)
REMARK    1  A    between atoms: C5_4  and  O7_13 
REMARK    2  A    between atoms: C8_10  and  O7_13 
ROOT
HETATM    1  O7    D T 502       4.875  22.423 136.309  1.00 24.96    -0.304 OA
ENDROOT
BRANCH   1   2
HETATM    2  C5    D T 502       4.635  22.666 134.991  1.00 24.69     0.125 A 
HETATM    3  C6    D T 502       3.462  22.182 134.431  1.00 25.95     0.154 A 
HETATM    4  C1    D T 502       3.141  22.483 133.087  1.00 27.27     0.041 A 
HETATM    5  O17   D T 502       2.650  21.384 135.202  1.00 23.71    -0.188 OA
HETATM    6  C2    D T 502       4.016  23.272 132.328  1.00 21.79     0.060 A 
HETATM    7  C3    D T 502       5.199  23.747 132.894  1.00 27.99     0.014 A 
HETATM    8 CL14   D T 502       3.632  23.666 130.703  1.00  9.14    -0.082 Cl
HETATM    9  C4    D T 502       5.513  23.448 134.237  1.00 29.15     0.028 A 
ENDBRANCH   1   2
BRANCH   1  10
HETATM   10  C8    D T 502       5.941  21.646 136.657  1.00 22.86     0.111 A 
HETATM   11  C9    D T 502       6.993  22.247 137.410  1.00 16.25     0.081 A 
HETATM   12  C10   D T 502       8.115  21.480 137.766  1.00 16.94     0.025 A 
HETATM   13 CL16   D T 502       6.923  23.917 137.857  1.00  2.00    -0.080 Cl
HETATM   14  C11   D T 502       8.190  20.118 137.369  1.00 21.46     0.059 A 
HETATM   15  C12   D T 502       7.142  19.522 136.621  1.00 21.21     0.013 A 
HETATM   16 CL15   D T 502       9.584  19.185 137.785  1.00  9.25    -0.082 Cl
HETATM   17  C13   D T 502       6.017  20.288 136.265  1.00 21.49     0.026 A 
ENDBRANCH   1  10
TORSDOF 2
ENDMDL
MODEL 7
REMARK VINA RESULT:      -7.6      9.306     11.513
REMARK  2 active torsions:
REMARK  status: ('A' for Active; 'I' for Inactive)
REMARK    1  A    between atoms: C5_4  and  O7_13 
REMARK    2  A    between atoms: C8_10  and  O7_13 
ROOT
HETATM    1  O7    D T 502       5.798  22.935 135.945  1.00 24.96    -0.304 OA
ENDROOT
BRANCH   1   2
HETATM    2  C5    D T 502       5.237  23.165 134.727  1.00 24.69     0.125 A 
HETATM    3  C6    D T 502       6.039  23.666 133.712  1.00 25.95     0.154 A 
HETATM    4  C1    D T 502       5.511  23.842 132.412  1.00 27.27     0.041 A 
HETATM    5  O17   D T 502       7.335  24.012 134.013  1.00 23.71    -0.188 OA
HETATM    6  C2    D T 502       4.174  23.509 132.159  1.00 21.79     0.060 A 
HETATM    7  C3    D T 502       3.369  23.016 133.186  1.00 27.99     0.014 A 
HETATM    8 CL14   D T 502       3.522  23.695 130.583  1.00  9.14    -0.082 Cl
HETATM    9  C4    D T 502       3.902  22.837 134.481  1.00 29.15     0.028 A 
ENDBRANCH   1   2
BRANCH   1  10
HETATM   10  C8    D T 502       6.088  21.652 136.311  1.00 22.86     0.111 A 
HETATM   11  C9    D T 502       5.311  21.059 137.350  1.00 16.25     0.081 A 
HETATM   12  C10   D T 502       5.598  19.748 137.765  1.00 16.94     0.025 A 
HETATM   13 CL16   D T 502       4.048  21.946 138.132  1.00  2.00    -0.080 Cl
HETATM   14  C11   D T 502       6.658  19.031 137.149  1.00 21.46     0.059 A 
HETATM   15  C12   D T 502       7.429  19.623 136.115  1.00 21.21     0.013 A 
HETATM   16 CL15   D T 502       7.027  17.428 137.681  1.00  9.25    -0.082 Cl
HETATM   17  C13   D T 502       7.142  20.935 135.696  1.00 21.49     0.026 A 
ENDBRANCH   1  10
TORSDOF 2
ENDMDL
MODEL 8
REMARK VINA RESULT:      -7.5      8.956     11.884
REMARK  2 active torsions:
REMARK  status: ('A' for Active; 'I' for Inactive)
REMARK    1  A    between atoms: C5_4  and  O7_13 
REMARK    2  A    between atoms: C8_10  and  O7_13 
ROOT
HETATM    1  O7    D T 502       5.436  22.545 136.040  1.00 24.96    -0.304 OA
ENDROOT
BRANCH   1   2
HETATM    2  C5    D T 502       5.921  21.312 136.349  1.00 24.69     0.125 A 
HETATM    3  C6    D T 502       5.238  20.546 137.283  1.00 25.95     0.154 A 
HETATM    4  C1    D T 502       5.667  19.229 137.570  1.00 27.27     0.041 A 
HETATM    5  O17   D T 502       4.169  21.111 137.936  1.00 23.71    -0.188 OA
HETATM    6  C2    D T 502       6.784  18.707 136.906  1.00 21.79     0.060 A 
HETATM    7  C3    D T 502       7.473  19.485 135.976  1.00 27.99     0.014 A 
HETATM    8 CL14   D T 502       7.305  17.103 137.224  1.00  9.14    -0.082 Cl
HETATM    9  C4    D T 502       7.039  20.797 135.688  1.00 29.15     0.028 A 
ENDBRANCH   1   2
BRANCH   1  10
HETATM   10  C8    D T 502       4.971  22.779 134.779  1.00 22.86     0.111 A 
HETATM   11  C9    D T 502       5.803  23.513 133.883  1.00 16.25     0.081 A 
HETATM   12  C10   D T 502       5.344  23.790 132.584  1.00 16.94     0.025 A 
HETATM   13 CL16   D T 502       7.350  24.101 134.386  1.00  2.00    -0.080 Cl
HETATM   14  C11   D T 502       4.059  23.339 132.180  1.00 21.46     0.059 A 
HETATM   15  C12   D T 502       3.234  22.608 133.074  1.00 21.21     0.013 A 
HETATM   16 CL15   D T 502       3.487  23.705 130.591  1.00  9.25    -0.082 Cl
HETATM   17  C13   D T 502       3.692  22.328 134.374  1.00 21.49     0.026 A 
ENDBRANCH   1  10
TORSDOF 2
ENDMDL
MODEL 9
REMARK VINA RESULT:      -7.5      8.965     11.754
REMARK  2 active torsions:
REMARK  status: ('A' for Active; 'I' for Inactive)
REMARK    1  A    between atoms: C5_4  and  O7_13 
REMARK    2  A    between atoms: C8_10  and  O7_13 
ROOT
HETATM    1  O7    D T 502       5.057  22.360 136.551  1.00 24.96    -0.304 OA
ENDROOT
BRANCH   1   2
HETATM    2  C5    D T 502       6.132  21.561 136.793  1.00 24.69     0.125 A 
HETATM    3  C6    D T 502       7.149  22.046 137.603  1.00 25.95     0.154 A 
HETATM    4  C1    D T 502       8.242  21.216 137.942  1.00 27.27     0.041 A 
HETATM    5  O17   D T 502       7.078  23.350 138.031  1.00 23.71    -0.188 OA
HETATM    6  C2    D T 502       8.290  19.904 137.453  1.00 21.79     0.060 A 
HETATM    7  C3    D T 502       7.270  19.425 136.630  1.00 27.99     0.014 A 
HETATM    8 CL14   D T 502       9.598  18.874 137.871  1.00  9.14    -0.082 Cl
HETATM    9  C4    D T 502       6.178  20.255 136.299  1.00 29.15     0.028 A 
ENDBRANCH   1   2
BRANCH   1  10
HETATM   10  C8    D T 502       4.744  22.680 135.261  1.00 22.86     0.111 A 
HETATM   11  C9    D T 502       3.545  22.142 134.708  1.00 16.25     0.081 A 
HETATM   12  C10   D T 502       3.205  22.434 133.377  1.00 16.94     0.025 A 
HETATM   13 CL16   D T 502       2.523  21.103 135.642  1.00  2.00    -0.080 Cl
HETATM   14  C11   D T 502       4.061  23.257 132.597  1.00 21.46     0.059 A 
HETATM   15  C12   D T 502       5.254  23.792 133.150  1.00 21.21     0.013 A 
HETATM   16 CL15   D T 502       3.654  23.593 130.951  1.00  9.25    -0.082 Cl
HETATM   17  C13   D T 502       5.594  23.502 134.483  1.00 21.49     0.026 A 
ENDBRANCH   1  10
TORSDOF 2
ENDMDL
