MODEL 1
REMARK VINA RESULT:      -8.1      0.000      0.000
REMARK  2 active torsions:
REMARK  status: ('A' for Active; 'I' for Inactive)
REMARK    1  A    between atoms: C5_4  and  O7_13 
REMARK    2  A    between atoms: C8_10  and  O7_13 
ROOT
HETATM    1  O7    D T 502       7.365  13.878 143.613  1.00 24.96    -0.304 OA
ENDROOT
BRANCH   1   2
HETATM    2  C5    D T 502       7.468  14.184 142.291  1.00 24.69     0.125 A 
HETATM    3  C6    D T 502       7.599  13.146 141.379  1.00 25.95     0.154 A 
HETATM    4  C1    D T 502       7.628  13.420 139.992  1.00 27.27     0.041 A 
HETATM    5  O17   D T 502       7.733  11.866 141.861  1.00 23.71    -0.188 OA
HETATM    6  C2    D T 502       7.524  14.745 139.548  1.00 21.79     0.060 A 
HETATM    7  C3    D T 502       7.403  15.785 140.470  1.00 27.99     0.014 A 
HETATM    8 CL14   D T 502       7.535  15.095 137.868  1.00  9.14    -0.082 Cl
HETATM    9  C4    D T 502       7.369  15.506 141.853  1.00 29.15     0.028 A 
ENDBRANCH   1   2
BRANCH   1  10
HETATM   10  C8    D T 502       6.219  14.200 144.282  1.00 22.86     0.111 A 
HETATM   11  C9    D T 502       6.335  14.662 145.626  1.00 16.25     0.081 A 
HETATM   12  C10   D T 502       5.174  14.981 146.350  1.00 16.94     0.025 A 
HETATM   13 CL16   D T 502       7.882  14.798 146.390  1.00  2.00    -0.080 Cl
HETATM   14  C11   D T 502       3.901  14.836 145.736  1.00 21.46     0.059 A 
HETATM   15  C12   D T 502       3.788  14.377 144.398  1.00 21.21     0.013 A 
HETATM   16 CL15   D T 502       2.472  15.203 146.638  1.00  9.25    -0.082 Cl
HETATM   17  C13   D T 502       4.950  14.059 143.671  1.00 21.49     0.026 A 
ENDBRANCH   1  10
TORSDOF 2
ENDMDL
MODEL 2
REMARK VINA RESULT:      -8.0      1.408      2.027
REMARK  2 active torsions:
REMARK  status: ('A' for Active; 'I' for Inactive)
REMARK    1  A    between atoms: C5_4  and  O7_13 
REMARK    2  A    between atoms: C8_10  and  O7_13 
ROOT
HETATM    1  O7    D T 502       7.369  14.151 143.562  1.00 24.96    -0.304 OA
ENDROOT
BRANCH   1   2
HETATM    2  C5    D T 502       7.249  13.480 142.384  1.00 24.69     0.125 A 
HETATM    3  C6    D T 502       7.524  14.158 141.205  1.00 25.95     0.154 A 
HETATM    4  C1    D T 502       7.489  13.474 139.968  1.00 27.27     0.041 A 
HETATM    5  O17   D T 502       7.796  15.504 141.273  1.00 23.71    -0.188 OA
HETATM    6  C2    D T 502       7.172  12.109 139.944  1.00 21.79     0.060 A 
HETATM    7  C3    D T 502       6.885  11.435 141.131  1.00 27.99     0.014 A 
HETATM    8 CL14   D T 502       7.145  11.257 138.455  1.00  9.14    -0.082 Cl
HETATM    9  C4    D T 502       6.928  12.121 142.364  1.00 29.15     0.028 A 
ENDBRANCH   1   2
BRANCH   1  10
HETATM   10  C8    D T 502       6.246  14.422 144.289  1.00 22.86     0.111 A 
HETATM   11  C9    D T 502       6.388  14.621 145.694  1.00 16.25     0.081 A 
HETATM   12  C10   D T 502       5.249  14.880 146.475  1.00 16.94     0.025 A 
HETATM   13 CL16   D T 502       7.938  14.509 146.455  1.00  2.00    -0.080 Cl
HETATM   14  C11   D T 502       3.971  14.937 145.857  1.00 21.46     0.059 A 
HETATM   15  C12   D T 502       3.832  14.739 144.459  1.00 21.21     0.013 A 
HETATM   16 CL15   D T 502       2.569  15.229 146.824  1.00  9.25    -0.082 Cl
HETATM   17  C13   D T 502       4.972  14.482 143.675  1.00 21.49     0.026 A 
ENDBRANCH   1  10
TORSDOF 2
ENDMDL
MODEL 3
REMARK VINA RESULT:      -8.0      1.496      5.962
REMARK  2 active torsions:
REMARK  status: ('A' for Active; 'I' for Inactive)
REMARK    1  A    between atoms: C5_4  and  O7_13 
REMARK    2  A    between atoms: C8_10  and  O7_13 
ROOT
HETATM    1  O7    D T 502       7.364  14.075 143.492  1.00 24.96    -0.304 OA
ENDROOT
BRANCH   1   2
HETATM    2  C5    D T 502       6.216  14.258 144.201  1.00 24.69     0.125 A 
HETATM    3  C6    D T 502       6.310  14.723 145.505  1.00 25.95     0.154 A 
HETATM    4  C1    D T 502       5.138  15.001 146.245  1.00 27.27     0.041 A 
HETATM    5  O17   D T 502       7.560  14.871 146.058  1.00 23.71    -0.188 OA
HETATM    6  C2    D T 502       3.884  14.802 145.652  1.00 21.79     0.060 A 
HETATM    7  C3    D T 502       3.796  14.324 144.345  1.00 27.99     0.014 A 
HETATM    8 CL14   D T 502       2.450  15.156 146.527  1.00  9.14    -0.082 Cl
HETATM    9  C4    D T 502       4.969  14.053 143.608  1.00 29.15     0.028 A 
ENDBRANCH   1   2
BRANCH   1  10
HETATM   10  C8    D T 502       7.350  14.278 142.143  1.00 22.86     0.111 A 
HETATM   11  C9    D T 502       7.335  13.134 141.292  1.00 16.25     0.081 A 
HETATM   12  C10   D T 502       7.343  13.309 139.898  1.00 16.94     0.025 A 
HETATM   13 CL16   D T 502       7.347  11.535 141.952  1.00  2.00    -0.080 Cl
HETATM   14  C11   D T 502       7.369  14.621 139.354  1.00 21.46     0.059 A 
HETATM   15  C12   D T 502       7.383  15.758 140.203  1.00 21.21     0.013 A 
HETATM   16 CL15   D T 502       7.407  14.832 137.639  1.00  9.25    -0.082 Cl
HETATM   17  C13   D T 502       7.373  15.585 141.598  1.00 21.49     0.026 A 
ENDBRANCH   1  10
TORSDOF 2
ENDMDL
MODEL 4
REMARK VINA RESULT:      -7.9      7.055      9.476
REMARK  2 active torsions:
REMARK  status: ('A' for Active; 'I' for Inactive)
REMARK    1  A    between atoms: C5_4  and  O7_13 
REMARK    2  A    between atoms: C8_10  and  O7_13 
ROOT
HETATM    1  O7    D T 502       6.958  19.515 137.780  1.00 24.96    -0.304 OA
ENDROOT
BRANCH   1   2
HETATM    2  C5    D T 502       7.760  18.416 137.825  1.00 24.69     0.125 A 
HETATM    3  C6    D T 502       9.088  18.579 138.194  1.00 25.95     0.154 A 
HETATM    4  C1    D T 502       9.929  17.451 138.329  1.00 27.27     0.041 A 
HETATM    5  O17   D T 502       9.561  19.855 138.388  1.00 23.71    -0.188 OA
HETATM    6  C2    D T 502       9.413  16.171 138.087  1.00 21.79     0.060 A 
HETATM    7  C3    D T 502       8.080  16.015 137.706  1.00 27.99     0.014 A 
HETATM    8 CL14   D T 502      10.414  14.789 138.268  1.00  9.14    -0.082 Cl
HETATM    9  C4    D T 502       7.242  17.143 137.578  1.00 29.15     0.028 A 
ENDBRANCH   1   2
BRANCH   1  10
HETATM   10  C8    D T 502       6.968  20.300 136.663  1.00 22.86     0.111 A 
HETATM   11  C9    D T 502       6.812  21.707 136.831  1.00 16.25     0.081 A 
HETATM   12  C10   D T 502       6.795  22.540 135.700  1.00 16.94     0.025 A 
HETATM   13 CL16   D T 502       6.602  22.397 138.403  1.00  2.00    -0.080 Cl
HETATM   14  C11   D T 502       6.931  21.971 134.405  1.00 21.46     0.059 A 
HETATM   15  C12   D T 502       7.088  20.571 134.241  1.00 21.21     0.013 A 
HETATM   16 CL15   D T 502       6.884  22.996 133.014  1.00  9.25    -0.082 Cl
HETATM   17  C13   D T 502       7.107  19.735 135.372  1.00 21.49     0.026 A 
ENDBRANCH   1  10
TORSDOF 2
ENDMDL
MODEL 5
REMARK VINA RESULT:      -7.8      5.983      8.100
REMARK  2 active torsions:
REMARK  status: ('A' for Active; 'I' for Inactive)
REMARK    1  A    between atoms: C5_4  and  O7_13 
REMARK    2  A    between atoms: C8_10  and  O7_13 
ROOT
HETATM    1  O7    D T 502       7.535  18.474 138.936  1.00 24.96    -0.304 OA
ENDROOT
BRANCH   1   2
HETATM    2  C5    D T 502       8.344  17.390 138.785  1.00 24.69     0.125 A 
HETATM    3  C6    D T 502       7.774  16.126 138.835  1.00 25.95     0.154 A 
HETATM    4  C1    D T 502       8.568  14.980 138.603  1.00 27.27     0.041 A 
HETATM    5  O17   D T 502       6.439  16.023 139.146  1.00 23.71    -0.188 OA
HETATM    6  C2    D T 502       9.933  15.131 138.324  1.00 21.79     0.060 A 
HETATM    7  C3    D T 502      10.503  16.404 138.286  1.00 27.99     0.014 A 
HETATM    8 CL14   D T 502      10.909  13.753 138.017  1.00  9.14    -0.082 Cl
HETATM    9  C4    D T 502       9.705  17.546 138.513  1.00 29.15     0.028 A 
ENDBRANCH   1   2
BRANCH   1  10
HETATM   10  C8    D T 502       7.406  19.355 137.902  1.00 22.86     0.111 A 
HETATM   11  C9    D T 502       7.633  20.738 138.165  1.00 16.25     0.081 A 
HETATM   12  C10   D T 502       7.486  21.673 137.128  1.00 16.94     0.025 A 
HETATM   13 CL16   D T 502       8.049  21.283 139.754  1.00  2.00    -0.080 Cl
HETATM   14  C11   D T 502       7.110  21.232 135.831  1.00 21.46     0.059 A 
HETATM   15  C12   D T 502       6.885  19.855 135.571  1.00 21.21     0.013 A 
HETATM   16 CL15   D T 502       6.904  22.388 134.563  1.00  9.25    -0.082 Cl
HETATM   17  C13   D T 502       7.033  18.917 136.608  1.00 21.49     0.026 A 
ENDBRANCH   1  10
TORSDOF 2
ENDMDL
MODEL 6
REMARK VINA RESULT:      -7.6      5.932      8.092
REMARK  2 active torsions:
REMARK  status: ('A' for Active; 'I' for Inactive)
REMARK    1  A    between atoms: C5_4  and  O7_13 
REMARK    2  A    between atoms: C8_10  and  O7_13 
ROOT
HETATM    1  O7    D T 502       8.156  18.425 138.865  1.00 24.96    -0.304 OA
ENDROOT
BRANCH   1   2
HETATM    2  C5    D T 502       8.118  17.079 138.671  1.00 24.69     0.125 A 
HETATM    3  C6    D T 502       9.318  16.389 138.577  1.00 25.95     0.154 A 
HETATM    4  C1    D T 502       9.319  14.980 138.456  1.00 27.27     0.041 A 
HETATM    5  O17   D T 502      10.488  17.110 138.572  1.00 23.71    -0.188 OA
HETATM    6  C2    D T 502       8.100  14.289 138.430  1.00 21.79     0.060 A 
HETATM    7  C3    D T 502       6.897  14.989 138.514  1.00 27.99     0.014 A 
HETATM    8 CL14   D T 502       8.082  12.578 138.306  1.00  9.14    -0.082 Cl
HETATM    9  C4    D T 502       6.901  16.395 138.640  1.00 29.15     0.028 A 
ENDBRANCH   1   2
BRANCH   1  10
HETATM   10  C8    D T 502       7.859  19.255 137.823  1.00 22.86     0.111 A 
HETATM   11  C9    D T 502       7.205  20.489 138.112  1.00 16.25     0.081 A 
HETATM   12  C10   D T 502       6.866  21.355 137.060  1.00 16.94     0.025 A 
HETATM   13 CL16   D T 502       6.788  20.914 139.737  1.00  2.00    -0.080 Cl
HETATM   14  C11   D T 502       7.176  20.992 135.722  1.00 21.46     0.059 A 
HETATM   15  C12   D T 502       7.828  19.765 135.436  1.00 21.21     0.013 A 
HETATM   16 CL15   D T 502       6.734  22.048 134.427  1.00  9.25    -0.082 Cl
HETATM   17  C13   D T 502       8.170  18.896 136.489  1.00 21.49     0.026 A 
ENDBRANCH   1  10
TORSDOF 2
ENDMDL
MODEL 7
REMARK VINA RESULT:      -7.5      5.679      8.031
REMARK  2 active torsions:
REMARK  status: ('A' for Active; 'I' for Inactive)
REMARK    1  A    between atoms: C5_4  and  O7_13 
REMARK    2  A    between atoms: C8_10  and  O7_13 
ROOT
HETATM    1  O7    D T 502       7.682  18.287 139.108  1.00 24.96    -0.304 OA
ENDROOT
BRANCH   1   2
HETATM    2  C5    D T 502       7.451  19.193 138.118  1.00 24.69     0.125 A 
HETATM    3  C6    D T 502       7.775  20.522 138.348  1.00 25.95     0.154 A 
HETATM    4  C1    D T 502       7.625  21.477 137.316  1.00 27.27     0.041 A 
HETATM    5  O17   D T 502       8.209  20.882 139.602  1.00 23.71    -0.188 OA
HETATM    6  C2    D T 502       7.146  21.070 136.064  1.00 21.79     0.060 A 
HETATM    7  C3    D T 502       6.811  19.734 135.842  1.00 27.99     0.014 A 
HETATM    8 CL14   D T 502       6.977  22.211 134.793  1.00  9.14    -0.082 Cl
HETATM    9  C4    D T 502       6.968  18.783 136.874  1.00 29.15     0.028 A 
ENDBRANCH   1   2
BRANCH   1  10
HETATM   10  C8    D T 502       8.476  17.208 138.849  1.00 22.86     0.111 A 
HETATM   11  C9    D T 502       7.896  15.909 138.946  1.00 16.25     0.081 A 
HETATM   12  C10   D T 502       8.692  14.776 138.707  1.00 16.94     0.025 A 
HETATM   13 CL16   D T 502       6.236  15.708 139.391  1.00  2.00    -0.080 Cl
HETATM   14  C11   D T 502      10.064  14.938 138.375  1.00 21.46     0.059 A 
HETATM   15  C12   D T 502      10.639  16.232 138.279  1.00 21.21     0.013 A 
HETATM   16 CL15   D T 502      11.047  13.542 138.109  1.00  9.25    -0.082 Cl
HETATM   17  C13   D T 502       9.843  17.367 138.516  1.00 21.49     0.026 A 
ENDBRANCH   1  10
TORSDOF 2
ENDMDL
MODEL 8
REMARK VINA RESULT:      -7.3      4.877      7.182
REMARK  2 active torsions:
REMARK  status: ('A' for Active; 'I' for Inactive)
REMARK    1  A    between atoms: C5_4  and  O7_13 
REMARK    2  A    between atoms: C8_10  and  O7_13 
ROOT
HETATM    1  O7    D T 502       8.587  17.931 138.355  1.00 24.96    -0.304 OA
ENDROOT
BRANCH   1   2
HETATM    2  C5    D T 502       8.090  18.961 137.617  1.00 24.69     0.125 A 
HETATM    3  C6    D T 502       8.202  20.250 138.119  1.00 25.95     0.154 A 
HETATM    4  C1    D T 502       7.771  21.352 137.346  1.00 27.27     0.041 A 
HETATM    5  O17   D T 502       8.707  20.416 139.387  1.00 23.71    -0.188 OA
HETATM    6  C2    D T 502       7.230  21.132 136.072  1.00 21.79     0.060 A 
HETATM    7  C3    D T 502       7.110  19.834 135.577  1.00 27.99     0.014 A 
HETATM    8 CL14   D T 502       6.722  22.460 135.110  1.00  9.14    -0.082 Cl
HETATM    9  C4    D T 502       7.547  18.737 136.350  1.00 29.15     0.028 A 
ENDBRANCH   1   2
BRANCH   1  10
HETATM   10  C8    D T 502       7.721  17.034 138.910  1.00 22.86     0.111 A 
HETATM   11  C9    D T 502       7.599  15.752 138.298  1.00 16.25     0.081 A 
HETATM   12  C10   D T 502       6.700  14.813 138.831  1.00 16.94     0.025 A 
HETATM   13 CL16   D T 502       8.514  15.351 136.885  1.00  2.00    -0.080 Cl
HETATM   14  C11   D T 502       5.922  15.153 139.970  1.00 21.46     0.059 A 
HETATM   15  C12   D T 502       6.046  16.430 140.578  1.00 21.21     0.013 A 
HETATM   16 CL15   D T 502       4.797  14.006 140.608  1.00  9.25    -0.082 Cl
HETATM   17  C13   D T 502       6.946  17.370 140.046  1.00 21.49     0.026 A 
ENDBRANCH   1  10
TORSDOF 2
ENDMDL
MODEL 9
REMARK VINA RESULT:      -7.3      2.047      2.784
REMARK  2 active torsions:
REMARK  status: ('A' for Active; 'I' for Inactive)
REMARK    1  A    between atoms: C5_4  and  O7_13 
REMARK    2  A    between atoms: C8_10  and  O7_13 
ROOT
HETATM    1  O7    D T 502       5.969  13.973 141.132  1.00 24.96    -0.304 OA
ENDROOT
BRANCH   1   2
HETATM    2  C5    D T 502       6.769  14.854 140.473  1.00 24.69     0.125 A 
HETATM    3  C6    D T 502       7.882  14.366 139.804  1.00 25.95     0.154 A 
HETATM    4  C1    D T 502       8.692  15.240 139.042  1.00 27.27     0.041 A 
HETATM    5  O17   D T 502       8.188  13.032 139.930  1.00 23.71    -0.188 OA
HETATM    6  C2    D T 502       8.361  16.600 138.970  1.00 21.79     0.060 A 
HETATM    7  C3    D T 502       7.247  17.087 139.654  1.00 27.99     0.014 A 
HETATM    8 CL14   D T 502       9.319  17.672 138.033  1.00  9.14    -0.082 Cl
HETATM    9  C4    D T 502       6.439  16.210 140.408  1.00 29.15     0.028 A 
ENDBRANCH   1   2
BRANCH   1  10
HETATM   10  C8    D T 502       5.710  14.172 142.457  1.00 22.86     0.111 A 
HETATM   11  C9    D T 502       4.348  14.204 142.878  1.00 16.25     0.081 A 
HETATM   12  C10   D T 502       4.048  14.429 144.232  1.00 16.94     0.025 A 
HETATM   13 CL16   D T 502       3.061  14.007 141.739  1.00  2.00    -0.080 Cl
HETATM   14  C11   D T 502       5.103  14.626 145.163  1.00 21.46     0.059 A 
HETATM   15  C12   D T 502       6.457  14.594 144.742  1.00 21.21     0.013 A 
HETATM   16 CL15   D T 502       4.729  14.931 146.823  1.00  9.25    -0.082 Cl
HETATM   17  C13   D T 502       6.760  14.366 143.387  1.00 21.49     0.026 A 
ENDBRANCH   1  10
TORSDOF 2
ENDMDL
