MODEL 1
REMARK VINA RESULT:      -7.3      0.000      0.000
REMARK  2 active torsions:
REMARK  status: ('A' for Active; 'I' for Inactive)
REMARK    1  A    between atoms: C5_4  and  O7_13 
REMARK    2  A    between atoms: C8_10  and  O7_13 
ROOT
HETATM    1  O7    D T 502       6.659   5.743   3.398  1.00 24.96    -0.304 OA
ENDROOT
BRANCH   1   2
HETATM    2  C5    D T 502       7.344   4.641   3.807  1.00 24.69     0.125 A 
HETATM    3  C6    D T 502       6.669   3.673   4.536  1.00 25.95     0.154 A 
HETATM    4  C1    D T 502       7.328   2.479   4.909  1.00 27.27     0.041 A 
HETATM    5  O17   D T 502       5.369   3.923   4.908  1.00 23.71    -0.188 OA
HETATM    6  C2    D T 502       8.665   2.283   4.539  1.00 21.79     0.060 A 
HETATM    7  C3    D T 502       9.342   3.264   3.815  1.00 27.99     0.014 A 
HETATM    8 CL14   D T 502       9.473   0.830   4.964  1.00  9.14    -0.082 Cl
HETATM    9  C4    D T 502       8.678   4.452   3.440  1.00 29.15     0.028 A 
ENDBRANCH   1   2
BRANCH   1  10
HETATM   10  C8    D T 502       6.473   5.951   2.062  1.00 22.86     0.111 A 
HETATM   11  C9    D T 502       7.009   7.142   1.488  1.00 16.25     0.081 A 
HETATM   12  C10   D T 502       6.815   7.398   0.120  1.00 16.94     0.025 A 
HETATM   13 CL16   D T 502       7.857   8.294   2.461  1.00  2.00    -0.080 Cl
HETATM   14  C11   D T 502       6.088   6.470  -0.673  1.00 21.46     0.059 A 
HETATM   15  C12   D T 502       5.557   5.287  -0.100  1.00 21.21     0.013 A 
HETATM   16 CL15   D T 502       5.829   6.801  -2.350  1.00  9.25    -0.082 Cl
HETATM   17  C13   D T 502       5.751   5.028   1.269  1.00 21.49     0.026 A 
ENDBRANCH   1  10
TORSDOF 2
ENDMDL
MODEL 2
REMARK VINA RESULT:      -7.2      5.432      7.961
REMARK  2 active torsions:
REMARK  status: ('A' for Active; 'I' for Inactive)
REMARK    1  A    between atoms: C5_4  and  O7_13 
REMARK    2  A    between atoms: C8_10  and  O7_13 
ROOT
HETATM    1  O7    D T 502       4.778   3.550  -2.490  1.00 24.96    -0.304 OA
ENDROOT
BRANCH   1   2
HETATM    2  C5    D T 502       4.427   4.803  -2.091  1.00 24.69     0.125 A 
HETATM    3  C6    D T 502       5.346   5.550  -1.369  1.00 25.95     0.154 A 
HETATM    4  C1    D T 502       5.047   6.884  -1.007  1.00 27.27     0.041 A 
HETATM    5  O17   D T 502       6.525   4.951  -0.992  1.00 23.71    -0.188 OA
HETATM    6  C2    D T 502       3.818   7.442  -1.382  1.00 21.79     0.060 A 
HETATM    7  C3    D T 502       2.894   6.682  -2.100  1.00 27.99     0.014 A 
HETATM    8 CL14   D T 502       3.447   9.066  -0.971  1.00  9.14    -0.082 Cl
HETATM    9  C4    D T 502       3.199   5.353  -2.463  1.00 29.15     0.028 A 
ENDBRANCH   1   2
BRANCH   1  10
HETATM   10  C8    D T 502       4.718   3.234  -3.816  1.00 22.86     0.111 A 
HETATM   11  C9    D T 502       4.158   1.973  -4.180  1.00 16.25     0.081 A 
HETATM   12  C10   D T 502       4.103   1.607  -5.535  1.00 16.94     0.025 A 
HETATM   13 CL16   D T 502       3.585   0.873  -2.974  1.00  2.00    -0.080 Cl
HETATM   14  C11   D T 502       4.606   2.495  -6.525  1.00 21.46     0.059 A 
HETATM   15  C12   D T 502       5.161   3.747  -6.160  1.00 21.21     0.013 A 
HETATM   16 CL15   D T 502       4.560   2.030  -8.189  1.00  9.25    -0.082 Cl
HETATM   17  C13   D T 502       5.216   4.116  -4.804  1.00 21.49     0.026 A 
ENDBRANCH   1  10
TORSDOF 2
ENDMDL
MODEL 3
REMARK VINA RESULT:      -7.1      4.846      7.787
REMARK  2 active torsions:
REMARK  status: ('A' for Active; 'I' for Inactive)
REMARK    1  A    between atoms: C5_4  and  O7_13 
REMARK    2  A    between atoms: C8_10  and  O7_13 
ROOT
HETATM    1  O7    D T 502       3.901   4.595  -2.817  1.00 24.96    -0.304 OA
ENDROOT
BRANCH   1   2
HETATM    2  C5    D T 502       4.145   3.910  -3.968  1.00 24.69     0.125 A 
HETATM    3  C6    D T 502       3.581   2.652  -4.122  1.00 25.95     0.154 A 
HETATM    4  C1    D T 502       3.747   1.945  -5.336  1.00 27.27     0.041 A 
HETATM    5  O17   D T 502       2.896   2.107  -3.062  1.00 23.71    -0.188 OA
HETATM    6  C2    D T 502       4.484   2.524  -6.378  1.00 21.79     0.060 A 
HETATM    7  C3    D T 502       5.056   3.785  -6.212  1.00 27.99     0.014 A 
HETATM    8 CL14   D T 502       4.676   1.690  -7.864  1.00  9.14    -0.082 Cl
HETATM    9  C4    D T 502       4.884   4.489  -5.001  1.00 29.15     0.028 A 
ENDBRANCH   1   2
BRANCH   1  10
HETATM   10  C8    D T 502       4.936   4.851  -1.965  1.00 22.86     0.111 A 
HETATM   11  C9    D T 502       5.450   6.180  -1.916  1.00 16.25     0.081 A 
HETATM   12  C10   D T 502       6.530   6.472  -1.066  1.00 16.94     0.025 A 
HETATM   13 CL16   D T 502       4.790   7.427  -2.917  1.00  2.00    -0.080 Cl
HETATM   14  C11   D T 502       7.097   5.441  -0.269  1.00 21.46     0.059 A 
HETATM   15  C12   D T 502       6.583   4.120  -0.320  1.00 21.21     0.013 A 
HETATM   16 CL15   D T 502       8.443   5.798   0.755  1.00  9.25    -0.082 Cl
HETATM   17  C13   D T 502       5.501   3.826  -1.169  1.00 21.49     0.026 A 
ENDBRANCH   1  10
TORSDOF 2
ENDMDL
MODEL 4
REMARK VINA RESULT:      -6.9      5.119      7.930
REMARK  2 active torsions:
REMARK  status: ('A' for Active; 'I' for Inactive)
REMARK    1  A    between atoms: C5_4  and  O7_13 
REMARK    2  A    between atoms: C8_10  and  O7_13 
ROOT
HETATM    1  O7    D T 502       4.201   3.779  -2.691  1.00 24.96    -0.304 OA
ENDROOT
BRANCH   1   2
HETATM    2  C5    D T 502       4.352   3.310  -3.959  1.00 24.69     0.125 A 
HETATM    3  C6    D T 502       3.744   2.110  -4.299  1.00 25.95     0.154 A 
HETATM    4  C1    D T 502       3.812   1.633  -5.628  1.00 27.27     0.041 A 
HETATM    5  O17   D T 502       3.112   1.394  -3.310  1.00 23.71    -0.188 OA
HETATM    6  C2    D T 502       4.498   2.379  -6.596  1.00 21.79     0.060 A 
HETATM    7  C3    D T 502       5.115   3.580  -6.246  1.00 27.99     0.014 A 
HETATM    8 CL14   D T 502       4.572   1.826  -8.219  1.00  9.14    -0.082 Cl
HETATM    9  C4    D T 502       5.040   4.055  -4.919  1.00 29.15     0.028 A 
ENDBRANCH   1   2
BRANCH   1  10
HETATM   10  C8    D T 502       4.689   5.015  -2.377  1.00 22.86     0.111 A 
HETATM   11  C9    D T 502       5.644   5.110  -1.323  1.00 16.25     0.081 A 
HETATM   12  C10   D T 502       6.150   6.370  -0.959  1.00 16.94     0.025 A 
HETATM   13 CL16   D T 502       6.159   3.702  -0.459  1.00  2.00    -0.080 Cl
HETATM   14  C11   D T 502       5.701   7.532  -1.644  1.00 21.46     0.059 A 
HETATM   15  C12   D T 502       4.752   7.434  -2.693  1.00 21.21     0.013 A 
HETATM   16 CL15   D T 502       6.305   9.082  -1.176  1.00  9.25    -0.082 Cl
HETATM   17  C13   D T 502       4.246   6.173  -3.059  1.00 21.49     0.026 A 
ENDBRANCH   1  10
TORSDOF 2
ENDMDL
MODEL 5
REMARK VINA RESULT:      -6.9      1.388      5.879
REMARK  2 active torsions:
REMARK  status: ('A' for Active; 'I' for Inactive)
REMARK    1  A    between atoms: C5_4  and  O7_13 
REMARK    2  A    between atoms: C8_10  and  O7_13 
ROOT
HETATM    1  O7    D T 502       6.931   6.409   2.581  1.00 24.96    -0.304 OA
ENDROOT
BRANCH   1   2
HETATM    2  C5    D T 502       6.473   6.342   1.301  1.00 24.69     0.125 A 
HETATM    3  C6    D T 502       6.742   7.400   0.444  1.00 25.95     0.154 A 
HETATM    4  C1    D T 502       6.351   7.330  -0.913  1.00 27.27     0.041 A 
HETATM    5  O17   D T 502       7.359   8.517   0.957  1.00 23.71    -0.188 OA
HETATM    6  C2    D T 502       5.692   6.187  -1.384  1.00 21.79     0.060 A 
HETATM    7  C3    D T 502       5.416   5.131  -0.516  1.00 27.99     0.014 A 
HETATM    8 CL14   D T 502       5.231   6.076  -3.033  1.00  9.14    -0.082 Cl
HETATM    9  C4    D T 502       5.812   5.203   0.837  1.00 29.15     0.028 A 
ENDBRANCH   1   2
BRANCH   1  10
HETATM   10  C8    D T 502       7.440   5.285   3.163  1.00 22.86     0.111 A 
HETATM   11  C9    D T 502       8.813   4.976   2.937  1.00 16.25     0.081 A 
HETATM   12  C10   D T 502       9.363   3.813   3.504  1.00 16.94     0.025 A 
HETATM   13 CL16   D T 502       9.801   5.990   1.943  1.00  2.00    -0.080 Cl
HETATM   14  C11   D T 502       8.544   2.960   4.292  1.00 21.46     0.059 A 
HETATM   15  C12   D T 502       7.178   3.270   4.515  1.00 21.21     0.013 A 
HETATM   16 CL15   D T 502       9.216   1.517   4.965  1.00  9.25    -0.082 Cl
HETATM   17  C13   D T 502       6.627   4.435   3.951  1.00 21.49     0.026 A 
ENDBRANCH   1  10
TORSDOF 2
ENDMDL
MODEL 6
REMARK VINA RESULT:      -6.8      2.346      3.118
REMARK  2 active torsions:
REMARK  status: ('A' for Active; 'I' for Inactive)
REMARK    1  A    between atoms: C5_4  and  O7_13 
REMARK    2  A    between atoms: C8_10  and  O7_13 
ROOT
HETATM    1  O7    D T 502       7.755   6.567   0.476  1.00 24.96    -0.304 OA
ENDROOT
BRANCH   1   2
HETATM    2  C5    D T 502       8.090   5.679   1.452  1.00 24.69     0.125 A 
HETATM    3  C6    D T 502       9.291   4.995   1.342  1.00 25.95     0.154 A 
HETATM    4  C1    D T 502       9.709   4.125   2.376  1.00 27.27     0.041 A 
HETATM    5  O17   D T 502      10.035   5.159   0.198  1.00 23.71    -0.188 OA
HETATM    6  C2    D T 502       8.901   3.961   3.509  1.00 21.79     0.060 A 
HETATM    7  C3    D T 502       7.689   4.645   3.609  1.00 27.99     0.014 A 
HETATM    8 CL14   D T 502       9.402   2.927   4.783  1.00  9.14    -0.082 Cl
HETATM    9  C4    D T 502       7.279   5.515   2.577  1.00 29.15     0.028 A 
ENDBRANCH   1   2
BRANCH   1  10
HETATM   10  C8    D T 502       6.702   6.285  -0.345  1.00 22.86     0.111 A 
HETATM   11  C9    D T 502       5.883   7.368  -0.781  1.00 16.25     0.081 A 
HETATM   12  C10   D T 502       4.777   7.110  -1.608  1.00 16.94     0.025 A 
HETATM   13 CL16   D T 502       6.210   8.990  -0.273  1.00  2.00    -0.080 Cl
HETATM   14  C11   D T 502       4.487   5.774  -1.997  1.00 21.46     0.059 A 
HETATM   15  C12   D T 502       5.303   4.699  -1.562  1.00 21.21     0.013 A 
HETATM   16 CL15   D T 502       3.110   5.456  -2.992  1.00  9.25    -0.082 Cl
HETATM   17  C13   D T 502       6.411   4.956  -0.735  1.00 21.49     0.026 A 
ENDBRANCH   1  10
TORSDOF 2
ENDMDL
MODEL 7
REMARK VINA RESULT:      -6.8      2.116      3.017
REMARK  2 active torsions:
REMARK  status: ('A' for Active; 'I' for Inactive)
REMARK    1  A    between atoms: C5_4  and  O7_13 
REMARK    2  A    between atoms: C8_10  and  O7_13 
ROOT
HETATM    1  O7    D T 502       6.327   6.994   0.573  1.00 24.96    -0.304 OA
ENDROOT
BRANCH   1   2
HETATM    2  C5    D T 502       7.121   6.249   1.390  1.00 24.69     0.125 A 
HETATM    3  C6    D T 502       6.645   5.908   2.647  1.00 25.95     0.154 A 
HETATM    4  C1    D T 502       7.409   5.070   3.491  1.00 27.27     0.041 A 
HETATM    5  O17   D T 502       5.440   6.431   3.054  1.00 23.71    -0.188 OA
HETATM    6  C2    D T 502       8.648   4.588   3.048  1.00 21.79     0.060 A 
HETATM    7  C3    D T 502       9.126   4.943   1.787  1.00 27.99     0.014 A 
HETATM    8 CL14   D T 502       9.579   3.552   4.050  1.00  9.14    -0.082 Cl
HETATM    9  C4    D T 502       8.358   5.776   0.946  1.00 29.15     0.028 A 
ENDBRANCH   1   2
BRANCH   1  10
HETATM   10  C8    D T 502       5.897   6.456  -0.606  1.00 22.86     0.111 A 
HETATM   11  C9    D T 502       5.744   7.329  -1.724  1.00 16.25     0.081 A 
HETATM   12  C10   D T 502       5.282   6.812  -2.946  1.00 16.94     0.025 A 
HETATM   13 CL16   D T 502       6.080   9.020  -1.584  1.00  2.00    -0.080 Cl
HETATM   14  C11   D T 502       4.971   5.429  -3.052  1.00 21.46     0.059 A 
HETATM   15  C12   D T 502       5.125   4.564  -1.939  1.00 21.21     0.013 A 
HETATM   16 CL15   D T 502       4.378   4.802  -4.549  1.00  9.25    -0.082 Cl
HETATM   17  C13   D T 502       5.590   5.079  -0.715  1.00 21.49     0.026 A 
ENDBRANCH   1  10
TORSDOF 2
ENDMDL
MODEL 8
REMARK VINA RESULT:      -6.8      5.499      7.628
REMARK  2 active torsions:
REMARK  status: ('A' for Active; 'I' for Inactive)
REMARK    1  A    between atoms: C5_4  and  O7_13 
REMARK    2  A    between atoms: C8_10  and  O7_13 
ROOT
HETATM    1  O7    D T 502       3.675   4.893  -2.271  1.00 24.96    -0.304 OA
ENDROOT
BRANCH   1   2
HETATM    2  C5    D T 502       4.001   4.423  -3.505  1.00 24.69     0.125 A 
HETATM    3  C6    D T 502       4.388   3.096  -3.628  1.00 25.95     0.154 A 
HETATM    4  C1    D T 502       4.657   2.552  -4.906  1.00 27.27     0.041 A 
HETATM    5  O17   D T 502       4.533   2.348  -2.484  1.00 23.71    -0.188 OA
HETATM    6  C2    D T 502       4.531   3.362  -6.042  1.00 21.79     0.060 A 
HETATM    7  C3    D T 502       4.151   4.698  -5.911  1.00 27.99     0.014 A 
HETATM    8 CL14   D T 502       4.832   2.712  -7.601  1.00  9.14    -0.082 Cl
HETATM    9  C4    D T 502       3.879   5.235  -4.635  1.00 29.15     0.028 A 
ENDBRANCH   1   2
BRANCH   1  10
HETATM   10  C8    D T 502       4.415   5.904  -1.729  1.00 22.86     0.111 A 
HETATM   11  C9    D T 502       3.730   7.079  -1.300  1.00 16.25     0.081 A 
HETATM   12  C10   D T 502       4.464   8.148  -0.759  1.00 16.94     0.025 A 
HETATM   13 CL16   D T 502       2.015   7.223  -1.475  1.00  2.00    -0.080 Cl
HETATM   14  C11   D T 502       5.877   8.046  -0.648  1.00 21.46     0.059 A 
HETATM   15  C12   D T 502       6.555   6.876  -1.074  1.00 21.21     0.013 A 
HETATM   16 CL15   D T 502       6.780   9.373  -0.006  1.00  9.25    -0.082 Cl
HETATM   17  C13   D T 502       5.822   5.804  -1.614  1.00 21.49     0.026 A 
ENDBRANCH   1  10
TORSDOF 2
ENDMDL
MODEL 9
REMARK VINA RESULT:      -6.8      4.607      6.998
REMARK  2 active torsions:
REMARK  status: ('A' for Active; 'I' for Inactive)
REMARK    1  A    between atoms: C5_4  and  O7_13 
REMARK    2  A    between atoms: C8_10  and  O7_13 
ROOT
HETATM    1  O7    D T 502       4.046   4.519  -2.529  1.00 24.96    -0.304 OA
ENDROOT
BRANCH   1   2
HETATM    2  C5    D T 502       5.118   4.999  -1.841  1.00 24.69     0.125 A 
HETATM    3  C6    D T 502       5.497   6.318  -2.041  1.00 25.95     0.154 A 
HETATM    4  C1    D T 502       6.555   6.874  -1.285  1.00 27.27     0.041 A 
HETATM    5  O17   D T 502       4.845   7.047  -3.007  1.00 23.71    -0.188 OA
HETATM    6  C2    D T 502       7.216   6.083  -0.336  1.00 21.79     0.060 A 
HETATM    7  C3    D T 502       6.836   4.754  -0.146  1.00 27.99     0.014 A 
HETATM    8 CL14   D T 502       8.487   6.747   0.606  1.00  9.14    -0.082 Cl
HETATM    9  C4    D T 502       5.776   4.205  -0.899  1.00 29.15     0.028 A 
ENDBRANCH   1   2
BRANCH   1  10
HETATM   10  C8    D T 502       4.201   3.411  -3.311  1.00 22.86     0.111 A 
HETATM   11  C9    D T 502       4.141   3.576  -4.726  1.00 16.25     0.081 A 
HETATM   12  C10   D T 502       4.274   2.453  -5.560  1.00 16.94     0.025 A 
HETATM   13 CL16   D T 502       3.866   5.133  -5.429  1.00  2.00    -0.080 Cl
HETATM   14  C11   D T 502       4.463   1.168  -4.983  1.00 21.46     0.059 A 
HETATM   15  C12   D T 502       4.524   1.007  -3.575  1.00 21.21     0.013 A 
HETATM   16 CL15   D T 502       4.600  -0.215  -6.010  1.00  9.25    -0.082 Cl
HETATM   17  C13   D T 502       4.393   2.131  -2.739  1.00 21.49     0.026 A 
ENDBRANCH   1  10
TORSDOF 2
ENDMDL
