MODEL 1
REMARK VINA RESULT:    -7.623      0.000      0.000
REMARK INTER + INTRA:          -9.056
REMARK INTER:                  -8.515
REMARK INTRA:                  -0.541
REMARK UNBOUND:                -0.541
REMARK  2 active torsions:
REMARK  status: ('A' for Active; 'I' for Inactive)
REMARK    1  A    between atoms: C5_4  and  O7_13 
REMARK    2  A    between atoms: C8_10  and  O7_13 
ROOT
HETATM    1  O7    D T 502       6.758   1.148  -6.749  1.00 24.96    -0.304 OA
ENDROOT
BRANCH   1   2
HETATM    2  C5    D T 502       5.796   1.898  -6.146  1.00 24.69     0.125 A 
HETATM    3  C6    D T 502       4.707   1.250  -5.582  1.00 25.95     0.154 A 
HETATM    4  C1    D T 502       3.728   1.991  -4.879  1.00 27.27     0.041 A 
HETATM    5  O17   D T 502       4.592  -0.109  -5.754  1.00 23.71    -0.188 OA
HETATM    6  C2    D T 502       3.867   3.380  -4.758  1.00 21.79     0.060 A 
HETATM    7  C3    D T 502       4.959   4.027  -5.337  1.00 27.99     0.014 A 
HETATM    8 CL14   D T 502       2.701   4.291  -3.890  1.00  9.14    -0.082 Cl
HETATM    9  C4    D T 502       5.936   3.283  -6.033  1.00 29.15     0.028 A 
ENDBRANCH   1   2
BRANCH   1  10
HETATM   10  C8    D T 502       6.995   1.318  -8.082  1.00 22.86     0.111 A 
HETATM   11  C9    D T 502       8.234   1.907  -8.473  1.00 16.25     0.081 A 
HETATM   12  C10   D T 502       8.500   2.118  -9.836  1.00 16.94     0.025 A 
HETATM   13 CL16   D T 502       9.395   2.404  -7.290  1.00  2.00    -0.080 Cl
HETATM   14  C11   D T 502       7.532   1.744 -10.808  1.00 21.46     0.059 A 
HETATM   15  C12   D T 502       6.302   1.157 -10.416  1.00 21.21     0.013 A 
HETATM   16 CL15   D T 502       7.851   2.028 -12.482  1.00  9.25    -0.082 Cl
HETATM   17  C13   D T 502       6.034   0.944  -9.052  1.00 21.49     0.026 A 
ENDBRANCH   1  10
TORSDOF 2
ENDMDL
MODEL 2
REMARK VINA RESULT:    -7.614      1.551      6.088
REMARK INTER + INTRA:          -9.045
REMARK INTER:                  -8.518
REMARK INTRA:                  -0.528
REMARK UNBOUND:                -0.541
REMARK  2 active torsions:
REMARK  status: ('A' for Active; 'I' for Inactive)
REMARK    1  A    between atoms: C5_4  and  O7_13 
REMARK    2  A    between atoms: C8_10  and  O7_13 
ROOT
HETATM    1  O7    D T 502       6.904   1.135  -6.874  1.00 24.96    -0.304 OA
ENDROOT
BRANCH   1   2
HETATM    2  C5    D T 502       7.082   1.395  -8.197  1.00 24.69     0.125 A 
HETATM    3  C6    D T 502       8.286   1.950  -8.607  1.00 25.95     0.154 A 
HETATM    4  C1    D T 502       8.537   2.160  -9.983  1.00 27.27     0.041 A 
HETATM    5  O17   D T 502       9.199   2.315  -7.647  1.00 23.71    -0.188 OA
HETATM    6  C2    D T 502       7.562   1.806 -10.926  1.00 21.79     0.060 A 
HETATM    7  C3    D T 502       6.350   1.258 -10.506  1.00 27.99     0.014 A 
HETATM    8 CL14   D T 502       7.859   2.034 -12.600  1.00  9.14    -0.082 Cl
HETATM    9  C4    D T 502       6.106   1.045  -9.132  1.00 29.15     0.028 A 
ENDBRANCH   1   2
BRANCH   1  10
HETATM   10  C8    D T 502       5.947   1.822  -6.185  1.00 22.86     0.111 A 
HETATM   11  C9    D T 502       4.764   1.123  -5.802  1.00 16.25     0.081 A 
HETATM   12  C10   D T 502       3.749   1.806  -5.112  1.00 16.94     0.025 A 
HETATM   13 CL16   D T 502       4.545  -0.544  -6.213  1.00  2.00    -0.080 Cl
HETATM   14  C11   D T 502       3.913   3.185  -4.806  1.00 21.46     0.059 A 
HETATM   15  C12   D T 502       5.090   3.877  -5.186  1.00 21.21     0.013 A 
HETATM   16 CL15   D T 502       2.651   4.029  -3.980  1.00  9.25    -0.082 Cl
HETATM   17  C13   D T 502       6.108   3.194  -5.876  1.00 21.49     0.026 A 
ENDBRANCH   1  10
TORSDOF 2
ENDMDL
MODEL 3
REMARK VINA RESULT:    -7.512      1.513      2.039
REMARK INTER + INTRA:          -8.932
REMARK INTER:                  -8.627
REMARK INTRA:                  -0.305
REMARK UNBOUND:                -0.541
REMARK  2 active torsions:
REMARK  status: ('A' for Active; 'I' for Inactive)
REMARK    1  A    between atoms: C5_4  and  O7_13 
REMARK    2  A    between atoms: C8_10  and  O7_13 
ROOT
HETATM    1  O7    D T 502       5.826   0.659  -7.360  1.00 24.96    -0.304 OA
ENDROOT
BRANCH   1   2
HETATM    2  C5    D T 502       5.130   1.558  -6.613  1.00 24.69     0.125 A 
HETATM    3  C6    D T 502       4.058   1.105  -5.859  1.00 25.95     0.154 A 
HETATM    4  C1    D T 502       3.362   1.997  -5.010  1.00 27.27     0.041 A 
HETATM    5  O17   D T 502       3.676  -0.209  -5.987  1.00 23.71    -0.188 OA
HETATM    6  C2    D T 502       3.763   3.338  -4.937  1.00 21.79     0.060 A 
HETATM    7  C3    D T 502       4.836   3.789  -5.705  1.00 27.99     0.014 A 
HETATM    8 CL14   D T 502       2.944   4.427  -3.896  1.00  9.14    -0.082 Cl
HETATM    9  C4    D T 502       5.531   2.895  -6.548  1.00 29.15     0.028 A 
ENDBRANCH   1   2
BRANCH   1  10
HETATM   10  C8    D T 502       6.321   1.043  -8.572  1.00 22.86     0.111 A 
HETATM   11  C9    D T 502       5.419   1.110  -9.674  1.00 16.25     0.081 A 
HETATM   12  C10   D T 502       5.900   1.480 -10.941  1.00 16.94     0.025 A 
HETATM   13 CL16   D T 502       3.748   0.701  -9.481  1.00  2.00    -0.080 Cl
HETATM   14  C11   D T 502       7.279   1.781 -11.109  1.00 21.46     0.059 A 
HETATM   15  C12   D T 502       8.174   1.715 -10.010  1.00 21.21     0.013 A 
HETATM   16 CL15   D T 502       7.873   2.211 -12.674  1.00  9.25    -0.082 Cl
HETATM   17  C13   D T 502       7.693   1.346  -8.741  1.00 21.49     0.026 A 
ENDBRANCH   1  10
TORSDOF 2
ENDMDL
MODEL 4
REMARK VINA RESULT:    -7.206      1.919      2.263
REMARK INTER + INTRA:          -8.590
REMARK INTER:                  -8.103
REMARK INTRA:                  -0.487
REMARK UNBOUND:                -0.541
REMARK  2 active torsions:
REMARK  status: ('A' for Active; 'I' for Inactive)
REMARK    1  A    between atoms: C5_4  and  O7_13 
REMARK    2  A    between atoms: C8_10  and  O7_13 
ROOT
HETATM    1  O7    D T 502       6.610   3.548  -6.722  1.00 24.96    -0.304 OA
ENDROOT
BRANCH   1   2
HETATM    2  C5    D T 502       5.913   2.752  -5.866  1.00 24.69     0.125 A 
HETATM    3  C6    D T 502       4.725   3.231  -5.333  1.00 25.95     0.154 A 
HETATM    4  C1    D T 502       3.935   2.402  -4.504  1.00 27.27     0.041 A 
HETATM    5  O17   D T 502       4.363   4.530  -5.605  1.00 23.71    -0.188 OA
HETATM    6  C2    D T 502       4.361   1.097  -4.224  1.00 21.79     0.060 A 
HETATM    7  C3    D T 502       5.562   0.624  -4.755  1.00 27.99     0.014 A 
HETATM    8 CL14   D T 502       3.404   0.070  -3.238  1.00  9.14    -0.082 Cl
HETATM    9  C4    D T 502       6.345   1.453  -5.586  1.00 29.15     0.028 A 
ENDBRANCH   1   2
BRANCH   1  10
HETATM   10  C8    D T 502       6.750   3.161  -8.023  1.00 22.86     0.111 A 
HETATM   11  C9    D T 502       8.007   2.626  -8.432  1.00 16.25     0.081 A 
HETATM   12  C10   D T 502       8.192   2.239  -9.770  1.00 16.94     0.025 A 
HETATM   13 CL16   D T 502       9.319   2.483  -7.313  1.00  2.00    -0.080 Cl
HETATM   14  C11   D T 502       7.126   2.389 -10.699  1.00 21.46     0.059 A 
HETATM   15  C12   D T 502       5.877   2.921 -10.289  1.00 21.21     0.013 A 
HETATM   16 CL15   D T 502       7.366   1.937 -12.350  1.00  9.25    -0.082 Cl
HETATM   17  C13   D T 502       5.690   3.307  -8.949  1.00 21.49     0.026 A 
ENDBRANCH   1  10
TORSDOF 2
ENDMDL
MODEL 5
REMARK VINA RESULT:    -7.106      2.057      6.027
REMARK INTER + INTRA:          -8.478
REMARK INTER:                  -8.031
REMARK INTRA:                  -0.447
REMARK UNBOUND:                -0.541
REMARK  2 active torsions:
REMARK  status: ('A' for Active; 'I' for Inactive)
REMARK    1  A    between atoms: C5_4  and  O7_13 
REMARK    2  A    between atoms: C8_10  and  O7_13 
ROOT
HETATM    1  O7    D T 502       6.466   3.581  -6.442  1.00 24.96    -0.304 OA
ENDROOT
BRANCH   1   2
HETATM    2  C5    D T 502       6.698   3.259  -7.744  1.00 24.69     0.125 A 
HETATM    3  C6    D T 502       7.942   2.754  -8.090  1.00 25.95     0.154 A 
HETATM    4  C1    D T 502       8.193   2.335  -9.417  1.00 27.27     0.041 A 
HETATM    5  O17   D T 502       8.921   2.707  -7.126  1.00 23.71    -0.188 OA
HETATM    6  C2    D T 502       7.176   2.435 -10.377  1.00 21.79     0.060 A 
HETATM    7  C3    D T 502       5.930   2.953 -10.025  1.00 27.99     0.014 A 
HETATM    8 CL14   D T 502       7.455   1.910 -11.986  1.00  9.14    -0.082 Cl
HETATM    9  C4    D T 502       5.683   3.365  -8.698  1.00 29.15     0.028 A 
ENDBRANCH   1   2
BRANCH   1  10
HETATM   10  C8    D T 502       5.727   2.732  -5.670  1.00 22.86     0.111 A 
HETATM   11  C9    D T 502       4.536   3.236  -5.070  1.00 16.25     0.081 A 
HETATM   12  C10   D T 502       3.765   2.395  -4.250  1.00 16.94     0.025 A 
HETATM   13 CL16   D T 502       4.049   4.880  -5.305  1.00  2.00    -0.080 Cl
HETATM   14  C11   D T 502       4.182   1.055  -4.027  1.00 21.46     0.059 A 
HETATM   15  C12   D T 502       5.367   0.556  -4.626  1.00 21.21     0.013 A 
HETATM   16 CL15   D T 502       3.246   0.031  -2.997  1.00  9.25    -0.082 Cl
HETATM   17  C13   D T 502       6.139   1.396  -5.448  1.00 21.49     0.026 A 
ENDBRANCH   1  10
TORSDOF 2
ENDMDL
MODEL 6
REMARK VINA RESULT:    -7.028      1.746      5.980
REMARK INTER + INTRA:          -8.391
REMARK INTER:                  -8.330
REMARK INTRA:                  -0.061
REMARK UNBOUND:                -0.541
REMARK  2 active torsions:
REMARK  status: ('A' for Active; 'I' for Inactive)
REMARK    1  A    between atoms: C5_4  and  O7_13 
REMARK    2  A    between atoms: C8_10  and  O7_13 
ROOT
HETATM    1  O7    D T 502       5.410   0.701  -7.484  1.00 24.96    -0.304 OA
ENDROOT
BRANCH   1   2
HETATM    2  C5    D T 502       5.991   0.970  -8.685  1.00 24.69     0.125 A 
HETATM    3  C6    D T 502       5.175   1.125  -9.796  1.00 25.95     0.154 A 
HETATM    4  C1    D T 502       5.737   1.483 -11.043  1.00 27.27     0.041 A 
HETATM    5  O17   D T 502       3.828   0.889  -9.656  1.00 23.71    -0.188 OA
HETATM    6  C2    D T 502       7.121   1.679 -11.147  1.00 21.79     0.060 A 
HETATM    7  C3    D T 502       7.937   1.512 -10.028  1.00 27.99     0.014 A 
HETATM    8 CL14   D T 502       7.816   2.135 -12.647  1.00  9.14    -0.082 Cl
HETATM    9  C4    D T 502       7.371   1.159  -8.784  1.00 29.15     0.028 A 
ENDBRANCH   1   2
BRANCH   1  10
HETATM   10  C8    D T 502       5.011   1.739  -6.692  1.00 22.86     0.111 A 
HETATM   11  C9    D T 502       4.266   1.436  -5.515  1.00 16.25     0.081 A 
HETATM   12  C10   D T 502       3.820   2.482  -4.690  1.00 16.94     0.025 A 
HETATM   13 CL16   D T 502       3.869  -0.199  -5.110  1.00  2.00    -0.080 Cl
HETATM   14  C11   D T 502       4.114   3.827  -5.040  1.00 21.46     0.059 A 
HETATM   15  C12   D T 502       4.856   4.126  -6.211  1.00 21.21     0.013 A 
HETATM   16 CL15   D T 502       3.541   5.113  -4.037  1.00  9.25    -0.082 Cl
HETATM   17  C13   D T 502       5.305   3.080  -7.036  1.00 21.49     0.026 A 
ENDBRANCH   1  10
TORSDOF 2
ENDMDL
MODEL 7
REMARK VINA RESULT:    -7.002      8.787     10.841
REMARK INTER + INTRA:          -8.361
REMARK INTER:                  -7.836
REMARK INTRA:                  -0.526
REMARK UNBOUND:                -0.541
REMARK  2 active torsions:
REMARK  status: ('A' for Active; 'I' for Inactive)
REMARK    1  A    between atoms: C5_4  and  O7_13 
REMARK    2  A    between atoms: C8_10  and  O7_13 
ROOT
HETATM    1  O7    D T 502       6.802   6.251   3.102  1.00 24.96    -0.304 OA
ENDROOT
BRANCH   1   2
HETATM    2  C5    D T 502       7.383   5.089   3.509  1.00 24.69     0.125 A 
HETATM    3  C6    D T 502       6.623   4.189   4.242  1.00 25.95     0.154 A 
HETATM    4  C1    D T 502       7.168   2.938   4.613  1.00 27.27     0.041 A 
HETATM    5  O17   D T 502       5.354   4.560   4.621  1.00 23.71    -0.188 OA
HETATM    6  C2    D T 502       8.479   2.617   4.236  1.00 21.79     0.060 A 
HETATM    7  C3    D T 502       9.241   3.530   3.507  1.00 27.99     0.014 A 
HETATM    8 CL14   D T 502       9.149   1.095   4.658  1.00  9.14    -0.082 Cl
HETATM    9  C4    D T 502       8.691   4.775   3.135  1.00 29.15     0.028 A 
ENDBRANCH   1   2
BRANCH   1  10
HETATM   10  C8    D T 502       6.601   6.461   1.769  1.00 22.86     0.111 A 
HETATM   11  C9    D T 502       7.209   7.604   1.171  1.00 16.25     0.081 A 
HETATM   12  C10   D T 502       7.003   7.863  -0.194  1.00 16.94     0.025 A 
HETATM   13 CL16   D T 502       8.162   8.699   2.114  1.00  2.00    -0.080 Cl
HETATM   14  C11   D T 502       6.191   6.985  -0.962  1.00 21.46     0.059 A 
HETATM   15  C12   D T 502       5.588   5.848  -0.365  1.00 21.21     0.013 A 
HETATM   16 CL15   D T 502       5.918   7.320  -2.635  1.00  9.25    -0.082 Cl
HETATM   17  C13   D T 502       5.795   5.586   1.001  1.00 21.49     0.026 A 
ENDBRANCH   1  10
TORSDOF 2
ENDMDL
MODEL 8
REMARK VINA RESULT:    -6.811      1.869      6.135
REMARK INTER + INTRA:          -8.148
REMARK INTER:                  -7.832
REMARK INTRA:                  -0.316
REMARK UNBOUND:                -0.541
REMARK  2 active torsions:
REMARK  status: ('A' for Active; 'I' for Inactive)
REMARK    1  A    between atoms: C5_4  and  O7_13 
REMARK    2  A    between atoms: C8_10  and  O7_13 
ROOT
HETATM    1  O7    D T 502       4.820   1.545  -6.620  1.00 24.96    -0.304 OA
ENDROOT
BRANCH   1   2
HETATM    2  C5    D T 502       5.898   1.803  -7.410  1.00 24.69     0.125 A 
HETATM    3  C6    D T 502       5.705   1.920  -8.778  1.00 25.95     0.154 A 
HETATM    4  C1    D T 502       6.788   2.267  -9.619  1.00 27.27     0.041 A 
HETATM    5  O17   D T 502       4.455   1.658  -9.288  1.00 23.71    -0.188 OA
HETATM    6  C2    D T 502       8.053   2.489  -9.061  1.00 21.79     0.060 A 
HETATM    7  C3    D T 502       8.243   2.360  -7.685  1.00 27.99     0.014 A 
HETATM    8 CL14   D T 502       9.373   2.932 -10.063  1.00  9.14    -0.082 Cl
HETATM    9  C4    D T 502       7.158   2.019  -6.848  1.00 29.15     0.028 A 
ENDBRANCH   1   2
BRANCH   1  10
HETATM   10  C8    D T 502       4.412   2.488  -5.723  1.00 22.86     0.111 A 
HETATM   11  C9    D T 502       3.900   2.043  -4.469  1.00 16.25     0.081 A 
HETATM   12  C10   D T 502       3.450   2.988  -3.531  1.00 16.94     0.025 A 
HETATM   13 CL16   D T 502       3.786   0.355  -4.103  1.00  2.00    -0.080 Cl
HETATM   14  C11   D T 502       3.510   4.373  -3.844  1.00 21.46     0.059 A 
HETATM   15  C12   D T 502       4.021   4.812  -5.091  1.00 21.21     0.013 A 
HETATM   16 CL15   D T 502       2.931   5.531  -2.698  1.00  9.25    -0.082 Cl
HETATM   17  C13   D T 502       4.473   3.868  -6.031  1.00 21.49     0.026 A 
ENDBRANCH   1  10
TORSDOF 2
ENDMDL
MODEL 9
REMARK VINA RESULT:    -6.673      2.126      2.726
REMARK INTER + INTRA:          -7.995
REMARK INTER:                  -7.454
REMARK INTRA:                  -0.541
REMARK UNBOUND:                -0.541
REMARK  2 active torsions:
REMARK  status: ('A' for Active; 'I' for Inactive)
REMARK    1  A    between atoms: C5_4  and  O7_13 
REMARK    2  A    between atoms: C8_10  and  O7_13 
ROOT
HETATM    1  O7    D T 502       6.075   1.052  -5.250  1.00 24.96    -0.304 OA
ENDROOT
BRANCH   1   2
HETATM    2  C5    D T 502       5.295   2.006  -4.672  1.00 24.69     0.125 A 
HETATM    3  C6    D T 502       5.807   2.719  -3.597  1.00 25.95     0.154 A 
HETATM    4  C1    D T 502       5.056   3.771  -3.024  1.00 27.27     0.041 A 
HETATM    5  O17   D T 502       7.032   2.354  -3.094  1.00 23.71    -0.188 OA
HETATM    6  C2    D T 502       3.795   4.086  -3.547  1.00 21.79     0.060 A 
HETATM    7  C3    D T 502       3.282   3.359  -4.621  1.00 27.99     0.014 A 
HETATM    8 CL14   D T 502       2.880   5.374  -2.878  1.00  9.14    -0.082 Cl
HETATM    9  C4    D T 502       4.037   2.313  -5.194  1.00 29.15     0.028 A 
ENDBRANCH   1   2
BRANCH   1  10
HETATM   10  C8    D T 502       6.476   1.216  -6.544  1.00 22.86     0.111 A 
HETATM   11  C9    D T 502       5.972   0.309  -7.522  1.00 16.25     0.081 A 
HETATM   12  C10   D T 502       6.383   0.436  -8.860  1.00 16.94     0.025 A 
HETATM   13 CL16   D T 502       4.894  -0.969  -7.077  1.00  2.00    -0.080 Cl
HETATM   14  C11   D T 502       7.297   1.464  -9.220  1.00 21.46     0.059 A 
HETATM   15  C12   D T 502       7.795   2.365  -8.245  1.00 21.21     0.013 A 
HETATM   16 CL15   D T 502       7.821   1.601 -10.861  1.00  9.25    -0.082 Cl
HETATM   17  C13   D T 502       7.383   2.240  -6.906  1.00 21.49     0.026 A 
ENDBRANCH   1  10
TORSDOF 2
ENDMDL
