MODEL 1
REMARK VINA RESULT:    -7.369      0.000      0.000
REMARK INTER + INTRA:          -8.776
REMARK INTER:                  -8.231
REMARK INTRA:                  -0.545
REMARK UNBOUND:                -0.545
REMARK  2 active torsions:
REMARK  status: ('A' for Active; 'I' for Inactive)
REMARK    1  A    between atoms: C5_4  and  O7_13 
REMARK    2  A    between atoms: C8_10  and  O7_13 
ROOT
HETATM    1  O7    D T 502       5.323   1.129  -7.791  1.00 24.96    -0.304 OA
ENDROOT
BRANCH   1   2
HETATM    2  C5    D T 502       5.366   1.369  -9.130  1.00 24.69     0.125 A 
HETATM    3  C6    D T 502       6.509   1.949  -9.662  1.00 25.95     0.154 A 
HETATM    4  C1    D T 502       6.622   2.140 -11.059  1.00 27.27     0.041 A 
HETATM    5  O17   D T 502       7.498   2.358  -8.799  1.00 23.71    -0.188 OA
HETATM    6  C2    D T 502       5.574   1.740 -11.898  1.00 21.79     0.060 A 
HETATM    7  C3    D T 502       4.423   1.167 -11.355  1.00 27.99     0.014 A 
HETATM    8 CL14   D T 502       5.703   1.943 -13.597  1.00  9.14    -0.082 Cl
HETATM    9  C4    D T 502       4.317   0.973  -9.962  1.00 29.15     0.028 A 
ENDBRANCH   1   2
BRANCH   1  10
HETATM   10  C8    D T 502       4.406   1.791  -7.027  1.00 22.86     0.111 A 
HETATM   11  C9    D T 502       3.383   1.026  -6.393  1.00 16.25     0.081 A 
HETATM   12  C10   D T 502       2.411   1.680  -5.619  1.00 16.94     0.025 A 
HETATM   13 CL16   D T 502       3.300  -0.690  -6.599  1.00  2.00    -0.080 Cl
HETATM   14  C11   D T 502       2.456   3.093  -5.478  1.00 21.46     0.059 A 
HETATM   15  C12   D T 502       3.477   3.852  -6.109  1.00 21.21     0.013 A 
HETATM   16 CL15   D T 502       1.244   3.898  -4.546  1.00  9.25    -0.082 Cl
HETATM   17  C13   D T 502       4.452   3.199  -6.884  1.00 21.49     0.026 A 
ENDBRANCH   1  10
TORSDOF 2
ENDMDL
MODEL 2
REMARK VINA RESULT:    -7.369      1.282      5.943
REMARK INTER + INTRA:          -8.775
REMARK INTER:                  -8.518
REMARK INTRA:                  -0.257
REMARK UNBOUND:                -0.545
REMARK  2 active torsions:
REMARK  status: ('A' for Active; 'I' for Inactive)
REMARK    1  A    between atoms: C5_4  and  O7_13 
REMARK    2  A    between atoms: C8_10  and  O7_13 
ROOT
HETATM    1  O7    D T 502       4.572   0.706  -7.903  1.00 24.96    -0.304 OA
ENDROOT
BRANCH   1   2
HETATM    2  C5    D T 502       3.762   1.500  -7.151  1.00 24.69     0.125 A 
HETATM    3  C6    D T 502       2.931   0.901  -6.215  1.00 25.95     0.154 A 
HETATM    4  C1    D T 502       2.136   1.698  -5.360  1.00 27.27     0.041 A 
HETATM    5  O17   D T 502       2.880  -0.473  -6.170  1.00 23.71    -0.188 OA
HETATM    6  C2    D T 502       2.194   3.093  -5.465  1.00 21.79     0.060 A 
HETATM    7  C3    D T 502       3.024   3.690  -6.415  1.00 27.99     0.014 A 
HETATM    8 CL14   D T 502       1.253   4.078  -4.421  1.00  9.14    -0.082 Cl
HETATM    9  C4    D T 502       3.820   2.890  -7.263  1.00 29.15     0.028 A 
ENDBRANCH   1   2
BRANCH   1  10
HETATM   10  C8    D T 502       4.838   1.063  -9.194  1.00 22.86     0.111 A 
HETATM   11  C9    D T 502       3.805   0.895 -10.163  1.00 16.25     0.081 A 
HETATM   12  C10   D T 502       4.055   1.231 -11.504  1.00 16.94     0.025 A 
HETATM   13 CL16   D T 502       2.265   0.246  -9.717  1.00  2.00    -0.080 Cl
HETATM   14  C11   D T 502       5.330   1.731 -11.879  1.00 21.46     0.059 A 
HETATM   15  C12   D T 502       6.357   1.898 -10.912  1.00 21.21     0.013 A 
HETATM   16 CL15   D T 502       5.643   2.118 -13.534  1.00  9.25    -0.082 Cl
HETATM   17  C13   D T 502       6.108   1.563  -9.568  1.00 21.49     0.026 A 
ENDBRANCH   1  10
TORSDOF 2
ENDMDL
MODEL 3
REMARK VINA RESULT:    -7.343      1.705      6.113
REMARK INTER + INTRA:          -8.746
REMARK INTER:                  -8.202
REMARK INTRA:                  -0.545
REMARK UNBOUND:                -0.545
REMARK  2 active torsions:
REMARK  status: ('A' for Active; 'I' for Inactive)
REMARK    1  A    between atoms: C5_4  and  O7_13 
REMARK    2  A    between atoms: C8_10  and  O7_13 
ROOT
HETATM    1  O7    D T 502       5.529   1.612  -7.150  1.00 24.96    -0.304 OA
ENDROOT
BRANCH   1   2
HETATM    2  C5    D T 502       4.427   2.126  -6.541  1.00 24.69     0.125 A 
HETATM    3  C6    D T 502       3.629   1.277  -5.788  1.00 25.95     0.154 A 
HETATM    4  C1    D T 502       2.521   1.791  -5.075  1.00 27.27     0.041 A 
HETATM    5  O17   D T 502       3.924  -0.067  -5.785  1.00 23.71    -0.188 OA
HETATM    6  C2    D T 502       2.238   3.161  -5.134  1.00 21.79     0.060 A 
HETATM    7  C3    D T 502       3.038   4.009  -5.901  1.00 27.99     0.014 A 
HETATM    8 CL14   D T 502       0.911   3.807  -4.258  1.00  9.14    -0.082 Cl
HETATM    9  C4    D T 502       4.145   3.492  -6.607  1.00 29.15     0.028 A 
ENDBRANCH   1   2
BRANCH   1  10
HETATM   10  C8    D T 502       5.607   1.636  -8.513  1.00 22.86     0.111 A 
HETATM   11  C9    D T 502       6.583   2.483  -9.115  1.00 16.25     0.081 A 
HETATM   12  C10   D T 502       6.673   2.548 -10.515  1.00 16.94     0.025 A 
HETATM   13 CL16   D T 502       7.630   3.461  -8.145  1.00  2.00    -0.080 Cl
HETATM   14  C11   D T 502       5.790   1.773 -11.314  1.00 21.46     0.059 A 
HETATM   15  C12   D T 502       4.819   0.930 -10.712  1.00 21.21     0.013 A 
HETATM   16 CL15   D T 502       5.885   1.875 -13.037  1.00  9.25    -0.082 Cl
HETATM   17  C13   D T 502       4.729   0.862  -9.310  1.00 21.49     0.026 A 
ENDBRANCH   1  10
TORSDOF 2
ENDMDL
MODEL 4
REMARK VINA RESULT:    -6.988      1.696      2.380
REMARK INTER + INTRA:          -8.349
REMARK INTER:                  -7.893
REMARK INTRA:                  -0.456
REMARK UNBOUND:                -0.545
REMARK  2 active torsions:
REMARK  status: ('A' for Active; 'I' for Inactive)
REMARK    1  A    between atoms: C5_4  and  O7_13 
REMARK    2  A    between atoms: C8_10  and  O7_13 
ROOT
HETATM    1  O7    D T 502       4.389   0.870  -8.134  1.00 24.96    -0.304 OA
ENDROOT
BRANCH   1   2
HETATM    2  C5    D T 502       4.738   1.090  -9.430  1.00 24.69     0.125 A 
HETATM    3  C6    D T 502       3.759   0.986 -10.407  1.00 25.95     0.154 A 
HETATM    4  C1    D T 502       4.066   1.286 -11.754  1.00 27.27     0.041 A 
HETATM    5  O17   D T 502       2.507   0.553 -10.036  1.00 23.71    -0.188 OA
HETATM    6  C2    D T 502       5.364   1.690 -12.093  1.00 21.79     0.060 A 
HETATM    7  C3    D T 502       6.347   1.783 -11.107  1.00 27.99     0.014 A 
HETATM    8 CL14   D T 502       5.750   2.081 -13.719  1.00  9.14    -0.082 Cl
HETATM    9  C4    D T 502       6.035   1.487  -9.763  1.00 29.15     0.028 A 
ENDBRANCH   1   2
BRANCH   1  10
HETATM   10  C8    D T 502       4.200   1.939  -7.306  1.00 22.86     0.111 A 
HETATM   11  C9    D T 502       5.139   2.147  -6.254  1.00 16.25     0.081 A 
HETATM   12  C10   D T 502       4.960   3.224  -5.370  1.00 16.94     0.025 A 
HETATM   13 CL16   D T 502       6.472   1.068  -6.026  1.00  2.00    -0.080 Cl
HETATM   14  C11   D T 502       3.846   4.091  -5.534  1.00 21.46     0.059 A 
HETATM   15  C12   D T 502       2.912   3.882  -6.583  1.00 21.21     0.013 A 
HETATM   16 CL15   D T 502       3.613   5.400  -4.430  1.00  9.25    -0.082 Cl
HETATM   17  C13   D T 502       3.091   2.804  -7.469  1.00 21.49     0.026 A 
ENDBRANCH   1  10
TORSDOF 2
ENDMDL
MODEL 5
REMARK VINA RESULT:    -6.977      2.018      2.304
REMARK INTER + INTRA:          -8.337
REMARK INTER:                  -7.868
REMARK INTRA:                  -0.470
REMARK UNBOUND:                -0.545
REMARK  2 active torsions:
REMARK  status: ('A' for Active; 'I' for Inactive)
REMARK    1  A    between atoms: C5_4  and  O7_13 
REMARK    2  A    between atoms: C8_10  and  O7_13 
ROOT
HETATM    1  O7    D T 502       2.705   1.836  -7.835  1.00 24.96    -0.304 OA
ENDROOT
BRANCH   1   2
HETATM    2  C5    D T 502       3.565   1.638  -8.871  1.00 24.69     0.125 A 
HETATM    3  C6    D T 502       3.556   2.543  -9.923  1.00 25.95     0.154 A 
HETATM    4  C1    D T 502       4.490   2.416 -10.976  1.00 27.27     0.041 A 
HETATM    5  O17   D T 502       2.600   3.532  -9.926  1.00 23.71    -0.188 OA
HETATM    6  C2    D T 502       5.423   1.371 -10.949  1.00 21.79     0.060 A 
HETATM    7  C3    D T 502       5.421   0.458  -9.894  1.00 27.99     0.014 A 
HETATM    8 CL14   D T 502       6.579   1.213 -12.207  1.00  9.14    -0.082 Cl
HETATM    9  C4    D T 502       4.490   0.593  -8.842  1.00 29.15     0.028 A 
ENDBRANCH   1   2
BRANCH   1  10
HETATM   10  C8    D T 502       3.186   2.330  -6.657  1.00 22.86     0.111 A 
HETATM   11  C9    D T 502       3.341   1.426  -5.565  1.00 16.25     0.081 A 
HETATM   12  C10   D T 502       3.812   1.908  -4.332  1.00 16.94     0.025 A 
HETATM   13 CL16   D T 502       2.919  -0.244  -5.726  1.00  2.00    -0.080 Cl
HETATM   14  C11   D T 502       4.125   3.286  -4.187  1.00 21.46     0.059 A 
HETATM   15  C12   D T 502       3.970   4.183  -5.276  1.00 21.21     0.013 A 
HETATM   16 CL15   D T 502       4.679   3.880  -2.661  1.00  9.25    -0.082 Cl
HETATM   17  C13   D T 502       3.500   3.703  -6.512  1.00 21.49     0.026 A 
ENDBRANCH   1  10
TORSDOF 2
ENDMDL
MODEL 6
REMARK VINA RESULT:    -6.975      2.310      6.098
REMARK INTER + INTRA:          -8.335
REMARK INTER:                  -7.850
REMARK INTRA:                  -0.486
REMARK UNBOUND:                -0.545
REMARK  2 active torsions:
REMARK  status: ('A' for Active; 'I' for Inactive)
REMARK    1  A    between atoms: C5_4  and  O7_13 
REMARK    2  A    between atoms: C8_10  and  O7_13 
ROOT
HETATM    1  O7    D T 502       4.807   3.808  -7.670  1.00 24.96    -0.304 OA
ENDROOT
BRANCH   1   2
HETATM    2  C5    D T 502       4.389   2.961  -6.691  1.00 24.69     0.125 A 
HETATM    3  C6    D T 502       3.156   3.192  -6.096  1.00 25.95     0.154 A 
HETATM    4  C1    D T 502       2.653   2.288  -5.133  1.00 27.27     0.041 A 
HETATM    5  O17   D T 502       2.467   4.330  -6.443  1.00 23.71    -0.188 OA
HETATM    6  C2    D T 502       3.406   1.160  -4.785  1.00 21.79     0.060 A 
HETATM    7  C3    D T 502       4.649   0.938  -5.378  1.00 27.99     0.014 A 
HETATM    8 CL14   D T 502       2.802   0.039  -3.634  1.00  9.14    -0.082 Cl
HETATM    9  C4    D T 502       5.146   1.840  -6.343  1.00 29.15     0.028 A 
ENDBRANCH   1   2
BRANCH   1  10
HETATM   10  C8    D T 502       4.926   3.340  -8.947  1.00 22.86     0.111 A 
HETATM   11  C9    D T 502       6.234   3.063  -9.441  1.00 16.25     0.081 A 
HETATM   12  C10   D T 502       6.392   2.602 -10.759  1.00 16.94     0.025 A 
HETATM   13 CL16   D T 502       7.631   3.326  -8.454  1.00  2.00    -0.080 Cl
HETATM   14  C11   D T 502       5.249   2.420 -11.582  1.00 21.46     0.059 A 
HETATM   15  C12   D T 502       3.947   2.696 -11.088  1.00 21.21     0.013 A 
HETATM   16 CL15   D T 502       5.449   1.879 -13.212  1.00  9.25    -0.082 Cl
HETATM   17  C13   D T 502       3.787   3.156  -9.768  1.00 21.49     0.026 A 
ENDBRANCH   1  10
TORSDOF 2
ENDMDL
MODEL 7
REMARK VINA RESULT:    -6.944      3.085      5.879
REMARK INTER + INTRA:          -8.300
REMARK INTER:                  -7.868
REMARK INTRA:                  -0.432
REMARK UNBOUND:                -0.545
REMARK  2 active torsions:
REMARK  status: ('A' for Active; 'I' for Inactive)
REMARK    1  A    between atoms: C5_4  and  O7_13 
REMARK    2  A    between atoms: C8_10  and  O7_13 
ROOT
HETATM    1  O7    D T 502       5.163   2.126  -8.154  1.00 24.96    -0.304 OA
ENDROOT
BRANCH   1   2
HETATM    2  C5    D T 502       6.298   2.306  -7.425  1.00 24.69     0.125 A 
HETATM    3  C6    D T 502       6.602   1.385  -6.433  1.00 25.95     0.154 A 
HETATM    4  C1    D T 502       7.812   1.495  -5.710  1.00 27.27     0.041 A 
HETATM    5  O17   D T 502       5.686   0.397  -6.155  1.00 23.71    -0.188 OA
HETATM    6  C2    D T 502       8.700   2.538  -6.004  1.00 21.79     0.060 A 
HETATM    7  C3    D T 502       8.384   3.467  -6.995  1.00 27.99     0.014 A 
HETATM    8 CL14   D T 502      10.184   2.674  -5.153  1.00  9.14    -0.082 Cl
HETATM    9  C4    D T 502       7.177   3.351  -7.718  1.00 29.15     0.028 A 
ENDBRANCH   1   2
BRANCH   1  10
HETATM   10  C8    D T 502       5.252   2.051  -9.514  1.00 22.86     0.111 A 
HETATM   11  C9    D T 502       4.421   2.911 -10.289  1.00 16.25     0.081 A 
HETATM   12  C10   D T 502       4.472   2.841 -11.692  1.00 16.94     0.025 A 
HETATM   13 CL16   D T 502       3.322   4.009  -9.528  1.00  2.00    -0.080 Cl
HETATM   14  C11   D T 502       5.348   1.916 -12.319  1.00 21.46     0.059 A 
HETATM   15  C12   D T 502       6.175   1.060 -11.545  1.00 21.21     0.013 A 
HETATM   16 CL15   D T 502       5.390   1.814 -14.044  1.00  9.25    -0.082 Cl
HETATM   17  C13   D T 502       6.127   1.130 -10.140  1.00 21.49     0.026 A 
ENDBRANCH   1  10
TORSDOF 2
ENDMDL
MODEL 8
REMARK VINA RESULT:    -6.826      1.915      2.725
REMARK INTER + INTRA:          -8.169
REMARK INTER:                  -7.980
REMARK INTRA:                  -0.190
REMARK UNBOUND:                -0.545
REMARK  2 active torsions:
REMARK  status: ('A' for Active; 'I' for Inactive)
REMARK    1  A    between atoms: C5_4  and  O7_13 
REMARK    2  A    between atoms: C8_10  and  O7_13 
ROOT
HETATM    1  O7    D T 502       3.142   3.604  -7.756  1.00 24.96    -0.304 OA
ENDROOT
BRANCH   1   2
HETATM    2  C5    D T 502       3.790   3.203  -8.884  1.00 24.69     0.125 A 
HETATM    3  C6    D T 502       5.177   3.249  -8.903  1.00 25.95     0.154 A 
HETATM    4  C1    D T 502       5.887   2.765 -10.026  1.00 27.27     0.041 A 
HETATM    5  O17   D T 502       5.828   3.802  -7.825  1.00 23.71    -0.188 OA
HETATM    6  C2    D T 502       5.180   2.242 -11.116  1.00 21.79     0.060 A 
HETATM    7  C3    D T 502       3.786   2.209 -11.096  1.00 27.99     0.014 A 
HETATM    8 CL14   D T 502       6.025   1.630 -12.479  1.00  9.14    -0.082 Cl
HETATM    9  C4    D T 502       3.081   2.687  -9.970  1.00 29.15     0.028 A 
ENDBRANCH   1   2
BRANCH   1  10
HETATM   10  C8    D T 502       3.024   2.731  -6.713  1.00 22.86     0.111 A 
HETATM   11  C9    D T 502       3.217   3.233  -5.393  1.00 16.25     0.081 A 
HETATM   12  C10   D T 502       3.124   2.356  -4.299  1.00 16.94     0.025 A 
HETATM   13 CL16   D T 502       3.604   4.898  -5.123  1.00  2.00    -0.080 Cl
HETATM   14  C11   D T 502       2.842   0.981  -4.522  1.00 21.46     0.059 A 
HETATM   15  C12   D T 502       2.649   0.484  -5.837  1.00 21.21     0.013 A 
HETATM   16 CL15   D T 502       2.754  -0.101  -3.177  1.00  9.25    -0.082 Cl
HETATM   17  C13   D T 502       2.740   1.361  -6.933  1.00 21.49     0.026 A 
ENDBRANCH   1  10
TORSDOF 2
ENDMDL
MODEL 9
REMARK VINA RESULT:    -6.754      2.485      6.143
REMARK INTER + INTRA:          -8.089
REMARK INTER:                  -7.564
REMARK INTRA:                  -0.525
REMARK UNBOUND:                -0.545
REMARK  2 active torsions:
REMARK  status: ('A' for Active; 'I' for Inactive)
REMARK    1  A    between atoms: C5_4  and  O7_13 
REMARK    2  A    between atoms: C8_10  and  O7_13 
ROOT
HETATM    1  O7    D T 502       2.724   2.564  -6.991  1.00 24.96    -0.304 OA
ENDROOT
BRANCH   1   2
HETATM    2  C5    D T 502       3.307   3.036  -5.855  1.00 24.69     0.125 A 
HETATM    3  C6    D T 502       2.857   4.239  -5.330  1.00 25.95     0.154 A 
HETATM    4  C1    D T 502       3.383   4.721  -4.109  1.00 27.27     0.041 A 
HETATM    5  O17   D T 502       1.924   4.956  -6.043  1.00 23.71    -0.188 OA
HETATM    6  C2    D T 502       4.358   3.974  -3.435  1.00 21.79     0.060 A 
HETATM    7  C3    D T 502       4.813   2.770  -3.973  1.00 27.99     0.014 A 
HETATM    8 CL14   D T 502       4.991   4.531  -1.940  1.00  9.14    -0.082 Cl
HETATM    9  C4    D T 502       4.282   2.291  -5.189  1.00 29.15     0.028 A 
ENDBRANCH   1   2
BRANCH   1  10
HETATM   10  C8    D T 502       3.511   2.263  -8.065  1.00 22.86     0.111 A 
HETATM   11  C9    D T 502       3.555   0.907  -8.505  1.00 16.25     0.081 A 
HETATM   12  C10   D T 502       4.373   0.560  -9.593  1.00 16.94     0.025 A 
HETATM   13 CL16   D T 502       2.647  -0.321  -7.692  1.00  2.00    -0.080 Cl
HETATM   14  C11   D T 502       5.146   1.561 -10.240  1.00 21.46     0.059 A 
HETATM   15  C12   D T 502       5.100   2.910  -9.800  1.00 21.21     0.013 A 
HETATM   16 CL15   D T 502       6.171   1.126 -11.561  1.00  9.25    -0.082 Cl
HETATM   17  C13   D T 502       4.280   3.260  -8.711  1.00 21.49     0.026 A 
ENDBRANCH   1  10
TORSDOF 2
ENDMDL
