MODEL 1
REMARK VINA RESULT:    -7.771      0.000      0.000
REMARK INTER + INTRA:          -8.970
REMARK INTER:                  -8.680
REMARK INTRA:                  -0.290
REMARK UNBOUND:                -0.290
REMARK  2 active torsions:
REMARK  status: ('A' for Active; 'I' for Inactive)
REMARK    1  A    between atoms: C5_4  and  O7_13 
REMARK    2  A    between atoms: C8_10  and  O7_13 
ROOT
HETATM    1  O7    D T 502       5.737   0.187  -7.688  1.00 24.96    -0.304 OA
ENDROOT
BRANCH   1   2
HETATM    2  C5    D T 502       5.015   1.098  -6.982  1.00 24.69     0.125 A 
HETATM    3  C6    D T 502       3.994   0.642  -6.161  1.00 25.95     0.154 A 
HETATM    4  C1    D T 502       3.275   1.550  -5.351  1.00 27.27     0.041 A 
HETATM    5  O17   D T 502       3.684  -0.698  -6.186  1.00 23.71    -0.188 OA
HETATM    6  C2    D T 502       3.601   2.912  -5.385  1.00 21.79     0.060 A 
HETATM    7  C3    D T 502       4.622   3.367  -6.219  1.00 27.99     0.014 A 
HETATM    8 CL14   D T 502       2.754   4.027  -4.391  1.00  9.14    -0.082 Cl
HETATM    9  C4    D T 502       5.341   2.455  -7.022  1.00 29.15     0.028 A 
ENDBRANCH   1   2
BRANCH   1  10
HETATM   10  C8    D T 502       6.165   0.509  -8.944  1.00 22.86     0.111 A 
HETATM   11  C9    D T 502       5.210   0.487 -10.003  1.00 16.25     0.081 A 
HETATM   12  C10   D T 502       5.622   0.793 -11.312  1.00 16.94     0.025 A 
HETATM   13 CL16   D T 502       3.562   0.052  -9.707  1.00  2.00    -0.080 Cl
HETATM   14  C11   D T 502       6.983   1.116 -11.563  1.00 21.46     0.059 A 
HETATM   15  C12   D T 502       7.930   1.138 -10.507  1.00 21.21     0.013 A 
HETATM   16 CL15   D T 502       7.492   1.463 -13.178  1.00  9.25    -0.082 Cl
HETATM   17  C13   D T 502       7.519   0.834  -9.197  1.00 21.49     0.026 A 
ENDBRANCH   1  10
TORSDOF 2
ENDMDL
MODEL 2
REMARK VINA RESULT:    -7.621      3.287      5.932
REMARK INTER + INTRA:          -8.802
REMARK INTER:                  -8.327
REMARK INTRA:                  -0.476
REMARK UNBOUND:                -0.290
REMARK  2 active torsions:
REMARK  status: ('A' for Active; 'I' for Inactive)
REMARK    1  A    between atoms: C5_4  and  O7_13 
REMARK    2  A    between atoms: C8_10  and  O7_13 
ROOT
HETATM    1  O7    D T 502       6.105   1.746  -7.732  1.00 24.96    -0.304 OA
ENDROOT
BRANCH   1   2
HETATM    2  C5    D T 502       6.351   1.566  -9.058  1.00 24.69     0.125 A 
HETATM    3  C6    D T 502       5.890   2.519  -9.954  1.00 25.95     0.154 A 
HETATM    4  C1    D T 502       6.196   2.408 -11.329  1.00 27.27     0.041 A 
HETATM    5  O17   D T 502       5.107   3.543  -9.473  1.00 23.71    -0.188 OA
HETATM    6  C2    D T 502       6.967   1.329 -11.779  1.00 21.79     0.060 A 
HETATM    7  C3    D T 502       7.420   0.367 -10.876  1.00 27.99     0.014 A 
HETATM    8 CL14   D T 502       7.367   1.189 -13.443  1.00  9.14    -0.082 Cl
HETATM    9  C4    D T 502       7.117   0.486  -9.503  1.00 29.15     0.028 A 
ENDBRANCH   1   2
BRANCH   1  10
HETATM   10  C8    D T 502       7.143   1.671  -6.848  1.00 22.86     0.111 A 
HETATM   11  C9    D T 502       7.134   0.614  -5.892  1.00 16.25     0.081 A 
HETATM   12  C10   D T 502       8.177   0.522  -4.953  1.00 16.94     0.025 A 
HETATM   13 CL16   D T 502       5.839  -0.532  -5.844  1.00  2.00    -0.080 Cl
HETATM   14  C11   D T 502       9.222   1.483  -4.968  1.00 21.46     0.059 A 
HETATM   15  C12   D T 502       9.229   2.533  -5.922  1.00 21.21     0.013 A 
HETATM   16 CL15   D T 502      10.488   1.383  -3.795  1.00  9.25    -0.082 Cl
HETATM   17  C13   D T 502       8.188   2.627  -6.863  1.00 21.49     0.026 A 
ENDBRANCH   1  10
TORSDOF 2
ENDMDL
MODEL 3
REMARK VINA RESULT:    -7.540      1.287      5.937
REMARK INTER + INTRA:          -8.712
REMARK INTER:                  -8.229
REMARK INTRA:                  -0.482
REMARK UNBOUND:                -0.290
REMARK  2 active torsions:
REMARK  status: ('A' for Active; 'I' for Inactive)
REMARK    1  A    between atoms: C5_4  and  O7_13 
REMARK    2  A    between atoms: C8_10  and  O7_13 
ROOT
HETATM    1  O7    D T 502       5.966   0.457  -7.170  1.00 24.96    -0.304 OA
ENDROOT
BRANCH   1   2
HETATM    2  C5    D T 502       6.225   0.701  -8.483  1.00 24.69     0.125 A 
HETATM    3  C6    D T 502       7.505   1.092  -8.846  1.00 25.95     0.154 A 
HETATM    4  C1    D T 502       7.831   1.277 -10.209  1.00 27.27     0.041 A 
HETATM    5  O17   D T 502       8.424   1.324  -7.850  1.00 23.71    -0.188 OA
HETATM    6  C2    D T 502       6.853   1.064 -11.188  1.00 21.79     0.060 A 
HETATM    7  C3    D T 502       5.564   0.681 -10.817  1.00 27.99     0.014 A 
HETATM    8 CL14   D T 502       7.236   1.262 -12.849  1.00  9.14    -0.082 Cl
HETATM    9  C4    D T 502       5.244   0.492  -9.455  1.00 29.15     0.028 A 
ENDBRANCH   1   2
BRANCH   1  10
HETATM   10  C8    D T 502       5.158   1.314  -6.481  1.00 22.86     0.111 A 
HETATM   11  C9    D T 502       4.046   0.767  -5.777  1.00 16.25     0.081 A 
HETATM   12  C10   D T 502       3.182   1.625  -5.075  1.00 16.94     0.025 A 
HETATM   13 CL16   D T 502       3.723  -0.933  -5.807  1.00  2.00    -0.080 Cl
HETATM   14  C11   D T 502       3.425   3.024  -5.079  1.00 21.46     0.059 A 
HETATM   15  C12   D T 502       4.533   3.566  -5.780  1.00 21.21     0.013 A 
HETATM   16 CL15   D T 502       2.345   4.079  -4.238  1.00  9.25    -0.082 Cl
HETATM   17  C13   D T 502       5.400   2.709  -6.482  1.00 21.49     0.026 A 
ENDBRANCH   1  10
TORSDOF 2
ENDMDL
MODEL 4
REMARK VINA RESULT:    -7.407      1.453      1.880
REMARK INTER + INTRA:          -8.564
REMARK INTER:                  -8.149
REMARK INTRA:                  -0.415
REMARK UNBOUND:                -0.290
REMARK  2 active torsions:
REMARK  status: ('A' for Active; 'I' for Inactive)
REMARK    1  A    between atoms: C5_4  and  O7_13 
REMARK    2  A    between atoms: C8_10  and  O7_13 
ROOT
HETATM    1  O7    D T 502       5.686   0.406  -7.105  1.00 24.96    -0.304 OA
ENDROOT
BRANCH   1   2
HETATM    2  C5    D T 502       4.910   1.332  -6.480  1.00 24.69     0.125 A 
HETATM    3  C6    D T 502       3.912   0.893  -5.622  1.00 25.95     0.154 A 
HETATM    4  C1    D T 502       3.140   1.827  -4.894  1.00 27.27     0.041 A 
HETATM    5  O17   D T 502       3.678  -0.459  -5.531  1.00 23.71    -0.188 OA
HETATM    6  C2    D T 502       3.390   3.196  -5.046  1.00 21.79     0.060 A 
HETATM    7  C3    D T 502       4.388   3.633  -5.917  1.00 27.99     0.014 A 
HETATM    8 CL14   D T 502       2.478   4.344  -4.154  1.00  9.14    -0.082 Cl
HETATM    9  C4    D T 502       5.160   2.697  -6.638  1.00 29.15     0.028 A 
ENDBRANCH   1   2
BRANCH   1  10
HETATM   10  C8    D T 502       6.018   0.593  -8.416  1.00 22.86     0.111 A 
HETATM   11  C9    D T 502       7.343   1.026  -8.716  1.00 16.25     0.081 A 
HETATM   12  C10   D T 502       7.712   1.249 -10.053  1.00 16.94     0.025 A 
HETATM   13 CL16   D T 502       8.491   1.319  -7.454  1.00  2.00    -0.080 Cl
HETATM   14  C11   D T 502       6.760   1.043 -11.088  1.00 21.46     0.059 A 
HETATM   15  C12   D T 502       5.443   0.611 -10.787  1.00 21.21     0.013 A 
HETATM   16 CL15   D T 502       7.207   1.345 -12.730  1.00  9.25    -0.082 Cl
HETATM   17  C13   D T 502       5.072   0.386  -9.448  1.00 21.49     0.026 A 
ENDBRANCH   1  10
TORSDOF 2
ENDMDL
MODEL 5
REMARK VINA RESULT:    -7.350      2.462      3.035
REMARK INTER + INTRA:          -8.500
REMARK INTER:                  -8.186
REMARK INTRA:                  -0.314
REMARK UNBOUND:                -0.290
REMARK  2 active torsions:
REMARK  status: ('A' for Active; 'I' for Inactive)
REMARK    1  A    between atoms: C5_4  and  O7_13 
REMARK    2  A    between atoms: C8_10  and  O7_13 
ROOT
HETATM    1  O7    D T 502       4.848   3.170  -7.704  1.00 24.96    -0.304 OA
ENDROOT
BRANCH   1   2
HETATM    2  C5    D T 502       4.547   2.374  -6.642  1.00 24.69     0.125 A 
HETATM    3  C6    D T 502       4.681   2.894  -5.364  1.00 25.95     0.154 A 
HETATM    4  C1    D T 502       4.301   2.124  -4.241  1.00 27.27     0.041 A 
HETATM    5  O17   D T 502       5.220   4.152  -5.223  1.00 23.71    -0.188 OA
HETATM    6  C2    D T 502       3.791   0.834  -4.430  1.00 21.79     0.060 A 
HETATM    7  C3    D T 502       3.667   0.312  -5.717  1.00 27.99     0.014 A 
HETATM    8 CL14   D T 502       3.304  -0.107  -3.080  1.00  9.14    -0.082 Cl
HETATM    9  C4    D T 502       4.043   1.086  -6.836  1.00 29.15     0.028 A 
ENDBRANCH   1   2
BRANCH   1  10
HETATM   10  C8    D T 502       5.501   2.631  -8.775  1.00 22.86     0.111 A 
HETATM   11  C9    D T 502       6.906   2.415  -8.664  1.00 16.25     0.081 A 
HETATM   12  C10   D T 502       7.612   1.881  -9.755  1.00 16.94     0.025 A 
HETATM   13 CL16   D T 502       7.760   2.838  -7.219  1.00  2.00    -0.080 Cl
HETATM   14  C11   D T 502       6.919   1.566 -10.954  1.00 21.46     0.059 A 
HETATM   15  C12   D T 502       5.521   1.781 -11.062  1.00 21.21     0.013 A 
HETATM   16 CL15   D T 502       7.795   0.936 -12.305  1.00  9.25    -0.082 Cl
HETATM   17  C13   D T 502       4.812   2.314  -9.970  1.00 21.49     0.026 A 
ENDBRANCH   1  10
TORSDOF 2
ENDMDL
MODEL 6
REMARK VINA RESULT:    -7.194      2.181      6.138
REMARK INTER + INTRA:          -8.326
REMARK INTER:                  -7.868
REMARK INTRA:                  -0.458
REMARK UNBOUND:                -0.290
REMARK  2 active torsions:
REMARK  status: ('A' for Active; 'I' for Inactive)
REMARK    1  A    between atoms: C5_4  and  O7_13 
REMARK    2  A    between atoms: C8_10  and  O7_13 
ROOT
HETATM    1  O7    D T 502       5.960   3.319  -6.747  1.00 24.96    -0.304 OA
ENDROOT
BRANCH   1   2
HETATM    2  C5    D T 502       6.163   2.920  -8.032  1.00 24.69     0.125 A 
HETATM    3  C6    D T 502       7.422   2.464  -8.394  1.00 25.95     0.154 A 
HETATM    4  C1    D T 502       7.648   1.967  -9.698  1.00 27.27     0.041 A 
HETATM    5  O17   D T 502       8.437   2.543  -7.470  1.00 23.71    -0.188 OA
HETATM    6  C2    D T 502       6.593   1.939 -10.619  1.00 21.79     0.060 A 
HETATM    7  C3    D T 502       5.332   2.408 -10.253  1.00 27.99     0.014 A 
HETATM    8 CL14   D T 502       6.844   1.318 -12.199  1.00  9.14    -0.082 Cl
HETATM    9  C4    D T 502       5.109   2.899  -8.948  1.00 29.15     0.028 A 
ENDBRANCH   1   2
BRANCH   1  10
HETATM   10  C8    D T 502       5.290   2.491  -5.893  1.00 22.86     0.111 A 
HETATM   11  C9    D T 502       4.099   2.981  -5.281  1.00 16.25     0.081 A 
HETATM   12  C10   D T 502       3.398   2.162  -4.380  1.00 16.94     0.025 A 
HETATM   13 CL16   D T 502       3.528   4.582  -5.602  1.00  2.00    -0.080 Cl
HETATM   14  C11   D T 502       3.885   0.860  -4.088  1.00 21.46     0.059 A 
HETATM   15  C12   D T 502       5.070   0.375  -4.699  1.00 21.21     0.013 A 
HETATM   16 CL15   D T 502       3.035  -0.134  -2.958  1.00  9.25    -0.082 Cl
HETATM   17  C13   D T 502       5.773   1.192  -5.602  1.00 21.49     0.026 A 
ENDBRANCH   1  10
TORSDOF 2
ENDMDL
MODEL 7
REMARK VINA RESULT:    -7.130      2.249      6.080
REMARK INTER + INTRA:          -8.254
REMARK INTER:                  -7.796
REMARK INTRA:                  -0.459
REMARK UNBOUND:                -0.290
REMARK  2 active torsions:
REMARK  status: ('A' for Active; 'I' for Inactive)
REMARK    1  A    between atoms: C5_4  and  O7_13 
REMARK    2  A    between atoms: C8_10  and  O7_13 
ROOT
HETATM    1  O7    D T 502       4.058   1.664  -7.471  1.00 24.96    -0.304 OA
ENDROOT
BRANCH   1   2
HETATM    2  C5    D T 502       4.971   1.353  -8.430  1.00 24.69     0.125 A 
HETATM    3  C6    D T 502       5.210   2.272  -9.441  1.00 25.95     0.154 A 
HETATM    4  C1    D T 502       6.209   2.019 -10.409  1.00 27.27     0.041 A 
HETATM    5  O17   D T 502       4.432   3.405  -9.492  1.00 23.71    -0.188 OA
HETATM    6  C2    D T 502       6.953   0.835 -10.339  1.00 21.79     0.060 A 
HETATM    7  C3    D T 502       6.703  -0.091  -9.326  1.00 27.99     0.014 A 
HETATM    8 CL14   D T 502       8.185   0.521 -11.492  1.00  9.14    -0.082 Cl
HETATM    9  C4    D T 502       5.708   0.169  -8.359  1.00 29.15     0.028 A 
ENDBRANCH   1   2
BRANCH   1  10
HETATM   10  C8    D T 502       4.496   2.075  -6.245  1.00 22.86     0.111 A 
HETATM   11  C9    D T 502       4.410   1.155  -5.159  1.00 16.25     0.081 A 
HETATM   12  C10   D T 502       4.833   1.553  -3.880  1.00 16.94     0.025 A 
HETATM   13 CL16   D T 502       3.756  -0.431  -5.387  1.00  2.00    -0.080 Cl
HETATM   14  C11   D T 502       5.337   2.867  -3.684  1.00 21.46     0.059 A 
HETATM   15  C12   D T 502       5.423   3.780  -4.766  1.00 21.21     0.013 A 
HETATM   16 CL15   D T 502       5.830   3.364  -2.103  1.00  9.25    -0.082 Cl
HETATM   17  C13   D T 502       5.002   3.383  -6.048  1.00 21.49     0.026 A 
ENDBRANCH   1  10
TORSDOF 2
ENDMDL
MODEL 8
REMARK VINA RESULT:    -7.087      2.199      2.822
REMARK INTER + INTRA:          -8.206
REMARK INTER:                  -7.694
REMARK INTRA:                  -0.512
REMARK UNBOUND:                -0.290
REMARK  2 active torsions:
REMARK  status: ('A' for Active; 'I' for Inactive)
REMARK    1  A    between atoms: C5_4  and  O7_13 
REMARK    2  A    between atoms: C8_10  and  O7_13 
ROOT
HETATM    1  O7    D T 502       5.862   0.733  -5.196  1.00 24.96    -0.304 OA
ENDROOT
BRANCH   1   2
HETATM    2  C5    D T 502       5.062   1.724  -4.719  1.00 24.69     0.125 A 
HETATM    3  C6    D T 502       5.607   2.656  -3.849  1.00 25.95     0.154 A 
HETATM    4  C1    D T 502       4.828   3.745  -3.397  1.00 27.27     0.041 A 
HETATM    5  O17   D T 502       6.900   2.471  -3.419  1.00 23.71    -0.188 OA
HETATM    6  C2    D T 502       3.503   3.874  -3.833  1.00 21.79     0.060 A 
HETATM    7  C3    D T 502       2.957   2.929  -4.701  1.00 27.99     0.014 A 
HETATM    8 CL14   D T 502       2.549   5.203  -3.313  1.00  9.14    -0.082 Cl
HETATM    9  C4    D T 502       3.740   1.845  -5.154  1.00 29.15     0.028 A 
ENDBRANCH   1   2
BRANCH   1  10
HETATM   10  C8    D T 502       6.224   0.746  -6.513  1.00 22.86     0.111 A 
HETATM   11  C9    D T 502       5.610  -0.199  -7.386  1.00 16.25     0.081 A 
HETATM   12  C10   D T 502       5.975  -0.225  -8.743  1.00 16.94     0.025 A 
HETATM   13 CL16   D T 502       4.451  -1.338  -6.792  1.00  2.00    -0.080 Cl
HETATM   14  C11   D T 502       6.952   0.686  -9.226  1.00 21.46     0.059 A 
HETATM   15  C12   D T 502       7.561   1.626  -8.354  1.00 21.21     0.013 A 
HETATM   16 CL15   D T 502       7.420   0.632 -10.889  1.00  9.25    -0.082 Cl
HETATM   17  C13   D T 502       7.195   1.655  -6.997  1.00 21.49     0.026 A 
ENDBRANCH   1  10
TORSDOF 2
ENDMDL
MODEL 9
REMARK VINA RESULT:    -6.907      2.023      6.217
REMARK INTER + INTRA:          -8.004
REMARK INTER:                  -7.485
REMARK INTRA:                  -0.520
REMARK UNBOUND:                -0.290
REMARK  2 active torsions:
REMARK  status: ('A' for Active; 'I' for Inactive)
REMARK    1  A    between atoms: C5_4  and  O7_13 
REMARK    2  A    between atoms: C8_10  and  O7_13 
ROOT
HETATM    1  O7    D T 502       5.847   0.678  -5.412  1.00 24.96    -0.304 OA
ENDROOT
BRANCH   1   2
HETATM    2  C5    D T 502       6.301   0.686  -6.695  1.00 24.69     0.125 A 
HETATM    3  C6    D T 502       5.771  -0.230  -7.592  1.00 25.95     0.154 A 
HETATM    4  C1    D T 502       6.159  -0.199  -8.951  1.00 27.27     0.041 A 
HETATM    5  O17   D T 502       4.895  -1.178  -7.117  1.00 23.71    -0.188 OA
HETATM    6  C2    D T 502       7.082   0.762  -9.382  1.00 21.79     0.060 A 
HETATM    7  C3    D T 502       7.620   1.674  -8.475  1.00 27.99     0.014 A 
HETATM    8 CL14   D T 502       7.548   0.830 -11.033  1.00  9.14    -0.082 Cl
HETATM    9  C4    D T 502       7.225   1.643  -7.119  1.00 29.15     0.028 A 
ENDBRANCH   1   2
BRANCH   1  10
HETATM   10  C8    D T 502       5.093   1.725  -4.968  1.00 22.86     0.111 A 
HETATM   11  C9    D T 502       5.691   2.644  -4.057  1.00 16.25     0.081 A 
HETATM   12  C10   D T 502       4.935   3.721  -3.564  1.00 16.94     0.025 A 
HETATM   13 CL16   D T 502       7.321   2.429  -3.519  1.00  2.00    -0.080 Cl
HETATM   14  C11   D T 502       3.585   3.879  -3.977  1.00 21.46     0.059 A 
HETATM   15  C12   D T 502       2.992   2.964  -4.885  1.00 21.21     0.013 A 
HETATM   16 CL15   D T 502       2.649   5.189  -3.348  1.00  9.25    -0.082 Cl
HETATM   17  C13   D T 502       3.748   1.886  -5.381  1.00 21.49     0.026 A 
ENDBRANCH   1  10
TORSDOF 2
ENDMDL
