MODEL 1
REMARK VINA RESULT:      -7.6      0.000      0.000
REMARK  2 active torsions:
REMARK  status: ('A' for Active; 'I' for Inactive)
REMARK    1  A    between atoms: C5_4  and  O7_13 
REMARK    2  A    between atoms: C8_10  and  O7_13 
ROOT
HETATM    1  O7    D T 502       4.305   3.491  -2.995  1.00 24.96    -0.304 OA
ENDROOT
BRANCH   1   2
HETATM    2  C5    D T 502       4.435   4.815  -2.710  1.00 24.69     0.125 A 
HETATM    3  C6    D T 502       3.308   5.620  -2.772  1.00 25.95     0.154 A 
HETATM    4  C1    D T 502       3.388   6.983  -2.405  1.00 27.27     0.041 A 
HETATM    5  O17   D T 502       2.134   5.068  -3.229  1.00 23.71    -0.188 OA
HETATM    6  C2    D T 502       4.613   7.512  -1.980  1.00 21.79     0.060 A 
HETATM    7  C3    D T 502       5.746   6.700  -1.928  1.00 27.99     0.014 A 
HETATM    8 CL14   D T 502       4.724   9.159  -1.509  1.00  9.14    -0.082 Cl
HETATM    9  C4    D T 502       5.660   5.339  -2.291  1.00 29.15     0.028 A 
ENDBRANCH   1   2
BRANCH   1  10
HETATM   10  C8    D T 502       4.318   3.087  -4.299  1.00 22.86     0.111 A 
HETATM   11  C9    D T 502       3.825   1.785  -4.603  1.00 16.25     0.081 A 
HETATM   12  C10   D T 502       3.844   1.331  -5.933  1.00 16.94     0.025 A 
HETATM   13 CL16   D T 502       3.241   0.741  -3.353  1.00  2.00    -0.080 Cl
HETATM   14  C11   D T 502       4.356   2.173  -6.955  1.00 21.46     0.059 A 
HETATM   15  C12   D T 502       4.845   3.470  -6.650  1.00 21.21     0.013 A 
HETATM   16 CL15   D T 502       4.404   1.602  -8.586  1.00  9.25    -0.082 Cl
HETATM   17  C13   D T 502       4.826   3.926  -5.320  1.00 21.49     0.026 A 
ENDBRANCH   1  10
TORSDOF 2
ENDMDL
MODEL 2
REMARK VINA RESULT:      -7.5      0.886      1.691
REMARK  2 active torsions:
REMARK  status: ('A' for Active; 'I' for Inactive)
REMARK    1  A    between atoms: C5_4  and  O7_13 
REMARK    2  A    between atoms: C8_10  and  O7_13 
ROOT
HETATM    1  O7    D T 502       4.449   3.475  -3.009  1.00 24.96    -0.304 OA
ENDROOT
BRANCH   1   2
HETATM    2  C5    D T 502       4.114   4.756  -2.697  1.00 24.69     0.125 A 
HETATM    3  C6    D T 502       5.081   5.577  -2.138  1.00 25.95     0.154 A 
HETATM    4  C1    D T 502       4.793   6.936  -1.875  1.00 27.27     0.041 A 
HETATM    5  O17   D T 502       6.300   5.027  -1.818  1.00 23.71    -0.188 OA
HETATM    6  C2    D T 502       3.525   7.445  -2.184  1.00 21.79     0.060 A 
HETATM    7  C3    D T 502       2.553   6.612  -2.738  1.00 27.99     0.014 A 
HETATM    8 CL14   D T 502       3.164   9.097  -1.893  1.00  9.14    -0.082 Cl
HETATM    9  C4    D T 502       2.846   5.257  -3.003  1.00 29.15     0.028 A 
ENDBRANCH   1   2
BRANCH   1  10
HETATM   10  C8    D T 502       4.426   3.081  -4.316  1.00 22.86     0.111 A 
HETATM   11  C9    D T 502       4.029   1.743  -4.607  1.00 16.25     0.081 A 
HETATM   12  C10   D T 502       4.015   1.300  -5.941  1.00 16.94     0.025 A 
HETATM   13 CL16   D T 502       3.602   0.647  -3.339  1.00  2.00    -0.080 Cl
HETATM   14  C11   D T 502       4.400   2.189  -6.980  1.00 21.46     0.059 A 
HETATM   15  C12   D T 502       4.794   3.520  -6.688  1.00 21.21     0.013 A 
HETATM   16 CL15   D T 502       4.410   1.633  -8.616  1.00  9.25    -0.082 Cl
HETATM   17  C13   D T 502       4.807   3.966  -5.354  1.00 21.49     0.026 A 
ENDBRANCH   1  10
TORSDOF 2
ENDMDL
MODEL 3
REMARK VINA RESULT:      -7.3      1.735      6.009
REMARK  2 active torsions:
REMARK  status: ('A' for Active; 'I' for Inactive)
REMARK    1  A    between atoms: C5_4  and  O7_13 
REMARK    2  A    between atoms: C8_10  and  O7_13 
ROOT
HETATM    1  O7    D T 502       3.578   4.352  -3.230  1.00 24.96    -0.304 OA
ENDROOT
BRANCH   1   2
HETATM    2  C5    D T 502       3.848   3.634  -4.353  1.00 24.69     0.125 A 
HETATM    3  C6    D T 502       3.369   2.335  -4.441  1.00 25.95     0.154 A 
HETATM    4  C1    D T 502       3.561   1.587  -5.625  1.00 27.27     0.041 A 
HETATM    5  O17   D T 502       2.742   1.794  -3.344  1.00 23.71    -0.188 OA
HETATM    6  C2    D T 502       4.238   2.167  -6.706  1.00 21.79     0.060 A 
HETATM    7  C3    D T 502       4.726   3.470  -6.609  1.00 27.99     0.014 A 
HETATM    8 CL14   D T 502       4.461   1.281  -8.159  1.00  9.14    -0.082 Cl
HETATM    9  C4    D T 502       4.527   4.215  -5.426  1.00 29.15     0.028 A 
ENDBRANCH   1   2
BRANCH   1  10
HETATM   10  C8    D T 502       4.611   4.754  -2.434  1.00 22.86     0.111 A 
HETATM   11  C9    D T 502       5.023   6.117  -2.507  1.00 16.25     0.081 A 
HETATM   12  C10   D T 502       6.098   6.558  -1.716  1.00 16.94     0.025 A 
HETATM   13 CL16   D T 502       4.245   7.225  -3.584  1.00  2.00    -0.080 Cl
HETATM   14  C11   D T 502       6.761   5.641  -0.858  1.00 21.46     0.059 A 
HETATM   15  C12   D T 502       6.349   4.286  -0.786  1.00 21.21     0.013 A 
HETATM   16 CL15   D T 502       8.101   6.180   0.092  1.00  9.25    -0.082 Cl
HETATM   17  C13   D T 502       5.272   3.843  -1.575  1.00 21.49     0.026 A 
ENDBRANCH   1  10
TORSDOF 2
ENDMDL
MODEL 4
REMARK VINA RESULT:      -7.3      1.518      5.828
REMARK  2 active torsions:
REMARK  status: ('A' for Active; 'I' for Inactive)
REMARK    1  A    between atoms: C5_4  and  O7_13 
REMARK    2  A    between atoms: C8_10  and  O7_13 
ROOT
HETATM    1  O7    D T 502       3.838   4.081  -3.095  1.00 24.96    -0.304 OA
ENDROOT
BRANCH   1   2
HETATM    2  C5    D T 502       4.040   3.459  -4.287  1.00 24.69     0.125 A 
HETATM    3  C6    D T 502       3.479   2.206  -4.486  1.00 25.95     0.154 A 
HETATM    4  C1    D T 502       3.601   1.565  -5.740  1.00 27.27     0.041 A 
HETATM    5  O17   D T 502       2.841   1.601  -3.429  1.00 23.71    -0.188 OA
HETATM    6  C2    D T 502       4.291   2.203  -6.778  1.00 21.79     0.060 A 
HETATM    7  C3    D T 502       4.862   3.459  -6.570  1.00 27.99     0.014 A 
HETATM    8 CL14   D T 502       4.430   1.450  -8.314  1.00  9.14    -0.082 Cl
HETATM    9  C4    D T 502       4.734   4.098  -5.318  1.00 29.15     0.028 A 
ENDBRANCH   1   2
BRANCH   1  10
HETATM   10  C8    D T 502       4.491   5.252  -2.837  1.00 22.86     0.111 A 
HETATM   11  C9    D T 502       5.454   5.265  -1.786  1.00 16.25     0.081 A 
HETATM   12  C10   D T 502       6.128   6.460  -1.481  1.00 16.94     0.025 A 
HETATM   13 CL16   D T 502       5.776   3.843  -0.856  1.00  2.00    -0.080 Cl
HETATM   14  C11   D T 502       5.839   7.638  -2.221  1.00 21.46     0.059 A 
HETATM   15  C12   D T 502       4.881   7.622  -3.267  1.00 21.21     0.013 A 
HETATM   16 CL15   D T 502       6.649   9.113  -1.825  1.00  9.25    -0.082 Cl
HETATM   17  C13   D T 502       4.206   6.426  -3.575  1.00 21.49     0.026 A 
ENDBRANCH   1  10
TORSDOF 2
ENDMDL
MODEL 5
REMARK VINA RESULT:      -7.3      1.830      6.226
REMARK  2 active torsions:
REMARK  status: ('A' for Active; 'I' for Inactive)
REMARK    1  A    between atoms: C5_4  and  O7_13 
REMARK    2  A    between atoms: C8_10  and  O7_13 
ROOT
HETATM    1  O7    D T 502       4.388   6.314  -3.939  1.00 24.96    -0.304 OA
ENDROOT
BRANCH   1   2
HETATM    2  C5    D T 502       4.126   5.029  -4.303  1.00 24.69     0.125 A 
HETATM    3  C6    D T 502       2.921   4.462  -3.916  1.00 25.95     0.154 A 
HETATM    4  C1    D T 502       2.580   3.159  -4.343  1.00 27.27     0.041 A 
HETATM    5  O17   D T 502       2.096   5.185  -3.086  1.00 23.71    -0.188 OA
HETATM    6  C2    D T 502       3.468   2.446  -5.158  1.00 21.79     0.060 A 
HETATM    7  C3    D T 502       4.683   3.016  -5.537  1.00 27.99     0.014 A 
HETATM    8 CL14   D T 502       3.061   0.870  -5.706  1.00  9.14    -0.082 Cl
HETATM    9  C4    D T 502       5.017   4.321  -5.112  1.00 29.15     0.028 A 
ENDBRANCH   1   2
BRANCH   1  10
HETATM   10  C8    D T 502       5.200   6.548  -2.867  1.00 22.86     0.111 A 
HETATM   11  C9    D T 502       5.599   7.892  -2.609  1.00 16.25     0.081 A 
HETATM   12  C10   D T 502       6.451   8.165  -1.525  1.00 16.94     0.025 A 
HETATM   13 CL16   D T 502       5.080   9.186  -3.634  1.00  2.00    -0.080 Cl
HETATM   14  C11   D T 502       6.906   7.099  -0.704  1.00 21.46     0.059 A 
HETATM   15  C12   D T 502       6.507   5.763  -0.962  1.00 21.21     0.013 A 
HETATM   16 CL15   D T 502       7.977   7.434   0.611  1.00  9.25    -0.082 Cl
HETATM   17  C13   D T 502       5.652   5.488  -2.045  1.00 21.49     0.026 A 
ENDBRANCH   1  10
TORSDOF 2
ENDMDL
MODEL 6
REMARK VINA RESULT:      -7.2      1.969      2.725
REMARK  2 active torsions:
REMARK  status: ('A' for Active; 'I' for Inactive)
REMARK    1  A    between atoms: C5_4  and  O7_13 
REMARK    2  A    between atoms: C8_10  and  O7_13 
ROOT
HETATM    1  O7    D T 502       3.388   3.839  -3.800  1.00 24.96    -0.304 OA
ENDROOT
BRANCH   1   2
HETATM    2  C5    D T 502       4.331   4.361  -2.970  1.00 24.69     0.125 A 
HETATM    3  C6    D T 502       4.664   5.701  -3.103  1.00 25.95     0.154 A 
HETATM    4  C1    D T 502       5.580   6.297  -2.206  1.00 27.27     0.041 A 
HETATM    5  O17   D T 502       4.110   6.412  -4.142  1.00 23.71    -0.188 OA
HETATM    6  C2    D T 502       6.147   5.525  -1.184  1.00 21.79     0.060 A 
HETATM    7  C3    D T 502       5.816   4.176  -1.060  1.00 27.99     0.014 A 
HETATM    8 CL14   D T 502       7.243   6.238  -0.072  1.00  9.14    -0.082 Cl
HETATM    9  C4    D T 502       4.897   3.586  -1.955  1.00 29.15     0.028 A 
ENDBRANCH   1   2
BRANCH   1  10
HETATM   10  C8    D T 502       3.598   2.609  -4.354  1.00 22.86     0.111 A 
HETATM   11  C9    D T 502       4.119   2.551  -5.679  1.00 16.25     0.081 A 
HETATM   12  C10   D T 502       4.327   1.300  -6.286  1.00 16.94     0.025 A 
HETATM   13 CL16   D T 502       4.462   3.997  -6.565  1.00  2.00    -0.080 Cl
HETATM   14  C11   D T 502       4.014   0.112  -5.573  1.00 21.46     0.059 A 
HETATM   15  C12   D T 502       3.496   0.173  -4.253  1.00 21.21     0.013 A 
HETATM   16 CL15   D T 502       4.244  -1.423  -6.332  1.00  9.25    -0.082 Cl
HETATM   17  C13   D T 502       3.289   1.424  -3.644  1.00 21.49     0.026 A 
ENDBRANCH   1  10
TORSDOF 2
ENDMDL
MODEL 7
REMARK VINA RESULT:      -7.2      5.493      7.794
REMARK  2 active torsions:
REMARK  status: ('A' for Active; 'I' for Inactive)
REMARK    1  A    between atoms: C5_4  and  O7_13 
REMARK    2  A    between atoms: C8_10  and  O7_13 
ROOT
HETATM    1  O7    D T 502       6.160   6.472   2.340  1.00 24.96    -0.304 OA
ENDROOT
BRANCH   1   2
HETATM    2  C5    D T 502       5.857   6.522   1.015  1.00 24.69     0.125 A 
HETATM    3  C6    D T 502       6.322   7.594   0.268  1.00 25.95     0.154 A 
HETATM    4  C1    D T 502       6.095   7.638  -1.127  1.00 27.27     0.041 A 
HETATM    5  O17   D T 502       6.971   8.614   0.922  1.00 23.71    -0.188 OA
HETATM    6  C2    D T 502       5.398   6.593  -1.746  1.00 21.79     0.060 A 
HETATM    7  C3    D T 502       4.924   5.522  -0.989  1.00 27.99     0.014 A 
HETATM    8 CL14   D T 502       5.133   6.618  -3.442  1.00  9.14    -0.082 Cl
HETATM    9  C4    D T 502       5.157   5.479   0.403  1.00 29.15     0.028 A 
ENDBRANCH   1   2
BRANCH   1  10
HETATM   10  C8    D T 502       6.994   5.491   2.795  1.00 22.86     0.111 A 
HETATM   11  C9    D T 502       6.497   4.597   3.788  1.00 16.25     0.081 A 
HETATM   12  C10   D T 502       7.337   3.589   4.292  1.00 16.94     0.025 A 
HETATM   13 CL16   D T 502       4.890   4.759   4.408  1.00  2.00    -0.080 Cl
HETATM   14  C11   D T 502       8.668   3.476   3.809  1.00 21.46     0.059 A 
HETATM   15  C12   D T 502       9.159   4.367   2.821  1.00 21.21     0.013 A 
HETATM   16 CL15   D T 502       9.707   2.253   4.452  1.00  9.25    -0.082 Cl
HETATM   17  C13   D T 502       8.320   5.376   2.313  1.00 21.49     0.026 A 
ENDBRANCH   1  10
TORSDOF 2
ENDMDL
MODEL 8
REMARK VINA RESULT:      -7.1      1.532      1.834
REMARK  2 active torsions:
REMARK  status: ('A' for Active; 'I' for Inactive)
REMARK    1  A    between atoms: C5_4  and  O7_13 
REMARK    2  A    between atoms: C8_10  and  O7_13 
ROOT
HETATM    1  O7    D T 502       3.411   4.122  -3.372  1.00 24.96    -0.304 OA
ENDROOT
BRANCH   1   2
HETATM    2  C5    D T 502       4.457   4.578  -2.631  1.00 24.69     0.125 A 
HETATM    3  C6    D T 502       4.734   5.937  -2.640  1.00 25.95     0.154 A 
HETATM    4  C1    D T 502       5.761   6.458  -1.821  1.00 27.27     0.041 A 
HETATM    5  O17   D T 502       4.011   6.745  -3.486  1.00 23.71    -0.188 OA
HETATM    6  C2    D T 502       6.495   5.591  -1.001  1.00 21.79     0.060 A 
HETATM    7  C3    D T 502       6.220   4.224  -1.003  1.00 27.99     0.014 A 
HETATM    8 CL14   D T 502       7.732   6.208   0.017  1.00  9.14    -0.082 Cl
HETATM    9  C4    D T 502       5.189   3.709  -1.819  1.00 29.15     0.028 A 
ENDBRANCH   1   2
BRANCH   1  10
HETATM   10  C8    D T 502       3.660   3.508  -4.566  1.00 22.86     0.111 A 
HETATM   11  C9    D T 502       3.434   2.103  -4.657  1.00 16.25     0.081 A 
HETATM   12  C10   D T 502       3.701   1.438  -5.866  1.00 16.94     0.025 A 
HETATM   13 CL16   D T 502       2.873   1.201  -3.292  1.00  2.00    -0.080 Cl
HETATM   14  C11   D T 502       4.195   2.171  -6.978  1.00 21.46     0.059 A 
HETATM   15  C12   D T 502       4.419   3.568  -6.884  1.00 21.21     0.013 A 
HETATM   16 CL15   D T 502       4.549   1.344  -8.454  1.00  9.25    -0.082 Cl
HETATM   17  C13   D T 502       4.151   4.237  -5.676  1.00 21.49     0.026 A 
ENDBRANCH   1  10
TORSDOF 2
ENDMDL
MODEL 9
REMARK VINA RESULT:      -7.1      5.847      7.801
REMARK  2 active torsions:
REMARK  status: ('A' for Active; 'I' for Inactive)
REMARK    1  A    between atoms: C5_4  and  O7_13 
REMARK    2  A    between atoms: C8_10  and  O7_13 
ROOT
HETATM    1  O7    D T 502       6.752   7.468   2.210  1.00 24.96    -0.304 OA
ENDROOT
BRANCH   1   2
HETATM    2  C5    D T 502       7.146   6.200   2.504  1.00 24.69     0.125 A 
HETATM    3  C6    D T 502       6.279   5.384   3.216  1.00 25.95     0.154 A 
HETATM    4  C1    D T 502       6.621   4.036   3.470  1.00 27.27     0.041 A 
HETATM    5  O17   D T 502       5.111   5.930   3.692  1.00 23.71    -0.188 OA
HETATM    6  C2    D T 502       7.839   3.532   2.996  1.00 21.79     0.060 A 
HETATM    7  C3    D T 502       8.711   4.359   2.288  1.00 27.99     0.014 A 
HETATM    8 CL14   D T 502       8.260   1.892   3.274  1.00  9.14    -0.082 Cl
HETATM    9  C4    D T 502       8.364   5.703   2.033  1.00 29.15     0.028 A 
ENDBRANCH   1   2
BRANCH   1  10
HETATM   10  C8    D T 502       6.394   7.773   0.929  1.00 22.86     0.111 A 
HETATM   11  C9    D T 502       7.156   8.760   0.236  1.00 16.25     0.081 A 
HETATM   12  C10   D T 502       6.801   9.112  -1.077  1.00 16.94     0.025 A 
HETATM   13 CL16   D T 502       8.487   9.556   1.004  1.00  2.00    -0.080 Cl
HETATM   14  C11   D T 502       5.687   8.484  -1.696  1.00 21.46     0.059 A 
HETATM   15  C12   D T 502       4.931   7.503  -1.005  1.00 21.21     0.013 A 
HETATM   16 CL15   D T 502       5.236   8.940  -3.301  1.00  9.25    -0.082 Cl
HETATM   17  C13   D T 502       5.286   7.147   0.309  1.00 21.49     0.026 A 
ENDBRANCH   1  10
TORSDOF 2
ENDMDL
