MODEL 1
REMARK VINA RESULT:      -7.7      0.000      0.000
REMARK  2 active torsions:
REMARK  status: ('A' for Active; 'I' for Inactive)
REMARK    1  A    between atoms: C5_4  and  O7_13 
REMARK    2  A    between atoms: C8_10  and  O7_13 
ROOT
HETATM    1  O7    D T 502       3.136   3.674  -3.525  1.00 24.96    -0.304 OA
ENDROOT
BRANCH   1   2
HETATM    2  C5    D T 502       2.956   5.002  -3.286  1.00 24.69     0.125 A 
HETATM    3  C6    D T 502       1.663   5.475  -3.115  1.00 25.95     0.154 A 
HETATM    4  C1    D T 502       1.443   6.833  -2.786  1.00 27.27     0.041 A 
HETATM    5  O17   D T 502       0.617   4.604  -3.306  1.00 23.71    -0.188 OA
HETATM    6  C2    D T 502       2.539   7.693  -2.635  1.00 21.79     0.060 A 
HETATM    7  C3    D T 502       3.836   7.213  -2.820  1.00 27.99     0.014 A 
HETATM    8 CL14   D T 502       2.293   9.338  -2.215  1.00  9.14    -0.082 Cl
HETATM    9  C4    D T 502       4.051   5.856  -3.142  1.00 29.15     0.028 A 
ENDBRANCH   1   2
BRANCH   1  10
HETATM   10  C8    D T 502       3.062   3.214  -4.808  1.00 22.86     0.111 A 
HETATM   11  C9    D T 502       2.820   1.823  -5.009  1.00 16.25     0.081 A 
HETATM   12  C10   D T 502       2.762   1.314  -6.317  1.00 16.94     0.025 A 
HETATM   13 CL16   D T 502       2.636   0.749  -3.665  1.00  2.00    -0.080 Cl
HETATM   14  C11   D T 502       2.947   2.187  -7.421  1.00 21.46     0.059 A 
HETATM   15  C12   D T 502       3.188   3.572  -7.219  1.00 21.21     0.013 A 
HETATM   16 CL15   D T 502       2.902   1.554  -9.029  1.00  9.25    -0.082 Cl
HETATM   17  C13   D T 502       3.245   4.084  -5.910  1.00 21.49     0.026 A 
ENDBRANCH   1  10
TORSDOF 2
ENDMDL
MODEL 2
REMARK VINA RESULT:      -7.6      1.536      2.080
REMARK  2 active torsions:
REMARK  status: ('A' for Active; 'I' for Inactive)
REMARK    1  A    between atoms: C5_4  and  O7_13 
REMARK    2  A    between atoms: C8_10  and  O7_13 
ROOT
HETATM    1  O7    D T 502       3.810   3.664  -4.413  1.00 24.96    -0.304 OA
ENDROOT
BRANCH   1   2
HETATM    2  C5    D T 502       2.851   4.395  -3.782  1.00 24.69     0.125 A 
HETATM    3  C6    D T 502       3.246   5.462  -2.989  1.00 25.95     0.154 A 
HETATM    4  C1    D T 502       2.275   6.293  -2.384  1.00 27.27     0.041 A 
HETATM    5  O17   D T 502       4.591   5.663  -2.785  1.00 23.71    -0.188 OA
HETATM    6  C2    D T 502       0.915   6.030  -2.591  1.00 21.79     0.060 A 
HETATM    7  C3    D T 502       0.524   4.948  -3.381  1.00 27.99     0.014 A 
HETATM    8 CL14   D T 502      -0.278   7.040  -1.883  1.00  9.14    -0.082 Cl
HETATM    9  C4    D T 502       1.496   4.125  -3.988  1.00 29.15     0.028 A 
ENDBRANCH   1   2
BRANCH   1  10
HETATM   10  C8    D T 502       3.474   2.945  -5.524  1.00 22.86     0.111 A 
HETATM   11  C9    D T 502       3.293   1.538  -5.383  1.00 16.25     0.081 A 
HETATM   12  C10   D T 502       2.970   0.766  -6.512  1.00 16.94     0.025 A 
HETATM   13 CL16   D T 502       3.506   0.763  -3.851  1.00  2.00    -0.080 Cl
HETATM   14  C11   D T 502       2.829   1.395  -7.778  1.00 21.46     0.059 A 
HETATM   15  C12   D T 502       3.010   2.797  -7.916  1.00 21.21     0.013 A 
HETATM   16 CL15   D T 502       2.457   0.440  -9.169  1.00  9.25    -0.082 Cl
HETATM   17  C13   D T 502       3.332   3.571  -6.786  1.00 21.49     0.026 A 
ENDBRANCH   1  10
TORSDOF 2
ENDMDL
MODEL 3
REMARK VINA RESULT:      -7.5      1.235      5.809
REMARK  2 active torsions:
REMARK  status: ('A' for Active; 'I' for Inactive)
REMARK    1  A    between atoms: C5_4  and  O7_13 
REMARK    2  A    between atoms: C8_10  and  O7_13 
ROOT
HETATM    1  O7    D T 502       3.354   3.592  -3.524  1.00 24.96    -0.304 OA
ENDROOT
BRANCH   1   2
HETATM    2  C5    D T 502       3.314   3.206  -4.828  1.00 24.69     0.125 A 
HETATM    3  C6    D T 502       3.172   1.856  -5.115  1.00 25.95     0.154 A 
HETATM    4  C1    D T 502       3.046   1.426  -6.456  1.00 27.27     0.041 A 
HETATM    5  O17   D T 502       3.193   0.960  -4.072  1.00 23.71    -0.188 OA
HETATM    6  C2    D T 502       3.066   2.371  -7.489  1.00 21.79     0.060 A 
HETATM    7  C3    D T 502       3.219   3.726  -7.195  1.00 27.99     0.014 A 
HETATM    8 CL14   D T 502       2.892   1.870  -9.122  1.00  9.14    -0.082 Cl
HETATM    9  C4    D T 502       3.339   4.152  -5.855  1.00 29.15     0.028 A 
ENDBRANCH   1   2
BRANCH   1  10
HETATM   10  C8    D T 502       3.069   4.889  -3.207  1.00 22.86     0.111 A 
HETATM   11  C9    D T 502       1.700   5.284  -3.164  1.00 16.25     0.081 A 
HETATM   12  C10   D T 502       1.375   6.618  -2.863  1.00 16.94     0.025 A 
HETATM   13 CL16   D T 502       0.438   4.155  -3.517  1.00  2.00    -0.080 Cl
HETATM   14  C11   D T 502       2.411   7.555  -2.608  1.00 21.46     0.059 A 
HETATM   15  C12   D T 502       3.774   7.159  -2.651  1.00 21.21     0.013 A 
HETATM   16 CL15   D T 502       2.008   9.200  -2.265  1.00  9.25    -0.082 Cl
HETATM   17  C13   D T 502       4.102   5.824  -2.950  1.00 21.49     0.026 A 
ENDBRANCH   1  10
TORSDOF 2
ENDMDL
MODEL 4
REMARK VINA RESULT:      -7.4      5.688      8.102
REMARK  2 active torsions:
REMARK  status: ('A' for Active; 'I' for Inactive)
REMARK    1  A    between atoms: C5_4  and  O7_13 
REMARK    2  A    between atoms: C8_10  and  O7_13 
ROOT
HETATM    1  O7    D T 502       6.021   7.561   1.727  1.00 24.96    -0.304 OA
ENDROOT
BRANCH   1   2
HETATM    2  C5    D T 502       6.697   6.455   2.140  1.00 24.69     0.125 A 
HETATM    3  C6    D T 502       6.035   5.535   2.941  1.00 25.95     0.154 A 
HETATM    4  C1    D T 502       6.679   4.336   3.323  1.00 27.27     0.041 A 
HETATM    5  O17   D T 502       4.765   5.838   3.374  1.00 23.71    -0.188 OA
HETATM    6  C2    D T 502       7.986   4.085   2.887  1.00 21.79     0.060 A 
HETATM    7  C3    D T 502       8.650   5.018   2.091  1.00 27.99     0.014 A 
HETATM    8 CL14   D T 502       8.776   2.624   3.322  1.00  9.14    -0.082 Cl
HETATM    9  C4    D T 502       8.002   6.212   1.707  1.00 29.15     0.028 A 
ENDBRANCH   1   2
BRANCH   1  10
HETATM   10  C8    D T 502       5.549   7.612   0.447  1.00 22.86     0.111 A 
HETATM   11  C9    D T 502       6.214   8.466  -0.480  1.00 16.25     0.081 A 
HETATM   12  C10   D T 502       5.740   8.558  -1.800  1.00 16.94     0.025 A 
HETATM   13 CL16   D T 502       7.572   9.421   0.008  1.00  2.00    -0.080 Cl
HETATM   14  C11   D T 502       4.603   7.802  -2.193  1.00 21.46     0.059 A 
HETATM   15  C12   D T 502       3.943   6.951  -1.268  1.00 21.21     0.013 A 
HETATM   16 CL15   D T 502       4.006   7.937  -3.809  1.00  9.25    -0.082 Cl
HETATM   17  C13   D T 502       4.418   6.857   0.053  1.00 21.49     0.026 A 
ENDBRANCH   1  10
TORSDOF 2
ENDMDL
MODEL 5
REMARK VINA RESULT:      -7.4      1.953      6.192
REMARK  2 active torsions:
REMARK  status: ('A' for Active; 'I' for Inactive)
REMARK    1  A    between atoms: C5_4  and  O7_13 
REMARK    2  A    between atoms: C8_10  and  O7_13 
ROOT
HETATM    1  O7    D T 502       2.390   6.111  -3.597  1.00 24.96    -0.304 OA
ENDROOT
BRANCH   1   2
HETATM    2  C5    D T 502       2.552   5.007  -4.376  1.00 24.69     0.125 A 
HETATM    3  C6    D T 502       1.585   4.013  -4.326  1.00 25.95     0.154 A 
HETATM    4  C1    D T 502       1.678   2.890  -5.180  1.00 27.27     0.041 A 
HETATM    5  O17   D T 502       0.568   4.136  -3.409  1.00 23.71    -0.188 OA
HETATM    6  C2    D T 502       2.751   2.790  -6.075  1.00 21.79     0.060 A 
HETATM    7  C3    D T 502       3.725   3.788  -6.114  1.00 27.99     0.014 A 
HETATM    8 CL14   D T 502       2.869   1.445  -7.135  1.00  9.14    -0.082 Cl
HETATM    9  C4    D T 502       3.626   4.910  -5.263  1.00 29.15     0.028 A 
ENDBRANCH   1   2
BRANCH   1  10
HETATM   10  C8    D T 502       3.445   6.561  -2.856  1.00 22.86     0.111 A 
HETATM   11  C9    D T 502       3.775   7.946  -2.932  1.00 16.25     0.081 A 
HETATM   12  C10   D T 502       4.869   8.437  -2.199  1.00 16.94     0.025 A 
HETATM   13 CL16   D T 502       2.872   9.022  -3.943  1.00  2.00    -0.080 Cl
HETATM   14  C11   D T 502       5.633   7.549  -1.396  1.00 21.46     0.059 A 
HETATM   15  C12   D T 502       5.302   6.170  -1.322  1.00 21.21     0.013 A 
HETATM   16 CL15   D T 502       6.994   8.150  -0.517  1.00  9.25    -0.082 Cl
HETATM   17  C13   D T 502       4.206   5.678  -2.054  1.00 21.49     0.026 A 
ENDBRANCH   1  10
TORSDOF 2
ENDMDL
MODEL 6
REMARK VINA RESULT:      -7.4      1.614      2.388
REMARK  2 active torsions:
REMARK  status: ('A' for Active; 'I' for Inactive)
REMARK    1  A    between atoms: C5_4  and  O7_13 
REMARK    2  A    between atoms: C8_10  and  O7_13 
ROOT
HETATM    1  O7    D T 502       1.741   4.801  -5.235  1.00 24.96    -0.304 OA
ENDROOT
BRANCH   1   2
HETATM    2  C5    D T 502       2.296   5.541  -4.237  1.00 24.69     0.125 A 
HETATM    3  C6    D T 502       1.577   5.717  -3.064  1.00 25.95     0.154 A 
HETATM    4  C1    D T 502       2.154   6.412  -1.976  1.00 27.27     0.041 A 
HETATM    5  O17   D T 502       0.291   5.233  -3.006  1.00 23.71    -0.188 OA
HETATM    6  C2    D T 502       3.455   6.918  -2.092  1.00 21.79     0.060 A 
HETATM    7  C3    D T 502       4.169   6.747  -3.278  1.00 27.99     0.014 A 
HETATM    8 CL14   D T 502       4.180   7.745  -0.775  1.00  9.14    -0.082 Cl
HETATM    9  C4    D T 502       3.591   6.048  -4.360  1.00 29.15     0.028 A 
ENDBRANCH   1   2
BRANCH   1  10
HETATM   10  C8    D T 502       2.152   3.511  -5.412  1.00 22.86     0.111 A 
HETATM   11  C9    D T 502       2.700   3.149  -6.677  1.00 16.25     0.081 A 
HETATM   12  C10   D T 502       3.111   1.823  -6.899  1.00 16.94     0.025 A 
HETATM   13 CL16   D T 502       2.830   4.309  -7.954  1.00  2.00    -0.080 Cl
HETATM   14  C11   D T 502       2.972   0.861  -5.863  1.00 21.46     0.059 A 
HETATM   15  C12   D T 502       2.426   1.224  -4.604  1.00 21.21     0.013 A 
HETATM   16 CL15   D T 502       3.453  -0.774  -6.148  1.00  9.25    -0.082 Cl
HETATM   17  C13   D T 502       2.016   2.551  -4.380  1.00 21.49     0.026 A 
ENDBRANCH   1  10
TORSDOF 2
ENDMDL
MODEL 7
REMARK VINA RESULT:      -7.3      1.604      5.862
REMARK  2 active torsions:
REMARK  status: ('A' for Active; 'I' for Inactive)
REMARK    1  A    between atoms: C5_4  and  O7_13 
REMARK    2  A    between atoms: C8_10  and  O7_13 
ROOT
HETATM    1  O7    D T 502       3.081   3.984  -3.181  1.00 24.96    -0.304 OA
ENDROOT
BRANCH   1   2
HETATM    2  C5    D T 502       3.116   3.524  -4.461  1.00 24.69     0.125 A 
HETATM    3  C6    D T 502       2.605   2.262  -4.725  1.00 25.95     0.154 A 
HETATM    4  C1    D T 502       2.551   1.783  -6.055  1.00 27.27     0.041 A 
HETATM    5  O17   D T 502       2.192   1.488  -3.666  1.00 23.71    -0.188 OA
HETATM    6  C2    D T 502       3.016   2.592  -7.099  1.00 21.79     0.060 A 
HETATM    7  C3    D T 502       3.538   3.857  -6.826  1.00 27.99     0.014 A 
HETATM    8 CL14   D T 502       2.938   2.038  -8.722  1.00  9.14    -0.082 Cl
HETATM    9  C4    D T 502       3.585   4.333  -5.498  1.00 29.15     0.028 A 
ENDBRANCH   1   2
BRANCH   1  10
HETATM   10  C8    D T 502       3.185   5.327  -2.954  1.00 22.86     0.111 A 
HETATM   11  C9    D T 502       4.206   5.780  -2.068  1.00 16.25     0.081 A 
HETATM   12  C10   D T 502       4.325   7.154  -1.796  1.00 16.94     0.025 A 
HETATM   13 CL16   D T 502       5.272   4.660  -1.293  1.00  2.00    -0.080 Cl
HETATM   14  C11   D T 502       3.428   8.072  -2.404  1.00 21.46     0.059 A 
HETATM   15  C12   D T 502       2.413   7.618  -3.287  1.00 21.21     0.013 A 
HETATM   16 CL15   D T 502       3.560   9.758  -2.047  1.00  9.25    -0.082 Cl
HETATM   17  C13   D T 502       2.293   6.243  -3.562  1.00 21.49     0.026 A 
ENDBRANCH   1  10
TORSDOF 2
ENDMDL
MODEL 8
REMARK VINA RESULT:      -7.2      5.116      7.727
REMARK  2 active torsions:
REMARK  status: ('A' for Active; 'I' for Inactive)
REMARK    1  A    between atoms: C5_4  and  O7_13 
REMARK    2  A    between atoms: C8_10  and  O7_13 
ROOT
HETATM    1  O7    D T 502       4.631   7.238   0.689  1.00 24.96    -0.304 OA
ENDROOT
BRANCH   1   2
HETATM    2  C5    D T 502       4.280   6.776  -0.542  1.00 24.69     0.125 A 
HETATM    3  C6    D T 502       3.996   7.698  -1.539  1.00 25.95     0.154 A 
HETATM    4  C1    D T 502       3.707   7.256  -2.851  1.00 27.27     0.041 A 
HETATM    5  O17   D T 502       3.971   9.032  -1.209  1.00 23.71    -0.188 OA
HETATM    6  C2    D T 502       3.710   5.884  -3.134  1.00 21.79     0.060 A 
HETATM    7  C3    D T 502       3.985   4.962  -2.125  1.00 27.99     0.014 A 
HETATM    8 CL14   D T 502       3.383   5.330  -4.726  1.00  9.14    -0.082 Cl
HETATM    9  C4    D T 502       4.279   5.407  -0.818  1.00 29.15     0.028 A 
ENDBRANCH   1   2
BRANCH   1  10
HETATM   10  C8    D T 502       5.664   6.641   1.353  1.00 22.86     0.111 A 
HETATM   11  C9    D T 502       6.993   7.033   1.017  1.00 16.25     0.081 A 
HETATM   12  C10   D T 502       8.079   6.422   1.665  1.00 16.94     0.025 A 
HETATM   13 CL16   D T 502       7.286   8.222  -0.206  1.00  2.00    -0.080 Cl
HETATM   14  C11   D T 502       7.841   5.420   2.644  1.00 21.46     0.059 A 
HETATM   15  C12   D T 502       6.517   5.031   2.977  1.00 21.21     0.013 A 
HETATM   16 CL15   D T 502       9.179   4.651   3.421  1.00  9.25    -0.082 Cl
HETATM   17  C13   D T 502       5.428   5.644   2.330  1.00 21.49     0.026 A 
ENDBRANCH   1  10
TORSDOF 2
ENDMDL
MODEL 9
REMARK VINA RESULT:      -7.2      4.371      6.246
REMARK  2 active torsions:
REMARK  status: ('A' for Active; 'I' for Inactive)
REMARK    1  A    between atoms: C5_4  and  O7_13 
REMARK    2  A    between atoms: C8_10  and  O7_13 
ROOT
HETATM    1  O7    D T 502       4.289   7.718  -0.231  1.00 24.96    -0.304 OA
ENDROOT
BRANCH   1   2
HETATM    2  C5    D T 502       5.522   7.398   0.247  1.00 24.69     0.125 A 
HETATM    3  C6    D T 502       5.619   6.852   1.518  1.00 25.95     0.154 A 
HETATM    4  C1    D T 502       6.875   6.433   2.016  1.00 27.27     0.041 A 
HETATM    5  O17   D T 502       4.478   6.763   2.281  1.00 23.71    -0.188 OA
HETATM    6  C2    D T 502       8.016   6.575   1.217  1.00 21.79     0.060 A 
HETATM    7  C3    D T 502       7.914   7.135  -0.056  1.00 27.99     0.014 A 
HETATM    8 CL14   D T 502       9.545   6.053   1.796  1.00  9.14    -0.082 Cl
HETATM    9  C4    D T 502       6.658   7.546  -0.552  1.00 29.15     0.028 A 
ENDBRANCH   1   2
BRANCH   1  10
HETATM   10  C8    D T 502       3.856   7.141  -1.391  1.00 22.86     0.111 A 
HETATM   11  C9    D T 502       3.280   7.985  -2.385  1.00 16.25     0.081 A 
HETATM   12  C10   D T 502       2.804   7.420  -3.580  1.00 16.94     0.025 A 
HETATM   13 CL16   D T 502       3.123   9.688  -2.123  1.00  2.00    -0.080 Cl
HETATM   14  C11   D T 502       2.900   6.017  -3.782  1.00 21.46     0.059 A 
HETATM   15  C12   D T 502       3.475   5.179  -2.791  1.00 21.21     0.013 A 
HETATM   16 CL15   D T 502       2.290   5.322  -5.242  1.00  9.25    -0.082 Cl
HETATM   17  C13   D T 502       3.953   5.744  -1.594  1.00 21.49     0.026 A 
ENDBRANCH   1  10
TORSDOF 2
ENDMDL
