MODEL 1
REMARK VINA RESULT:    -7.804      0.000      0.000
REMARK INTER + INTRA:          -9.050
REMARK INTER:                  -8.717
REMARK INTRA:                  -0.333
REMARK UNBOUND:                -0.333
REMARK  2 active torsions:
REMARK  status: ('A' for Active; 'I' for Inactive)
REMARK    1  A    between atoms: C5_4  and  O7_13 
REMARK    2  A    between atoms: C8_10  and  O7_13 
ROOT
HETATM    1  O7    D T 502       7.386  14.062 143.545  1.00 24.96    -0.304 OA
ENDROOT
BRANCH   1   2
HETATM    2  C5    D T 502       6.262  14.268 144.285  1.00 24.69     0.125 A 
HETATM    3  C6    D T 502       6.402  14.701 145.596  1.00 25.95     0.154 A 
HETATM    4  C1    D T 502       5.257  15.003 146.368  1.00 27.27     0.041 A 
HETATM    5  O17   D T 502       7.668  14.793 146.122  1.00 23.71    -0.188 OA
HETATM    6  C2    D T 502       3.984  14.860 145.801  1.00 21.79     0.060 A 
HETATM    7  C3    D T 502       3.849  14.415 144.486  1.00 27.99     0.014 A 
HETATM    8 CL14   D T 502       2.583  15.243 146.716  1.00  9.14    -0.082 Cl
HETATM    9  C4    D T 502       4.995  14.120 143.716  1.00 29.15     0.028 A 
ENDBRANCH   1   2
BRANCH   1  10
HETATM   10  C8    D T 502       7.349  14.298 142.201  1.00 22.86     0.111 A 
HETATM   11  C9    D T 502       7.320  13.175 141.323  1.00 16.25     0.081 A 
HETATM   12  C10   D T 502       7.304  13.384 139.934  1.00 16.94     0.025 A 
HETATM   13 CL16   D T 502       7.343  11.560 141.944  1.00  2.00    -0.080 Cl
HETATM   14  C11   D T 502       7.321  14.709 139.421  1.00 21.46     0.059 A 
HETATM   15  C12   D T 502       7.350  15.825 140.297  1.00 21.21     0.013 A 
HETATM   16 CL15   D T 502       7.330  14.962 137.712  1.00  9.25    -0.082 Cl
HETATM   17  C13   D T 502       7.363  15.618 141.688  1.00 21.49     0.026 A 
ENDBRANCH   1  10
TORSDOF 2
ENDMDL
MODEL 2
REMARK VINA RESULT:    -7.798      1.499      5.956
REMARK INTER + INTRA:          -9.043
REMARK INTER:                  -8.744
REMARK INTRA:                  -0.299
REMARK UNBOUND:                -0.333
REMARK  2 active torsions:
REMARK  status: ('A' for Active; 'I' for Inactive)
REMARK    1  A    between atoms: C5_4  and  O7_13 
REMARK    2  A    between atoms: C8_10  and  O7_13 
ROOT
HETATM    1  O7    D T 502       7.339  13.777 143.645  1.00 24.96    -0.304 OA
ENDROOT
BRANCH   1   2
HETATM    2  C5    D T 502       7.407  14.065 142.316  1.00 24.69     0.125 A 
HETATM    3  C6    D T 502       7.404  13.015 141.410  1.00 25.95     0.154 A 
HETATM    4  C1    D T 502       7.392  13.277 140.020  1.00 27.27     0.041 A 
HETATM    5  O17   D T 502       7.447  11.730 141.897  1.00 23.71    -0.188 OA
HETATM    6  C2    D T 502       7.385  14.603 139.569  1.00 21.79     0.060 A 
HETATM    7  C3    D T 502       7.398  15.655 140.485  1.00 27.99     0.014 A 
HETATM    8 CL14   D T 502       7.348  14.942 137.887  1.00  9.14    -0.082 Cl
HETATM    9  C4    D T 502       7.404  15.388 141.871  1.00 29.15     0.028 A 
ENDBRANCH   1   2
BRANCH   1  10
HETATM   10  C8    D T 502       6.233  14.153 144.350  1.00 22.86     0.111 A 
HETATM   11  C9    D T 502       6.405  14.540 145.712  1.00 16.25     0.081 A 
HETATM   12  C10   D T 502       5.284  14.911 146.473  1.00 16.94     0.025 A 
HETATM   13 CL16   D T 502       7.970  14.519 146.451  1.00  2.00    -0.080 Cl
HETATM   14  C11   D T 502       3.994  14.895 145.878  1.00 21.46     0.059 A 
HETATM   15  C12   D T 502       3.825  14.511 144.523  1.00 21.21     0.013 A 
HETATM   16 CL15   D T 502       2.613  15.327 146.824  1.00  9.25    -0.082 Cl
HETATM   17  C13   D T 502       4.946  14.140 143.759  1.00 21.49     0.026 A 
ENDBRANCH   1  10
TORSDOF 2
ENDMDL
MODEL 3
REMARK VINA RESULT:    -7.792      9.356     11.864
REMARK INTER + INTRA:          -9.037
REMARK INTER:                  -8.893
REMARK INTRA:                  -0.144
REMARK UNBOUND:                -0.333
REMARK  2 active torsions:
REMARK  status: ('A' for Active; 'I' for Inactive)
REMARK    1  A    between atoms: C5_4  and  O7_13 
REMARK    2  A    between atoms: C8_10  and  O7_13 
ROOT
HETATM    1  O7    D T 502       5.209  23.076 136.026  1.00 24.96    -0.304 OA
ENDROOT
BRANCH   1   2
HETATM    2  C5    D T 502       6.190  22.191 136.350  1.00 24.69     0.125 A 
HETATM    3  C6    D T 502       7.118  22.554 137.315  1.00 25.95     0.154 A 
HETATM    4  C1    D T 502       8.103  21.630 137.735  1.00 27.27     0.041 A 
HETATM    5  O17   D T 502       7.073  23.832 137.818  1.00 23.71    -0.188 OA
HETATM    6  C2    D T 502       8.134  20.349 137.169  1.00 21.79     0.060 A 
HETATM    7  C3    D T 502       7.204  19.993 136.191  1.00 27.99     0.014 A 
HETATM    8 CL14   D T 502       9.308  19.207 137.681  1.00  9.14    -0.082 Cl
HETATM    9  C4    D T 502       6.220  20.916 135.779  1.00 29.15     0.028 A 
ENDBRANCH   1   2
BRANCH   1  10
HETATM   10  C8    D T 502       4.817  23.187 134.724  1.00 22.86     0.111 A 
HETATM   11  C9    D T 502       5.749  23.720 133.786  1.00 16.25     0.081 A 
HETATM   12  C10   D T 502       5.369  23.868 132.441  1.00 16.94     0.025 A 
HETATM   13 CL16   D T 502       7.326  24.225 134.288  1.00  2.00    -0.080 Cl
HETATM   14  C11   D T 502       4.063  23.487 132.033  1.00 21.46     0.059 A 
HETATM   15  C12   D T 502       3.137  22.955 132.969  1.00 21.21     0.013 A 
HETATM   16 CL15   D T 502       3.590  23.695 130.384  1.00  9.25    -0.082 Cl
HETATM   17  C13   D T 502       3.516  22.805 134.315  1.00 21.49     0.026 A 
ENDBRANCH   1  10
TORSDOF 2
ENDMDL
MODEL 4
REMARK VINA RESULT:    -7.617      9.045     11.919
REMARK INTER + INTRA:          -8.840
REMARK INTER:                  -8.294
REMARK INTRA:                  -0.546
REMARK UNBOUND:                -0.333
REMARK  2 active torsions:
REMARK  status: ('A' for Active; 'I' for Inactive)
REMARK    1  A    between atoms: C5_4  and  O7_13 
REMARK    2  A    between atoms: C8_10  and  O7_13 
ROOT
HETATM    1  O7    D T 502       4.896  22.353 136.380  1.00 24.96    -0.304 OA
ENDROOT
BRANCH   1   2
HETATM    2  C5    D T 502       4.652  22.609 135.066  1.00 24.69     0.125 A 
HETATM    3  C6    D T 502       3.476  22.131 134.506  1.00 25.95     0.154 A 
HETATM    4  C1    D T 502       3.150  22.446 133.166  1.00 27.27     0.041 A 
HETATM    5  O17   D T 502       2.666  21.326 135.271  1.00 23.71    -0.188 OA
HETATM    6  C2    D T 502       4.023  23.241 132.412  1.00 21.79     0.060 A 
HETATM    7  C3    D T 502       5.209  23.710 132.978  1.00 27.99     0.014 A 
HETATM    8 CL14   D T 502       3.633  23.651 130.792  1.00  9.14    -0.082 Cl
HETATM    9  C4    D T 502       5.527  23.398 134.317  1.00 29.15     0.028 A 
ENDBRANCH   1   2
BRANCH   1  10
HETATM   10  C8    D T 502       5.974  21.586 136.718  1.00 22.86     0.111 A 
HETATM   11  C9    D T 502       7.029  22.200 137.455  1.00 16.25     0.081 A 
HETATM   12  C10   D T 502       8.162  21.444 137.799  1.00 16.94     0.025 A 
HETATM   13 CL16   D T 502       6.951  23.872 137.895  1.00  2.00    -0.080 Cl
HETATM   14  C11   D T 502       8.245  20.081 137.407  1.00 21.46     0.059 A 
HETATM   15  C12   D T 502       7.192  19.473 136.675  1.00 21.21     0.013 A 
HETATM   16 CL15   D T 502       9.652  19.162 137.809  1.00  9.25    -0.082 Cl
HETATM   17  C13   D T 502       6.056  20.227 136.331  1.00 21.49     0.026 A 
ENDBRANCH   1  10
TORSDOF 2
ENDMDL
MODEL 5
REMARK VINA RESULT:    -7.604      9.096     11.998
REMARK INTER + INTRA:          -8.826
REMARK INTER:                  -8.344
REMARK INTRA:                  -0.482
REMARK UNBOUND:                -0.333
REMARK  2 active torsions:
REMARK  status: ('A' for Active; 'I' for Inactive)
REMARK    1  A    between atoms: C5_4  and  O7_13 
REMARK    2  A    between atoms: C8_10  and  O7_13 
ROOT
HETATM    1  O7    D T 502       5.823  22.978 136.090  1.00 24.96    -0.304 OA
ENDROOT
BRANCH   1   2
HETATM    2  C5    D T 502       5.279  23.197 134.862  1.00 24.69     0.125 A 
HETATM    3  C6    D T 502       6.098  23.678 133.851  1.00 25.95     0.154 A 
HETATM    4  C1    D T 502       5.588  23.842 132.542  1.00 27.27     0.041 A 
HETATM    5  O17   D T 502       7.393  24.018 134.164  1.00 23.71    -0.188 OA
HETATM    6  C2    D T 502       4.251  23.516 132.277  1.00 21.79     0.060 A 
HETATM    7  C3    D T 502       3.430  23.043 133.300  1.00 27.99     0.014 A 
HETATM    8 CL14   D T 502       3.620  23.687 130.691  1.00  9.14    -0.082 Cl
HETATM    9  C4    D T 502       3.945  22.876 134.604  1.00 29.15     0.028 A 
ENDBRANCH   1   2
BRANCH   1  10
HETATM   10  C8    D T 502       6.101  21.698 136.475  1.00 22.86     0.111 A 
HETATM   11  C9    D T 502       5.282  21.107 137.481  1.00 16.25     0.081 A 
HETATM   12  C10   D T 502       5.556  19.799 137.915  1.00 16.94     0.025 A 
HETATM   13 CL16   D T 502       3.982  21.992 138.202  1.00  2.00    -0.080 Cl
HETATM   14  C11   D T 502       6.645  19.083 137.349  1.00 21.46     0.059 A 
HETATM   15  C12   D T 502       7.458  19.674 136.347  1.00 21.21     0.013 A 
HETATM   16 CL15   D T 502       6.995  17.484 137.905  1.00  9.25    -0.082 Cl
HETATM   17  C13   D T 502       7.185  20.982 135.910  1.00 21.49     0.026 A 
ENDBRANCH   1  10
TORSDOF 2
ENDMDL
MODEL 6
REMARK VINA RESULT:    -7.509      8.967     11.263
REMARK INTER + INTRA:          -8.720
REMARK INTER:                  -8.176
REMARK INTRA:                  -0.544
REMARK UNBOUND:                -0.333
REMARK  2 active torsions:
REMARK  status: ('A' for Active; 'I' for Inactive)
REMARK    1  A    between atoms: C5_4  and  O7_13 
REMARK    2  A    between atoms: C8_10  and  O7_13 
ROOT
HETATM    1  O7    D T 502       5.109  22.450 136.454  1.00 24.96    -0.304 OA
ENDROOT
BRANCH   1   2
HETATM    2  C5    D T 502       6.177  21.644 136.703  1.00 24.69     0.125 A 
HETATM    3  C6    D T 502       7.217  22.140 137.476  1.00 25.95     0.154 A 
HETATM    4  C1    D T 502       8.304  21.306 137.823  1.00 27.27     0.041 A 
HETATM    5  O17   D T 502       7.173  23.460 137.860  1.00 23.71    -0.188 OA
HETATM    6  C2    D T 502       8.323  19.977 137.379  1.00 21.79     0.060 A 
HETATM    7  C3    D T 502       7.280  19.486 136.594  1.00 27.99     0.014 A 
HETATM    8 CL14   D T 502       9.624  18.943 137.808  1.00  9.14    -0.082 Cl
HETATM    9  C4    D T 502       6.194  20.321 136.255  1.00 29.15     0.028 A 
ENDBRANCH   1   2
BRANCH   1  10
HETATM   10  C8    D T 502       4.792  22.752 135.161  1.00 22.86     0.111 A 
HETATM   11  C9    D T 502       3.567  22.245 134.635  1.00 16.25     0.081 A 
HETATM   12  C10   D T 502       3.222  22.519 133.301  1.00 16.94     0.025 A 
HETATM   13 CL16   D T 502       2.521  21.267 135.605  1.00  2.00    -0.080 Cl
HETATM   14  C11   D T 502       4.097  23.293 132.493  1.00 21.46     0.059 A 
HETATM   15  C12   D T 502       5.315  23.796 133.019  1.00 21.21     0.013 A 
HETATM   16 CL15   D T 502       3.682  23.605 130.844  1.00  9.25    -0.082 Cl
HETATM   17  C13   D T 502       5.662  23.525 134.354  1.00 21.49     0.026 A 
ENDBRANCH   1  10
TORSDOF 2
ENDMDL
MODEL 7
REMARK VINA RESULT:    -7.315      8.263     10.365
REMARK INTER + INTRA:          -8.503
REMARK INTER:                  -7.959
REMARK INTRA:                  -0.544
REMARK UNBOUND:                -0.333
REMARK  2 active torsions:
REMARK  status: ('A' for Active; 'I' for Inactive)
REMARK    1  A    between atoms: C5_4  and  O7_13 
REMARK    2  A    between atoms: C8_10  and  O7_13 
ROOT
HETATM    1  O7    D T 502       5.839  20.040 135.718  1.00 24.96    -0.304 OA
ENDROOT
BRANCH   1   2
HETATM    2  C5    D T 502       6.247  20.619 136.880  1.00 24.69     0.125 A 
HETATM    3  C6    D T 502       5.577  20.298 138.051  1.00 25.95     0.154 A 
HETATM    4  C1    D T 502       6.022  20.817 139.288  1.00 27.27     0.041 A 
HETATM    5  O17   D T 502       4.463  19.497 137.968  1.00 23.71    -0.188 OA
HETATM    6  C2    D T 502       7.142  21.659 139.320  1.00 21.79     0.060 A 
HETATM    7  C3    D T 502       7.805  21.987 138.138  1.00 27.99     0.014 A 
HETATM    8 CL14   D T 502       7.710  22.282 140.815  1.00  9.14    -0.082 Cl
HETATM    9  C4    D T 502       7.361  21.461 136.906  1.00 29.15     0.028 A 
ENDBRANCH   1   2
BRANCH   1  10
HETATM   10  C8    D T 502       5.347  20.828 134.719  1.00 22.86     0.111 A 
HETATM   11  C9    D T 502       6.109  20.947 133.520  1.00 16.25     0.081 A 
HETATM   12  C10   D T 502       5.641  21.769 132.481  1.00 16.94     0.025 A 
HETATM   13 CL16   D T 502       7.621  20.125 133.343  1.00  2.00    -0.080 Cl
HETATM   14  C11   D T 502       4.417  22.473 132.639  1.00 21.46     0.059 A 
HETATM   15  C12   D T 502       3.659  22.353 133.833  1.00 21.21     0.013 A 
HETATM   16 CL15   D T 502       3.857  23.505 131.370  1.00  9.25    -0.082 Cl
HETATM   17  C13   D T 502       4.126  21.529 134.873  1.00 21.49     0.026 A 
ENDBRANCH   1  10
TORSDOF 2
ENDMDL
MODEL 8
REMARK VINA RESULT:    -7.312      8.907     10.478
REMARK INTER + INTRA:          -8.500
REMARK INTER:                  -8.290
REMARK INTRA:                  -0.210
REMARK UNBOUND:                -0.333
REMARK  2 active torsions:
REMARK  status: ('A' for Active; 'I' for Inactive)
REMARK    1  A    between atoms: C5_4  and  O7_13 
REMARK    2  A    between atoms: C8_10  and  O7_13 
ROOT
HETATM    1  O7    D T 502       4.061  20.936 136.624  1.00 24.96    -0.304 OA
ENDROOT
BRANCH   1   2
HETATM    2  C5    D T 502       2.902  20.421 137.119  1.00 24.69     0.125 A 
HETATM    3  C6    D T 502       2.978  19.444 138.102  1.00 25.95     0.154 A 
HETATM    4  C1    D T 502       1.797  18.944 138.697  1.00 27.27     0.041 A 
HETATM    5  O17   D T 502       4.217  18.961 138.450  1.00 23.71    -0.188 OA
HETATM    6  C2    D T 502       0.553  19.441 138.285  1.00 21.79     0.060 A 
HETATM    7  C3    D T 502       0.482  20.414 137.289  1.00 27.99     0.014 A 
HETATM    8 CL14   D T 502      -0.890  18.861 139.011  1.00  9.14    -0.082 Cl
HETATM    9  C4    D T 502       1.664  20.915 136.702  1.00 29.15     0.028 A 
ENDBRANCH   1   2
BRANCH   1  10
HETATM   10  C8    D T 502       4.059  21.498 135.380  1.00 22.86     0.111 A 
HETATM   11  C9    D T 502       4.391  22.880 135.269  1.00 16.25     0.081 A 
HETATM   12  C10   D T 502       4.378  23.495 134.006  1.00 16.94     0.025 A 
HETATM   13 CL16   D T 502       4.772  23.819 136.672  1.00  2.00    -0.080 Cl
HETATM   14  C11   D T 502       4.031  22.734 132.857  1.00 21.46     0.059 A 
HETATM   15  C12   D T 502       3.702  21.359 132.970  1.00 21.21     0.013 A 
HETATM   16 CL15   D T 502       3.989  23.500 131.308  1.00  9.25    -0.082 Cl
HETATM   17  C13   D T 502       3.717  20.741 134.234  1.00 21.49     0.026 A 
ENDBRANCH   1  10
TORSDOF 2
ENDMDL
MODEL 9
REMARK VINA RESULT:    -7.259      8.667     11.429
REMARK INTER + INTRA:          -8.441
REMARK INTER:                  -8.039
REMARK INTRA:                  -0.401
REMARK UNBOUND:                -0.333
REMARK  2 active torsions:
REMARK  status: ('A' for Active; 'I' for Inactive)
REMARK    1  A    between atoms: C5_4  and  O7_13 
REMARK    2  A    between atoms: C8_10  and  O7_13 
ROOT
HETATM    1  O7    D T 502       6.090  19.836 135.239  1.00 24.96    -0.304 OA
ENDROOT
BRANCH   1   2
HETATM    2  C5    D T 502       5.646  20.661 134.251  1.00 24.69     0.125 A 
HETATM    3  C6    D T 502       4.284  20.714 133.994  1.00 25.95     0.154 A 
HETATM    4  C1    D T 502       3.778  21.617 133.031  1.00 27.27     0.041 A 
HETATM    5  O17   D T 502       3.457  19.849 134.672  1.00 23.71    -0.188 OA
HETATM    6  C2    D T 502       4.663  22.455 132.340  1.00 21.79     0.060 A 
HETATM    7  C3    D T 502       6.033  22.390 132.594  1.00 27.99     0.014 A 
HETATM    8 CL14   D T 502       4.065  23.573 131.183  1.00  9.14    -0.082 Cl
HETATM    9  C4    D T 502       6.532  21.490 133.560  1.00 29.15     0.028 A 
ENDBRANCH   1   2
BRANCH   1  10
HETATM   10  C8    D T 502       6.429  20.371 136.448  1.00 22.86     0.111 A 
HETATM   11  C9    D T 502       7.692  20.018 137.008  1.00 16.25     0.081 A 
HETATM   12  C10   D T 502       8.062  20.534 138.261  1.00 16.94     0.025 A 
HETATM   13 CL16   D T 502       8.758  18.933 136.182  1.00  2.00    -0.080 Cl
HETATM   14  C11   D T 502       7.173  21.397 138.956  1.00 21.46     0.059 A 
HETATM   15  C12   D T 502       5.917  21.747 138.397  1.00 21.21     0.013 A 
HETATM   16 CL15   D T 502       7.619  22.008 140.510  1.00  9.25    -0.082 Cl
HETATM   17  C13   D T 502       5.546  21.233 137.141  1.00 21.49     0.026 A 
ENDBRANCH   1  10
TORSDOF 2
ENDMDL
