MODEL 1
REMARK VINA RESULT:      -5.2      0.000      0.000
REMARK  8 active torsions:
REMARK  status: ('A' for Active; 'I' for Inactive)
REMARK    1  A    between atoms: C3_5  and  N2_12 
REMARK    2  A    between atoms: N2_12  and  C10_13 
REMARK    3  A    between atoms: C10_13  and  C11_14 
REMARK    4  A    between atoms: C11_14  and  C12_15 
REMARK    5  A    between atoms: C12_15  and  C13_16 
REMARK    6  A    between atoms: C13_16  and  N3_17 
REMARK    7  A    between atoms: N3_17  and  C14_18 
REMARK    8  A    between atoms: N3_17  and  C16_20 
ROOT
HETATM    1 CL     D T1001      11.347   4.194  -2.960  1.00 22.69    -0.082 Cl
HETATM    2  N1    D T1001      12.962   5.716  -7.605  1.00 34.43    -0.244 NA
HETATM    3  C1    D T1001      13.667   6.496  -8.450  1.00 35.26     0.101 A 
HETATM    4  C2    D T1001      14.462   7.537  -7.988  1.00 34.24     0.039 A 
HETATM    5  C3    D T1001      14.547   7.855  -6.564  1.00 31.96     0.079 A 
HETATM    6  C4    D T1001      13.769   7.015  -5.629  1.00 33.68     0.035 A 
HETATM    7  C5    D T1001      13.743   7.171  -4.175  1.00 34.90     0.004 A 
HETATM    8  C6    D T1001      12.989   6.314  -3.360  1.00 32.93     0.012 A 
HETATM    9  C7    D T1001      12.237   5.258  -3.971  1.00 31.88     0.059 A 
HETATM   10  C8    D T1001      12.226   5.059  -5.362  1.00 32.37     0.031 A 
HETATM   11  C9    D T1001      12.982   5.920  -6.203  1.00 35.42     0.084 A 
ENDROOT
BRANCH   5  12
HETATM   12  N2    D T1001      15.318   8.877  -6.079  1.00 30.60    -0.273 NA
BRANCH  12  13
HETATM   13  C10   D T1001      14.948  10.329  -5.956  1.00 29.84     0.103 C 
HETATM   14  C18   D T1001      14.377  10.612  -4.575  1.00 30.59     0.026 C 
BRANCH  13  15
HETATM   15  C11   D T1001      13.993  10.712  -7.096  1.00 31.56     0.026 C 
BRANCH  15  16
HETATM   16  C12   D T1001      14.631  11.157  -8.400  1.00 32.62     0.037 C 
BRANCH  16  17
HETATM   17  C13   D T1001      15.966  11.826  -8.111  1.00 31.65     0.250 C 
BRANCH  17  18
HETATM   18  N3    D T1001      16.907  11.828  -9.282  1.00 36.76     0.137 N 
BRANCH  18  19
HETATM   19  C14   D T1001      17.765  10.546  -9.356  1.00 36.54     0.250 C 
HETATM   20  C15   D T1001      18.482  10.089  -8.089  1.00 37.02     0.037 C 
ENDBRANCH  18  19
BRANCH  18  21
HETATM   21  C16   D T1001      16.268  12.299 -10.558  1.00 33.74     0.250 C 
HETATM   22  C17   D T1001      16.297  13.776 -10.774  1.00 35.69     0.037 C 
ENDBRANCH  18  21
ENDBRANCH  17  18
ENDBRANCH  16  17
ENDBRANCH  15  16
ENDBRANCH  13  15
ENDBRANCH  12  13
ENDBRANCH   5  12
TORSDOF 8
ENDMDL
MODEL 2
REMARK VINA RESULT:      -5.1      1.496      2.645
REMARK  8 active torsions:
REMARK  status: ('A' for Active; 'I' for Inactive)
REMARK    1  A    between atoms: C3_5  and  N2_12 
REMARK    2  A    between atoms: N2_12  and  C10_13 
REMARK    3  A    between atoms: C10_13  and  C11_14 
REMARK    4  A    between atoms: C11_14  and  C12_15 
REMARK    5  A    between atoms: C12_15  and  C13_16 
REMARK    6  A    between atoms: C13_16  and  N3_17 
REMARK    7  A    between atoms: N3_17  and  C14_18 
REMARK    8  A    between atoms: N3_17  and  C16_20 
ROOT
HETATM    1 CL     D T1001      11.311   3.964  -3.020  1.00 22.69    -0.082 Cl
HETATM    2  N1    D T1001      12.868   5.552  -7.662  1.00 34.43    -0.244 NA
HETATM    3  C1    D T1001      13.532   6.367  -8.507  1.00 35.26     0.101 A 
HETATM    4  C2    D T1001      14.259   7.457  -8.045  1.00 34.24     0.039 A 
HETATM    5  C3    D T1001      14.314   7.789  -6.623  1.00 31.96     0.079 A 
HETATM    6  C4    D T1001      13.580   6.909  -5.688  1.00 33.68     0.035 A 
HETATM    7  C5    D T1001      13.533   7.072  -4.236  1.00 34.90     0.004 A 
HETATM    8  C6    D T1001      12.826   6.176  -3.421  1.00 32.93     0.012 A 
HETATM    9  C7    D T1001      12.144   5.073  -4.031  1.00 31.88     0.059 A 
HETATM   10  C8    D T1001      12.155   4.866  -5.420  1.00 32.37     0.031 A 
HETATM   11  C9    D T1001      12.865   5.765  -6.261  1.00 35.42     0.084 A 
ENDROOT
BRANCH   5  12
HETATM   12  N2    D T1001      15.018   8.859  -6.139  1.00 30.60    -0.273 NA
BRANCH  12  13
HETATM   13  C10   D T1001      14.513  10.250  -5.879  1.00 29.84     0.103 C 
HETATM   14  C18   D T1001      14.026  10.885  -7.172  1.00 30.59     0.026 C 
BRANCH  13  15
HETATM   15  C11   D T1001      15.606  11.068  -5.176  1.00 31.56     0.026 C 
BRANCH  15  16
HETATM   16  C12   D T1001      16.471  11.951  -6.058  1.00 32.62     0.037 C 
BRANCH  16  17
HETATM   17  C13   D T1001      17.907  11.452  -6.027  1.00 31.65     0.250 C 
BRANCH  17  18
HETATM   18  N3    D T1001      18.097  10.117  -6.691  1.00 36.76     0.137 N 
BRANCH  18  19
HETATM   19  C14   D T1001      18.245  10.232  -8.224  1.00 36.54     0.250 C 
HETATM   20  C15   D T1001      17.055   9.832  -9.091  1.00 37.02     0.037 C 
ENDBRANCH  18  19
BRANCH  18  21
HETATM   21  C16   D T1001      19.076   9.231  -5.973  1.00 33.74     0.250 C 
HETATM   22  C17   D T1001      18.468   8.091  -5.224  1.00 35.69     0.037 C 
ENDBRANCH  18  21
ENDBRANCH  17  18
ENDBRANCH  16  17
ENDBRANCH  15  16
ENDBRANCH  13  15
ENDBRANCH  12  13
ENDBRANCH   5  12
TORSDOF 8
ENDMDL
MODEL 3
REMARK VINA RESULT:      -5.0      1.267      1.910
REMARK  8 active torsions:
REMARK  status: ('A' for Active; 'I' for Inactive)
REMARK    1  A    between atoms: C3_5  and  N2_12 
REMARK    2  A    between atoms: N2_12  and  C10_13 
REMARK    3  A    between atoms: C10_13  and  C11_14 
REMARK    4  A    between atoms: C11_14  and  C12_15 
REMARK    5  A    between atoms: C12_15  and  C13_16 
REMARK    6  A    between atoms: C13_16  and  N3_17 
REMARK    7  A    between atoms: N3_17  and  C14_18 
REMARK    8  A    between atoms: N3_17  and  C16_20 
ROOT
HETATM    1 CL     D T1001      11.132   3.949  -2.920  1.00 22.69    -0.082 Cl
HETATM    2  N1    D T1001      12.828   5.586  -7.496  1.00 34.43    -0.244 NA
HETATM    3  C1    D T1001      13.570   6.368  -8.307  1.00 35.26     0.101 A 
HETATM    4  C2    D T1001      14.407   7.354  -7.801  1.00 34.24     0.039 A 
HETATM    5  C3    D T1001      14.501   7.611  -6.365  1.00 31.96     0.079 A 
HETATM    6  C4    D T1001      13.684   6.767  -5.467  1.00 33.68     0.035 A 
HETATM    7  C5    D T1001      13.659   6.865  -4.008  1.00 34.90     0.004 A 
HETATM    8  C6    D T1001      12.866   6.010  -3.230  1.00 32.93     0.012 A 
HETATM    9  C7    D T1001      12.071   5.013  -3.885  1.00 31.88     0.059 A 
HETATM   10  C8    D T1001      12.056   4.872  -5.283  1.00 32.37     0.031 A 
HETATM   11  C9    D T1001      12.852   5.732  -6.086  1.00 35.42     0.084 A 
ENDROOT
BRANCH   5  12
HETATM   12  N2    D T1001      15.314   8.578  -5.838  1.00 30.60    -0.273 NA
BRANCH  12  13
HETATM   13  C10   D T1001      16.663   9.015  -6.336  1.00 29.84     0.103 C 
HETATM   14  C18   D T1001      17.647   7.857  -6.278  1.00 30.59     0.026 C 
BRANCH  13  15
HETATM   15  C11   D T1001      17.128  10.245  -5.541  1.00 31.56     0.026 C 
BRANCH  15  16
HETATM   16  C12   D T1001      17.721  11.390  -6.342  1.00 32.62     0.037 C 
BRANCH  16  17
HETATM   17  C13   D T1001      16.629  12.058  -7.162  1.00 31.65     0.250 C 
BRANCH  17  18
HETATM   18  N3    D T1001      16.801  11.895  -8.646  1.00 36.76     0.137 N 
BRANCH  18  19
HETATM   19  C14   D T1001      18.235  11.472  -9.034  1.00 36.54     0.250 C 
HETATM   20  C15   D T1001      18.404  10.468 -10.170  1.00 37.02     0.037 C 
ENDBRANCH  18  19
BRANCH  18  21
HETATM   21  C16   D T1001      15.668  11.152  -9.297  1.00 33.74     0.250 C 
HETATM   22  C17   D T1001      14.418  11.065  -8.486  1.00 35.69     0.037 C 
ENDBRANCH  18  21
ENDBRANCH  17  18
ENDBRANCH  16  17
ENDBRANCH  15  16
ENDBRANCH  13  15
ENDBRANCH  12  13
ENDBRANCH   5  12
TORSDOF 8
ENDMDL
MODEL 4
REMARK VINA RESULT:      -4.9     13.252     15.585
REMARK  8 active torsions:
REMARK  status: ('A' for Active; 'I' for Inactive)
REMARK    1  A    between atoms: C3_5  and  N2_12 
REMARK    2  A    between atoms: N2_12  and  C10_13 
REMARK    3  A    between atoms: C10_13  and  C11_14 
REMARK    4  A    between atoms: C11_14  and  C12_15 
REMARK    5  A    between atoms: C12_15  and  C13_16 
REMARK    6  A    between atoms: C13_16  and  N3_17 
REMARK    7  A    between atoms: N3_17  and  C14_18 
REMARK    8  A    between atoms: N3_17  and  C16_20 
ROOT
HETATM    1 CL     D T1001       5.357  14.252 -18.355  1.00 22.69    -0.082 Cl
HETATM    2  N1    D T1001       5.708  10.360 -21.706  1.00 34.43    -0.244 NA
HETATM    3  C1    D T1001       6.375   9.502 -22.505  1.00 35.26     0.101 A 
HETATM    4  C2    D T1001       7.758   9.549 -22.629  1.00 34.24     0.039 A 
HETATM    5  C3    D T1001       8.552  10.551 -21.921  1.00 31.96     0.079 A 
HETATM    6  C4    D T1001       7.831  11.504 -21.051  1.00 33.68     0.035 A 
HETATM    7  C5    D T1001       8.455  12.559 -20.255  1.00 34.90     0.004 A 
HETATM    8  C6    D T1001       7.694  13.409 -19.440  1.00 32.93     0.012 A 
HETATM    9  C7    D T1001       6.273  13.228 -19.383  1.00 31.88     0.059 A 
HETATM   10  C8    D T1001       5.619  12.230 -20.124  1.00 32.37     0.031 A 
HETATM   11  C9    D T1001       6.375  11.362 -20.957  1.00 35.42     0.084 A 
ENDROOT
BRANCH   5  12
HETATM   12  N2    D T1001       9.915  10.623 -22.027  1.00 30.60    -0.273 NA
BRANCH  12  13
HETATM   13  C10   D T1001      10.941   9.981 -21.135  1.00 29.84     0.103 C 
HETATM   14  C18   D T1001      11.972  11.007 -20.691  1.00 30.59     0.026 C 
BRANCH  13  15
HETATM   15  C11   D T1001      11.560   8.773 -21.854  1.00 31.56     0.026 C 
BRANCH  15  16
HETATM   16  C12   D T1001      11.768   7.518 -21.025  1.00 32.62     0.037 C 
BRANCH  16  17
HETATM   17  C13   D T1001      13.251   7.194 -20.955  1.00 31.65     0.250 C 
BRANCH  17  18
HETATM   18  N3    D T1001      13.789   7.119 -19.553  1.00 36.76     0.137 N 
BRANCH  18  19
HETATM   19  C14   D T1001      14.360   5.725 -19.211  1.00 36.54     0.250 C 
HETATM   20  C15   D T1001      14.542   5.367 -17.738  1.00 37.02     0.037 C 
ENDBRANCH  18  19
BRANCH  18  21
HETATM   21  C16   D T1001      14.618   8.313 -19.170  1.00 33.74     0.250 C 
HETATM   22  C17   D T1001      15.117   9.131 -20.314  1.00 35.69     0.037 C 
ENDBRANCH  18  21
ENDBRANCH  17  18
ENDBRANCH  16  17
ENDBRANCH  15  16
ENDBRANCH  13  15
ENDBRANCH  12  13
ENDBRANCH   5  12
TORSDOF 8
ENDMDL
MODEL 5
REMARK VINA RESULT:      -4.8      3.189      6.528
REMARK  8 active torsions:
REMARK  status: ('A' for Active; 'I' for Inactive)
REMARK    1  A    between atoms: C3_5  and  N2_12 
REMARK    2  A    between atoms: N2_12  and  C10_13 
REMARK    3  A    between atoms: C10_13  and  C11_14 
REMARK    4  A    between atoms: C11_14  and  C12_15 
REMARK    5  A    between atoms: C12_15  and  C13_16 
REMARK    6  A    between atoms: C13_16  and  N3_17 
REMARK    7  A    between atoms: N3_17  and  C14_18 
REMARK    8  A    between atoms: N3_17  and  C16_20 
ROOT
HETATM    1 CL     D T1001      15.252  11.649  -9.511  1.00 22.69    -0.082 Cl
HETATM    2  N1    D T1001      14.773  10.502  -4.516  1.00 34.43    -0.244 NA
HETATM    3  C1    D T1001      15.136   9.889  -3.370  1.00 35.26     0.101 A 
HETATM    4  C2    D T1001      16.234   9.040  -3.316  1.00 34.24     0.039 A 
HETATM    5  C3    D T1001      17.029   8.746  -4.507  1.00 31.96     0.079 A 
HETATM    6  C4    D T1001      16.634   9.404  -5.771  1.00 33.68     0.035 A 
HETATM    7  C5    D T1001      17.317   9.246  -7.054  1.00 34.90     0.004 A 
HETATM    8  C6    D T1001      16.883   9.925  -8.202  1.00 32.93     0.012 A 
HETATM    9  C7    D T1001      15.751  10.798  -8.107  1.00 31.88     0.059 A 
HETATM   10  C8    D T1001      15.057  10.989  -6.901  1.00 32.37     0.031 A 
HETATM   11  C9    D T1001      15.481  10.308  -5.728  1.00 35.42     0.084 A 
ENDROOT
BRANCH   5  12
HETATM   12  N2    D T1001      18.113   7.911  -4.485  1.00 30.60    -0.273 NA
BRANCH  12  13
HETATM   13  C10   D T1001      18.126   6.418  -4.661  1.00 29.84     0.103 C 
HETATM   14  C18   D T1001      18.905   6.041  -5.911  1.00 30.59     0.026 C 
BRANCH  13  15
HETATM   15  C11   D T1001      16.683   5.891  -4.664  1.00 31.56     0.026 C 
BRANCH  15  16
HETATM   16  C12   D T1001      16.039   5.676  -6.022  1.00 32.62     0.037 C 
BRANCH  16  17
HETATM   17  C13   D T1001      14.669   6.336  -6.045  1.00 31.65     0.250 C 
BRANCH  17  18
HETATM   18  N3    D T1001      13.658   5.603  -6.881  1.00 36.76     0.137 N 
BRANCH  18  19
HETATM   19  C14   D T1001      12.466   5.082  -6.048  1.00 36.54     0.250 C 
HETATM   20  C15   D T1001      12.383   5.491  -4.581  1.00 37.02     0.037 C 
ENDBRANCH  18  19
BRANCH  18  21
HETATM   21  C16   D T1001      13.338   6.300  -8.174  1.00 33.74     0.250 C 
HETATM   22  C17   D T1001      13.395   7.791  -8.122  1.00 35.69     0.037 C 
ENDBRANCH  18  21
ENDBRANCH  17  18
ENDBRANCH  16  17
ENDBRANCH  15  16
ENDBRANCH  13  15
ENDBRANCH  12  13
ENDBRANCH   5  12
TORSDOF 8
ENDMDL
MODEL 6
REMARK VINA RESULT:      -4.8     11.149     13.435
REMARK  8 active torsions:
REMARK  status: ('A' for Active; 'I' for Inactive)
REMARK    1  A    between atoms: C3_5  and  N2_12 
REMARK    2  A    between atoms: N2_12  and  C10_13 
REMARK    3  A    between atoms: C10_13  and  C11_14 
REMARK    4  A    between atoms: C11_14  and  C12_15 
REMARK    5  A    between atoms: C12_15  and  C13_16 
REMARK    6  A    between atoms: C13_16  and  N3_17 
REMARK    7  A    between atoms: N3_17  and  C14_18 
REMARK    8  A    between atoms: N3_17  and  C16_20 
ROOT
HETATM    1 CL     D T1001      10.225  10.396 -21.285  1.00 22.69    -0.082 Cl
HETATM    2  N1    D T1001      12.142   5.699 -22.154  1.00 34.43    -0.244 NA
HETATM    3  C1    D T1001      13.048   4.710 -22.006  1.00 35.26     0.101 A 
HETATM    4  C2    D T1001      14.176   4.870 -21.212  1.00 34.24     0.039 A 
HETATM    5  C3    D T1001      14.450   6.130 -20.523  1.00 31.96     0.079 A 
HETATM    6  C4    D T1001      13.469   7.224 -20.686  1.00 33.68     0.035 A 
HETATM    7  C5    D T1001      13.564   8.544 -20.063  1.00 34.90     0.004 A 
HETATM    8  C6    D T1001      12.576   9.519 -20.259  1.00 32.93     0.012 A 
HETATM    9  C7    D T1001      11.445   9.206 -21.082  1.00 31.88     0.059 A 
HETATM   10  C8    D T1001      11.300   7.956 -21.705  1.00 32.37     0.031 A 
HETATM   11  C9    D T1001      12.293   6.957 -21.519  1.00 35.42     0.084 A 
ENDROOT
BRANCH   5  12
HETATM   12  N2    D T1001      15.554   6.318 -19.736  1.00 30.60    -0.273 NA
BRANCH  12  13
HETATM   13  C10   D T1001      15.858   5.678 -18.411  1.00 29.84     0.103 C 
HETATM   14  C18   D T1001      14.569   5.369 -17.666  1.00 30.59     0.026 C 
BRANCH  13  15
HETATM   15  C11   D T1001      16.816   6.578 -17.615  1.00 31.56     0.026 C 
BRANCH  15  16
HETATM   16  C12   D T1001      16.424   8.038 -17.478  1.00 32.62     0.037 C 
BRANCH  16  17
HETATM   17  C13   D T1001      17.499   8.914 -18.102  1.00 31.65     0.250 C 
BRANCH  17  18
HETATM   18  N3    D T1001      18.513   9.423 -17.116  1.00 36.76     0.137 N 
BRANCH  18  19
HETATM   19  C14   D T1001      18.009   9.354 -15.657  1.00 36.54     0.250 C 
HETATM   20  C15   D T1001      17.834  10.666 -14.897  1.00 37.02     0.037 C 
ENDBRANCH  18  19
BRANCH  18  21
HETATM   21  C16   D T1001      19.905   8.922 -17.384  1.00 33.74     0.250 C 
HETATM   22  C17   D T1001      20.642   8.427 -16.184  1.00 35.69     0.037 C 
ENDBRANCH  18  21
ENDBRANCH  17  18
ENDBRANCH  16  17
ENDBRANCH  15  16
ENDBRANCH  13  15
ENDBRANCH  12  13
ENDBRANCH   5  12
TORSDOF 8
ENDMDL
MODEL 7
REMARK VINA RESULT:      -4.6      2.672      4.254
REMARK  8 active torsions:
REMARK  status: ('A' for Active; 'I' for Inactive)
REMARK    1  A    between atoms: C3_5  and  N2_12 
REMARK    2  A    between atoms: N2_12  and  C10_13 
REMARK    3  A    between atoms: C10_13  and  C11_14 
REMARK    4  A    between atoms: C11_14  and  C12_15 
REMARK    5  A    between atoms: C12_15  and  C13_16 
REMARK    6  A    between atoms: C13_16  and  N3_17 
REMARK    7  A    between atoms: N3_17  and  C14_18 
REMARK    8  A    between atoms: N3_17  and  C16_20 
ROOT
HETATM    1 CL     D T1001      12.225   4.846  -6.079  1.00 22.69    -0.082 Cl
HETATM    2  N1    D T1001      16.790   7.089  -5.290  1.00 34.43    -0.244 NA
HETATM    3  C1    D T1001      17.795   7.936  -5.592  1.00 35.26     0.101 A 
HETATM    4  C2    D T1001      17.757   8.735  -6.728  1.00 34.24     0.039 A 
HETATM    5  C3    D T1001      16.638   8.671  -7.666  1.00 31.96     0.079 A 
HETATM    6  C4    D T1001      15.535   7.738  -7.351  1.00 33.68     0.035 A 
HETATM    7  C5    D T1001      14.331   7.551  -8.159  1.00 34.90     0.004 A 
HETATM    8  C6    D T1001      13.324   6.654  -7.774  1.00 32.93     0.012 A 
HETATM    9  C7    D T1001      13.480   5.914  -6.557  1.00 31.88     0.059 A 
HETATM   10  C8    D T1001      14.615   6.054  -5.740  1.00 32.37     0.031 A 
HETATM   11  C9    D T1001      15.646   6.956  -6.116  1.00 35.42     0.084 A 
ENDROOT
BRANCH   5  12
HETATM   12  N2    D T1001      16.574   9.443  -8.795  1.00 30.60    -0.273 NA
BRANCH  12  13
HETATM   13  C10   D T1001      16.592  10.943  -8.884  1.00 29.84     0.103 C 
HETATM   14  C18   D T1001      15.200  11.471  -9.191  1.00 30.59     0.026 C 
BRANCH  13  15
HETATM   15  C11   D T1001      17.646  11.382  -9.912  1.00 31.56     0.026 C 
BRANCH  15  16
HETATM   16  C12   D T1001      18.616  10.317 -10.392  1.00 32.62     0.037 C 
BRANCH  16  17
HETATM   17  C13   D T1001      19.328  10.804 -11.645  1.00 31.65     0.250 C 
BRANCH  17  18
HETATM   18  N3    D T1001      18.504  10.680 -12.895  1.00 36.76     0.137 N 
BRANCH  18  19
HETATM   19  C14   D T1001      18.196  12.049 -13.541  1.00 36.54     0.250 C 
HETATM   20  C15   D T1001      16.778  12.598 -13.417  1.00 37.02     0.037 C 
ENDBRANCH  18  19
BRANCH  18  21
HETATM   21  C16   D T1001      18.971   9.581 -13.808  1.00 33.74     0.250 C 
HETATM   22  C17   D T1001      18.301   9.537 -15.141  1.00 35.69     0.037 C 
ENDBRANCH  18  21
ENDBRANCH  17  18
ENDBRANCH  16  17
ENDBRANCH  15  16
ENDBRANCH  13  15
ENDBRANCH  12  13
ENDBRANCH   5  12
TORSDOF 8
ENDMDL
MODEL 8
REMARK VINA RESULT:      -4.6      2.186      4.411
REMARK  8 active torsions:
REMARK  status: ('A' for Active; 'I' for Inactive)
REMARK    1  A    between atoms: C3_5  and  N2_12 
REMARK    2  A    between atoms: N2_12  and  C10_13 
REMARK    3  A    between atoms: C10_13  and  C11_14 
REMARK    4  A    between atoms: C11_14  and  C12_15 
REMARK    5  A    between atoms: C12_15  and  C13_16 
REMARK    6  A    between atoms: C13_16  and  N3_17 
REMARK    7  A    between atoms: N3_17  and  C14_18 
REMARK    8  A    between atoms: N3_17  and  C16_20 
ROOT
HETATM    1 CL     D T1001      12.319   5.109  -6.329  1.00 22.69    -0.082 Cl
HETATM    2  N1    D T1001      17.045   7.003  -5.570  1.00 34.43    -0.244 NA
HETATM    3  C1    D T1001      18.069   7.847  -5.814  1.00 35.26     0.101 A 
HETATM    4  C2    D T1001      17.989   8.822  -6.799  1.00 34.24     0.039 A 
HETATM    5  C3    D T1001      16.801   8.959  -7.640  1.00 31.96     0.079 A 
HETATM    6  C4    D T1001      15.677   8.033  -7.389  1.00 33.68     0.035 A 
HETATM    7  C5    D T1001      14.407   8.030  -8.114  1.00 34.90     0.004 A 
HETATM    8  C6    D T1001      13.384   7.124  -7.797  1.00 32.93     0.012 A 
HETATM    9  C7    D T1001      13.592   6.189  -6.731  1.00 31.88     0.059 A 
HETATM   10  C8    D T1001      14.789   6.146  -5.999  1.00 32.37     0.031 A 
HETATM   11  C9    D T1001      15.837   7.055  -6.309  1.00 35.42     0.084 A 
ENDROOT
BRANCH   5  12
HETATM   12  N2    D T1001      16.695   9.908  -8.622  1.00 30.60    -0.273 NA
BRANCH  12  13
HETATM   13  C10   D T1001      16.355  11.363  -8.460  1.00 29.84     0.103 C 
HETATM   14  C18   D T1001      15.621  11.874  -9.690  1.00 30.59     0.026 C 
BRANCH  13  15
HETATM   15  C11   D T1001      17.632  12.155  -8.144  1.00 31.56     0.026 C 
BRANCH  15  16
HETATM   16  C12   D T1001      17.825  12.593  -6.703  1.00 32.62     0.037 C 
BRANCH  16  17
HETATM   17  C13   D T1001      16.529  12.397  -5.934  1.00 31.65     0.250 C 
BRANCH  17  18
HETATM   18  N3    D T1001      16.673  11.526  -4.718  1.00 36.76     0.137 N 
BRANCH  18  19
HETATM   19  C14   D T1001      17.099  12.322  -3.464  1.00 36.54     0.250 C 
HETATM   20  C15   D T1001      16.165  13.419  -2.961  1.00 37.02     0.037 C 
ENDBRANCH  18  19
BRANCH  18  21
HETATM   21  C16   D T1001      15.549  10.542  -4.555  1.00 33.74     0.250 C 
HETATM   22  C17   D T1001      14.337  10.822  -5.380  1.00 35.69     0.037 C 
ENDBRANCH  18  21
ENDBRANCH  17  18
ENDBRANCH  16  17
ENDBRANCH  15  16
ENDBRANCH  13  15
ENDBRANCH  12  13
ENDBRANCH   5  12
TORSDOF 8
ENDMDL
MODEL 9
REMARK VINA RESULT:      -4.6      3.932      8.541
REMARK  8 active torsions:
REMARK  status: ('A' for Active; 'I' for Inactive)
REMARK    1  A    between atoms: C3_5  and  N2_12 
REMARK    2  A    between atoms: N2_12  and  C10_13 
REMARK    3  A    between atoms: C10_13  and  C11_14 
REMARK    4  A    between atoms: C11_14  and  C12_15 
REMARK    5  A    between atoms: C12_15  and  C13_16 
REMARK    6  A    between atoms: C13_16  and  N3_17 
REMARK    7  A    between atoms: N3_17  and  C14_18 
REMARK    8  A    between atoms: N3_17  and  C16_20 
ROOT
HETATM    1 CL     D T1001      14.749  15.401 -14.513  1.00 22.69    -0.082 Cl
HETATM    2  N1    D T1001      18.327  12.193 -12.671  1.00 34.43    -0.244 NA
HETATM    3  C1    D T1001      18.846  11.349 -11.755  1.00 35.26     0.101 A 
HETATM    4  C2    D T1001      18.185  11.070 -10.566  1.00 34.24     0.039 A 
HETATM    5  C3    D T1001      16.909  11.703 -10.237  1.00 31.96     0.079 A 
HETATM    6  C4    D T1001      16.336  12.638 -11.229  1.00 33.68     0.035 A 
HETATM    7  C5    D T1001      15.066  13.349 -11.084  1.00 34.90     0.004 A 
HETATM    8  C6    D T1001      14.588  14.206 -12.085  1.00 32.93     0.012 A 
HETATM    9  C7    D T1001      15.362  14.377 -13.280  1.00 31.88     0.059 A 
HETATM   10  C8    D T1001      16.587  13.720 -13.475  1.00 32.37     0.031 A 
HETATM   11  C9    D T1001      17.088  12.849 -12.469  1.00 35.42     0.084 A 
ENDROOT
BRANCH   5  12
HETATM   12  N2    D T1001      16.236  11.450  -9.072  1.00 30.60    -0.273 NA
BRANCH  12  13
HETATM   13  C10   D T1001      15.187  10.403  -8.825  1.00 29.84     0.103 C 
HETATM   14  C18   D T1001      14.185  10.892  -7.792  1.00 30.59     0.026 C 
BRANCH  13  15
HETATM   15  C11   D T1001      15.866   9.082  -8.433  1.00 31.56     0.026 C 
BRANCH  15  16
HETATM   16  C12   D T1001      14.977   7.853  -8.362  1.00 32.62     0.037 C 
BRANCH  16  17
HETATM   17  C13   D T1001      15.643   6.791  -7.501  1.00 31.65     0.250 C 
BRANCH  17  18
HETATM   18  N3    D T1001      14.743   6.217  -6.444  1.00 36.76     0.137 N 
BRANCH  18  19
HETATM   19  C14   D T1001      15.048   6.777  -5.037  1.00 36.54     0.250 C 
HETATM   20  C15   D T1001      14.380   8.086  -4.627  1.00 37.02     0.037 C 
ENDBRANCH  18  19
BRANCH  18  21
HETATM   21  C16   D T1001      13.300   6.157  -6.860  1.00 33.74     0.250 C 
HETATM   22  C17   D T1001      12.474   5.145  -6.139  1.00 35.69     0.037 C 
ENDBRANCH  18  21
ENDBRANCH  17  18
ENDBRANCH  16  17
ENDBRANCH  15  16
ENDBRANCH  13  15
ENDBRANCH  12  13
ENDBRANCH   5  12
TORSDOF 8
ENDMDL
