MODEL 1
REMARK VINA RESULT:      -4.6      0.000      0.000
REMARK  8 active torsions:
REMARK  status: ('A' for Active; 'I' for Inactive)
REMARK    1  A    between atoms: C3_5  and  N2_12 
REMARK    2  A    between atoms: N2_12  and  C10_13 
REMARK    3  A    between atoms: C10_13  and  C11_14 
REMARK    4  A    between atoms: C11_14  and  C12_15 
REMARK    5  A    between atoms: C12_15  and  C13_16 
REMARK    6  A    between atoms: C13_16  and  N3_17 
REMARK    7  A    between atoms: N3_17  and  C14_18 
REMARK    8  A    between atoms: N3_17  and  C16_20 
ROOT
HETATM    1 CL     D T1001      12.427   4.185  -5.989  1.00 22.69    -0.082 Cl
HETATM    2  N1    D T1001      17.137   6.244  -5.729  1.00 34.43    -0.244 NA
HETATM    3  C1    D T1001      18.105   7.109  -6.094  1.00 35.26     0.101 A 
HETATM    4  C2    D T1001      17.905   8.046  -7.099  1.00 34.24     0.039 A 
HETATM    5  C3    D T1001      16.642   8.118  -7.831  1.00 31.96     0.079 A 
HETATM    6  C4    D T1001      15.576   7.168  -7.448  1.00 33.68     0.035 A 
HETATM    7  C5    D T1001      14.246   7.101  -8.052  1.00 34.90     0.004 A 
HETATM    8  C6    D T1001      13.287   6.178  -7.613  1.00 32.93     0.012 A 
HETATM    9  C7    D T1001      13.621   5.288  -6.541  1.00 31.88     0.059 A 
HETATM   10  C8    D T1001      14.881   5.306  -5.921  1.00 32.37     0.031 A 
HETATM   11  C9    D T1001      15.865   6.234  -6.356  1.00 35.42     0.084 A 
ENDROOT
BRANCH   5  12
HETATM   12  N2    D T1001      16.416   9.028  -8.829  1.00 30.60    -0.273 NA
BRANCH  12  13
HETATM   13  C10   D T1001      15.609  10.293  -8.753  1.00 29.84     0.103 C 
HETATM   14  C18   D T1001      16.134  11.315  -9.750  1.00 30.59     0.026 C 
BRANCH  13  15
HETATM   15  C11   D T1001      15.601  10.810  -7.306  1.00 31.56     0.026 C 
BRANCH  15  16
HETATM   16  C12   D T1001      14.393  10.452  -6.460  1.00 32.62     0.037 C 
BRANCH  16  17
HETATM   17  C13   D T1001      14.758  10.543  -4.986  1.00 31.65     0.250 C 
BRANCH  17  18
HETATM   18  N3    D T1001      15.256   9.249  -4.406  1.00 36.76     0.137 N 
BRANCH  18  19
HETATM   19  C14   D T1001      16.651   9.387  -3.757  1.00 36.54     0.250 C 
HETATM   20  C15   D T1001      17.488  10.611  -4.114  1.00 37.02     0.037 C 
ENDBRANCH  18  19
BRANCH  18  21
HETATM   21  C16   D T1001      14.208   8.506  -3.625  1.00 33.74     0.250 C 
HETATM   22  C17   D T1001      14.683   7.258  -2.956  1.00 35.69     0.037 C 
ENDBRANCH  18  21
ENDBRANCH  17  18
ENDBRANCH  16  17
ENDBRANCH  15  16
ENDBRANCH  13  15
ENDBRANCH  12  13
ENDBRANCH   5  12
TORSDOF 8
ENDMDL
MODEL 2
REMARK VINA RESULT:      -4.3     13.618     16.363
REMARK  8 active torsions:
REMARK  status: ('A' for Active; 'I' for Inactive)
REMARK    1  A    between atoms: C3_5  and  N2_12 
REMARK    2  A    between atoms: N2_12  and  C10_13 
REMARK    3  A    between atoms: C10_13  and  C11_14 
REMARK    4  A    between atoms: C11_14  and  C12_15 
REMARK    5  A    between atoms: C12_15  and  C13_16 
REMARK    6  A    between atoms: C13_16  and  N3_17 
REMARK    7  A    between atoms: N3_17  and  C14_18 
REMARK    8  A    between atoms: N3_17  and  C16_20 
ROOT
HETATM    1 CL     D T1001       5.798  13.790 -18.561  1.00 22.69    -0.082 Cl
HETATM    2  N1    D T1001       6.247   9.745 -21.711  1.00 34.43    -0.244 NA
HETATM    3  C1    D T1001       6.937   8.863 -22.464  1.00 35.26     0.101 A 
HETATM    4  C2    D T1001       8.319   8.933 -22.586  1.00 34.24     0.039 A 
HETATM    5  C3    D T1001       9.088   9.986 -21.927  1.00 31.96     0.079 A 
HETATM    6  C4    D T1001       8.343  10.965 -21.108  1.00 33.68     0.035 A 
HETATM    7  C5    D T1001       8.941  12.073 -20.363  1.00 34.90     0.004 A 
HETATM    8  C6    D T1001       8.158  12.946 -19.594  1.00 32.93     0.012 A 
HETATM    9  C7    D T1001       6.742  12.736 -19.533  1.00 31.88     0.059 A 
HETATM   10  C8    D T1001       6.112  11.689 -20.225  1.00 32.37     0.031 A 
HETATM   11  C9    D T1001       6.891  10.797 -21.012  1.00 35.42     0.084 A 
ENDROOT
BRANCH   5  12
HETATM   12  N2    D T1001      10.450  10.082 -22.031  1.00 30.60    -0.273 NA
BRANCH  12  13
HETATM   13  C10   D T1001      11.486   9.475 -21.128  1.00 29.84     0.103 C 
HETATM   14  C18   D T1001      12.460  10.542 -20.650  1.00 30.59     0.026 C 
BRANCH  13  15
HETATM   15  C11   D T1001      12.175   8.308 -21.850  1.00 31.56     0.026 C 
BRANCH  15  16
HETATM   16  C12   D T1001      12.227   6.983 -21.111  1.00 32.62     0.037 C 
BRANCH  16  17
HETATM   17  C13   D T1001      13.408   6.981 -20.152  1.00 31.65     0.250 C 
BRANCH  17  18
HETATM   18  N3    D T1001      14.336   5.813 -20.339  1.00 36.76     0.137 N 
BRANCH  18  19
HETATM   19  C14   D T1001      14.758   5.171 -18.999  1.00 36.54     0.250 C 
HETATM   20  C15   D T1001      15.578   6.014 -18.029  1.00 37.02     0.037 C 
ENDBRANCH  18  19
BRANCH  18  21
HETATM   21  C16   D T1001      13.907   4.883 -21.439  1.00 33.74     0.250 C 
HETATM   22  C17   D T1001      14.295   3.453 -21.248  1.00 35.69     0.037 C 
ENDBRANCH  18  21
ENDBRANCH  17  18
ENDBRANCH  16  17
ENDBRANCH  15  16
ENDBRANCH  13  15
ENDBRANCH  12  13
ENDBRANCH   5  12
TORSDOF 8
ENDMDL
MODEL 3
REMARK VINA RESULT:      -4.3      2.772      5.584
REMARK  8 active torsions:
REMARK  status: ('A' for Active; 'I' for Inactive)
REMARK    1  A    between atoms: C3_5  and  N2_12 
REMARK    2  A    between atoms: N2_12  and  C10_13 
REMARK    3  A    between atoms: C10_13  and  C11_14 
REMARK    4  A    between atoms: C11_14  and  C12_15 
REMARK    5  A    between atoms: C12_15  and  C13_16 
REMARK    6  A    between atoms: C13_16  and  N3_17 
REMARK    7  A    between atoms: N3_17  and  C14_18 
REMARK    8  A    between atoms: N3_17  and  C16_20 
ROOT
HETATM    1 CL     D T1001      20.174   9.755 -10.354  1.00 22.69    -0.082 Cl
HETATM    2  N1    D T1001      15.267  10.398  -8.944  1.00 34.43    -0.244 NA
HETATM    3  C1    D T1001      14.261  10.473  -8.048  1.00 35.26     0.101 A 
HETATM    4  C2    D T1001      14.480  10.293  -6.688  1.00 34.24     0.039 A 
HETATM    5  C3    D T1001      15.810   9.983  -6.167  1.00 31.96     0.079 A 
HETATM    6  C4    D T1001      16.919   9.887  -7.140  1.00 33.68     0.035 A 
HETATM    7  C5    D T1001      18.314   9.604  -6.806  1.00 34.90     0.004 A 
HETATM    8  C6    D T1001      19.308   9.551  -7.794  1.00 32.93     0.012 A 
HETATM    9  C7    D T1001      18.943   9.789  -9.159  1.00 31.88     0.059 A 
HETATM   10  C8    D T1001      17.621  10.067  -9.540  1.00 32.37     0.031 A 
HETATM   11  C9    D T1001      16.601  10.122  -8.551  1.00 35.42     0.084 A 
ENDROOT
BRANCH   5  12
HETATM   12  N2    D T1001      16.057   9.796  -4.833  1.00 30.60    -0.273 NA
BRANCH  12  13
HETATM   13  C10   D T1001      15.948   8.520  -4.049  1.00 29.84     0.103 C 
HETATM   14  C18   D T1001      17.315   8.104  -3.525  1.00 30.59     0.026 C 
BRANCH  13  15
HETATM   15  C11   D T1001      15.281   7.441  -4.916  1.00 31.56     0.026 C 
BRANCH  15  16
HETATM   16  C12   D T1001      16.131   6.238  -5.283  1.00 32.62     0.037 C 
BRANCH  16  17
HETATM   17  C13   D T1001      15.433   5.431  -6.366  1.00 31.65     0.250 C 
BRANCH  17  18
HETATM   18  N3    D T1001      13.985   5.791  -6.548  1.00 36.76     0.137 N 
BRANCH  18  19
HETATM   19  C14   D T1001      13.693   6.386  -7.944  1.00 36.54     0.250 C 
HETATM   20  C15   D T1001      14.873   6.886  -8.770  1.00 37.02     0.037 C 
ENDBRANCH  18  19
BRANCH  18  21
HETATM   21  C16   D T1001      13.041   4.736  -6.043  1.00 33.74     0.250 C 
HETATM   22  C17   D T1001      12.505   4.970  -4.669  1.00 35.69     0.037 C 
ENDBRANCH  18  21
ENDBRANCH  17  18
ENDBRANCH  16  17
ENDBRANCH  15  16
ENDBRANCH  13  15
ENDBRANCH  12  13
ENDBRANCH   5  12
TORSDOF 8
ENDMDL
MODEL 4
REMARK VINA RESULT:      -4.3     11.313     13.633
REMARK  8 active torsions:
REMARK  status: ('A' for Active; 'I' for Inactive)
REMARK    1  A    between atoms: C3_5  and  N2_12 
REMARK    2  A    between atoms: N2_12  and  C10_13 
REMARK    3  A    between atoms: C10_13  and  C11_14 
REMARK    4  A    between atoms: C11_14  and  C12_15 
REMARK    5  A    between atoms: C12_15  and  C13_16 
REMARK    6  A    between atoms: C13_16  and  N3_17 
REMARK    7  A    between atoms: N3_17  and  C14_18 
REMARK    8  A    between atoms: N3_17  and  C16_20 
ROOT
HETATM    1 CL     D T1001      10.657   9.034 -21.686  1.00 22.69    -0.082 Cl
HETATM    2  N1    D T1001      13.116   4.541 -22.185  1.00 34.43    -0.244 NA
HETATM    3  C1    D T1001      14.105   3.662 -21.922  1.00 35.26     0.101 A 
HETATM    4  C2    D T1001      15.144   3.973 -21.054  1.00 34.24     0.039 A 
HETATM    5  C3    D T1001      15.229   5.281 -20.407  1.00 31.96     0.079 A 
HETATM    6  C4    D T1001      14.156   6.256 -20.696  1.00 33.68     0.035 A 
HETATM    7  C5    D T1001      14.063   7.602 -20.131  1.00 34.90     0.004 A 
HETATM    8  C6    D T1001      12.997   8.456 -20.446  1.00 32.93     0.012 A 
HETATM    9  C7    D T1001      11.974   7.991 -21.335  1.00 31.88     0.059 A 
HETATM   10  C8    D T1001      12.009   6.710 -21.907  1.00 32.37     0.031 A 
HETATM   11  C9    D T1001      13.084   5.832 -21.600  1.00 35.42     0.084 A 
ENDROOT
BRANCH   5  12
HETATM   12  N2    D T1001      16.242   5.618 -19.550  1.00 30.60    -0.273 NA
BRANCH  12  13
HETATM   13  C10   D T1001      16.457   5.130 -18.146  1.00 29.84     0.103 C 
HETATM   14  C18   D T1001      15.126   4.761 -17.506  1.00 30.59     0.026 C 
BRANCH  13  15
HETATM   15  C11   D T1001      17.237   6.187 -17.349  1.00 31.56     0.026 C 
BRANCH  15  16
HETATM   16  C12   D T1001      16.679   7.598 -17.359  1.00 32.62     0.037 C 
BRANCH  16  17
HETATM   17  C13   D T1001      17.818   8.598 -17.233  1.00 31.65     0.250 C 
BRANCH  17  18
HETATM   18  N3    D T1001      18.891   8.172 -16.270  1.00 36.76     0.137 N 
BRANCH  18  19
HETATM   19  C14   D T1001      20.294   8.151 -16.917  1.00 36.54     0.250 C 
HETATM   20  C15   D T1001      20.525   9.016 -18.153  1.00 37.02     0.037 C 
ENDBRANCH  18  19
BRANCH  18  21
HETATM   21  C16   D T1001      18.770   8.820 -14.920  1.00 33.74     0.250 C 
HETATM   22  C17   D T1001      18.168  10.187 -14.924  1.00 35.69     0.037 C 
ENDBRANCH  18  21
ENDBRANCH  17  18
ENDBRANCH  16  17
ENDBRANCH  15  16
ENDBRANCH  13  15
ENDBRANCH  12  13
ENDBRANCH   5  12
TORSDOF 8
ENDMDL
MODEL 5
REMARK VINA RESULT:      -4.2      2.572      5.548
REMARK  8 active torsions:
REMARK  status: ('A' for Active; 'I' for Inactive)
REMARK    1  A    between atoms: C3_5  and  N2_12 
REMARK    2  A    between atoms: N2_12  and  C10_13 
REMARK    3  A    between atoms: C10_13  and  C11_14 
REMARK    4  A    between atoms: C11_14  and  C12_15 
REMARK    5  A    between atoms: C12_15  and  C13_16 
REMARK    6  A    between atoms: C13_16  and  N3_17 
REMARK    7  A    between atoms: N3_17  and  C14_18 
REMARK    8  A    between atoms: N3_17  and  C16_20 
ROOT
HETATM    1 CL     D T1001      15.945  11.711 -10.074  1.00 22.69    -0.082 Cl
HETATM    2  N1    D T1001      15.676  10.318  -5.126  1.00 34.43    -0.244 NA
HETATM    3  C1    D T1001      16.043   9.599  -4.046  1.00 35.26     0.101 A 
HETATM    4  C2    D T1001      17.036   8.630  -4.118  1.00 34.24     0.039 A 
HETATM    5  C3    D T1001      17.709   8.324  -5.379  1.00 31.96     0.079 A 
HETATM    6  C4    D T1001      17.308   9.098  -6.573  1.00 33.68     0.035 A 
HETATM    7  C5    D T1001      17.879   8.945  -7.910  1.00 34.90     0.004 A 
HETATM    8  C6    D T1001      17.451   9.737  -8.985  1.00 32.93     0.012 A 
HETATM    9  C7    D T1001      16.436  10.724  -8.758  1.00 31.88     0.059 A 
HETATM   10  C8    D T1001      15.853  10.917  -7.497  1.00 32.37     0.031 A 
HETATM   11  C9    D T1001      16.273  10.121  -6.397  1.00 35.42     0.084 A 
ENDROOT
BRANCH   5  12
HETATM   12  N2    D T1001      18.689   7.372  -5.482  1.00 30.60    -0.273 NA
BRANCH  12  13
HETATM   13  C10   D T1001      18.516   5.883  -5.568  1.00 29.84     0.103 C 
HETATM   14  C18   D T1001      19.851   5.212  -5.856  1.00 30.59     0.026 C 
BRANCH  13  15
HETATM   15  C11   D T1001      17.437   5.551  -6.610  1.00 31.56     0.026 C 
BRANCH  15  16
HETATM   16  C12   D T1001      16.104   5.056  -6.079  1.00 32.62     0.037 C 
BRANCH  16  17
HETATM   17  C13   D T1001      15.079   6.176  -6.150  1.00 31.65     0.250 C 
BRANCH  17  18
HETATM   18  N3    D T1001      13.840   5.814  -6.920  1.00 36.76     0.137 N 
BRANCH  18  19
HETATM   19  C14   D T1001      12.618   5.586  -6.004  1.00 36.54     0.250 C 
HETATM   20  C15   D T1001      12.356   4.170  -5.500  1.00 37.02     0.037 C 
ENDBRANCH  18  19
BRANCH  18  21
HETATM   21  C16   D T1001      13.630   6.663  -8.143  1.00 33.74     0.250 C 
HETATM   22  C17   D T1001      14.879   7.093  -8.838  1.00 35.69     0.037 C 
ENDBRANCH  18  21
ENDBRANCH  17  18
ENDBRANCH  16  17
ENDBRANCH  15  16
ENDBRANCH  13  15
ENDBRANCH  12  13
ENDBRANCH   5  12
TORSDOF 8
ENDMDL
MODEL 6
REMARK VINA RESULT:      -4.2     12.756     15.352
REMARK  8 active torsions:
REMARK  status: ('A' for Active; 'I' for Inactive)
REMARK    1  A    between atoms: C3_5  and  N2_12 
REMARK    2  A    between atoms: N2_12  and  C10_13 
REMARK    3  A    between atoms: C10_13  and  C11_14 
REMARK    4  A    between atoms: C11_14  and  C12_15 
REMARK    5  A    between atoms: C12_15  and  C13_16 
REMARK    6  A    between atoms: C13_16  and  N3_17 
REMARK    7  A    between atoms: N3_17  and  C14_18 
REMARK    8  A    between atoms: N3_17  and  C16_20 
ROOT
HETATM    1 CL     D T1001       5.769   9.900 -21.698  1.00 22.69    -0.082 Cl
HETATM    2  N1    D T1001      10.397  11.862 -20.596  1.00 34.43    -0.244 NA
HETATM    3  C1    D T1001      11.746  11.865 -20.599  1.00 35.26     0.101 A 
HETATM    4  C2    D T1001      12.477  10.832 -21.171  1.00 34.24     0.039 A 
HETATM    5  C3    D T1001      11.816   9.675 -21.771  1.00 31.96     0.079 A 
HETATM    6  C4    D T1001      10.338   9.654 -21.765  1.00 33.68     0.035 A 
HETATM    7  C5    D T1001       9.505   8.593 -22.332  1.00 34.90     0.004 A 
HETATM    8  C6    D T1001       8.105   8.664 -22.299  1.00 32.93     0.012 A 
HETATM    9  C7    D T1001       7.482   9.809 -21.702  1.00 31.88     0.059 A 
HETATM   10  C8    D T1001       8.229  10.858 -21.144  1.00 32.37     0.031 A 
HETATM   11  C9    D T1001       9.649  10.800 -21.166  1.00 35.42     0.084 A 
ENDROOT
BRANCH   5  12
HETATM   12  N2    D T1001      12.509   8.639 -22.339  1.00 30.60    -0.273 NA
BRANCH  12  13
HETATM   13  C10   D T1001      13.059   7.419 -21.658  1.00 29.84     0.103 C 
HETATM   14  C18   D T1001      12.375   6.166 -22.185  1.00 30.59     0.026 C 
BRANCH  13  15
HETATM   15  C11   D T1001      12.931   7.582 -20.135  1.00 31.56     0.026 C 
BRANCH  15  16
HETATM   16  C12   D T1001      14.194   7.954 -19.380  1.00 32.62     0.037 C 
BRANCH  16  17
HETATM   17  C13   D T1001      14.393   6.997 -18.216  1.00 31.65     0.250 C 
BRANCH  17  18
HETATM   18  N3    D T1001      15.449   5.956 -18.463  1.00 36.76     0.137 N 
BRANCH  18  19
HETATM   19  C14   D T1001      16.710   6.174 -17.598  1.00 36.54     0.250 C 
HETATM   20  C15   D T1001      17.064   7.602 -17.195  1.00 37.02     0.037 C 
ENDBRANCH  18  19
BRANCH  18  21
HETATM   21  C16   D T1001      14.902   4.558 -18.536  1.00 33.74     0.250 C 
HETATM   22  C17   D T1001      14.739   4.012 -19.916  1.00 35.69     0.037 C 
ENDBRANCH  18  21
ENDBRANCH  17  18
ENDBRANCH  16  17
ENDBRANCH  15  16
ENDBRANCH  13  15
ENDBRANCH  12  13
ENDBRANCH   5  12
TORSDOF 8
ENDMDL
MODEL 7
REMARK VINA RESULT:      -4.2      9.098     11.348
REMARK  8 active torsions:
REMARK  status: ('A' for Active; 'I' for Inactive)
REMARK    1  A    between atoms: C3_5  and  N2_12 
REMARK    2  A    between atoms: N2_12  and  C10_13 
REMARK    3  A    between atoms: C10_13  and  C11_14 
REMARK    4  A    between atoms: C11_14  and  C12_15 
REMARK    5  A    between atoms: C12_15  and  C13_16 
REMARK    6  A    between atoms: C13_16  and  N3_17 
REMARK    7  A    between atoms: N3_17  and  C14_18 
REMARK    8  A    between atoms: N3_17  and  C16_20 
ROOT
HETATM    1 CL     D T1001      12.558   8.661 -20.988  1.00 22.69    -0.082 Cl
HETATM    2  N1    D T1001      14.744   5.114 -17.968  1.00 34.43    -0.244 NA
HETATM    3  C1    D T1001      15.777   4.554 -17.304  1.00 35.26     0.101 A 
HETATM    4  C2    D T1001      17.054   5.098 -17.351  1.00 34.24     0.039 A 
HETATM    5  C3    D T1001      17.346   6.288 -18.148  1.00 31.96     0.079 A 
HETATM    6  C4    D T1001      16.225   6.905 -18.888  1.00 33.68     0.035 A 
HETATM    7  C5    D T1001      16.320   8.103 -19.720  1.00 34.90     0.004 A 
HETATM    8  C6    D T1001      15.198   8.633 -20.374  1.00 32.93     0.012 A 
HETATM    9  C7    D T1001      13.930   7.984 -20.211  1.00 31.88     0.059 A 
HETATM   10  C8    D T1001      13.777   6.832 -19.424  1.00 32.37     0.031 A 
HETATM   11  C9    D T1001      14.905   6.281 -18.757  1.00 35.42     0.084 A 
ENDROOT
BRANCH   5  12
HETATM   12  N2    D T1001      18.595   6.844 -18.216  1.00 30.60    -0.273 NA
BRANCH  12  13
HETATM   13  C10   D T1001      19.093   8.071 -17.507  1.00 29.84     0.103 C 
HETATM   14  C18   D T1001      20.614   8.071 -17.456  1.00 30.59     0.026 C 
BRANCH  13  15
HETATM   15  C11   D T1001      18.442   8.161 -16.118  1.00 31.56     0.026 C 
BRANCH  15  16
HETATM   16  C12   D T1001      17.889   9.514 -15.710  1.00 32.62     0.037 C 
BRANCH  16  17
HETATM   17  C13   D T1001      18.911  10.246 -14.855  1.00 31.65     0.250 C 
BRANCH  17  18
HETATM   18  N3    D T1001      18.378  10.687 -13.521  1.00 36.76     0.137 N 
BRANCH  18  19
HETATM   19  C14   D T1001      19.286  10.257 -12.348  1.00 36.54     0.250 C 
HETATM   20  C15   D T1001      19.566   8.768 -12.167  1.00 37.02     0.037 C 
ENDBRANCH  18  19
BRANCH  18  21
HETATM   21  C16   D T1001      17.883  12.106 -13.518  1.00 33.74     0.250 C 
HETATM   22  C17   D T1001      16.539  12.307 -12.898  1.00 35.69     0.037 C 
ENDBRANCH  18  21
ENDBRANCH  17  18
ENDBRANCH  16  17
ENDBRANCH  15  16
ENDBRANCH  13  15
ENDBRANCH  12  13
ENDBRANCH   5  12
TORSDOF 8
ENDMDL
MODEL 8
REMARK VINA RESULT:      -4.1      2.620      5.539
REMARK  8 active torsions:
REMARK  status: ('A' for Active; 'I' for Inactive)
REMARK    1  A    between atoms: C3_5  and  N2_12 
REMARK    2  A    between atoms: N2_12  and  C10_13 
REMARK    3  A    between atoms: C10_13  and  C11_14 
REMARK    4  A    between atoms: C11_14  and  C12_15 
REMARK    5  A    between atoms: C12_15  and  C13_16 
REMARK    6  A    between atoms: C13_16  and  N3_17 
REMARK    7  A    between atoms: N3_17  and  C14_18 
REMARK    8  A    between atoms: N3_17  and  C16_20 
ROOT
HETATM    1 CL     D T1001      12.346   4.205  -5.961  1.00 22.69    -0.082 Cl
HETATM    2  N1    D T1001      16.850   6.557  -5.143  1.00 34.43    -0.244 NA
HETATM    3  C1    D T1001      17.853   7.402  -5.459  1.00 35.26     0.101 A 
HETATM    4  C2    D T1001      17.846   8.134  -6.639  1.00 34.24     0.039 A 
HETATM    5  C3    D T1001      16.762   8.000  -7.610  1.00 31.96     0.079 A 
HETATM    6  C4    D T1001      15.661   7.070  -7.281  1.00 33.68     0.035 A 
HETATM    7  C5    D T1001      14.489   6.818  -8.118  1.00 34.90     0.004 A 
HETATM    8  C6    D T1001      13.480   5.930  -7.718  1.00 32.93     0.012 A 
HETATM    9  C7    D T1001      13.603   5.264  -6.455  1.00 31.88     0.059 A 
HETATM   10  C8    D T1001      14.705   5.466  -5.609  1.00 32.37     0.031 A 
HETATM   11  C9    D T1001      15.738   6.361  -6.001  1.00 35.42     0.084 A 
ENDROOT
BRANCH   5  12
HETATM   12  N2    D T1001      16.729   8.706  -8.783  1.00 30.60    -0.273 NA
BRANCH  12  13
HETATM   13  C10   D T1001      17.166  10.125  -9.014  1.00 29.84     0.103 C 
HETATM   14  C18   D T1001      15.984  10.976  -9.455  1.00 30.59     0.026 C 
BRANCH  13  15
HETATM   15  C11   D T1001      18.332  10.146 -10.014  1.00 31.56     0.026 C 
BRANCH  15  16
HETATM   16  C12   D T1001      18.775  11.508 -10.516  1.00 32.62     0.037 C 
BRANCH  16  17
HETATM   17  C13   D T1001      19.430  11.360 -11.880  1.00 31.65     0.250 C 
BRANCH  17  18
HETATM   18  N3    D T1001      18.478  10.941 -12.965  1.00 36.76     0.137 N 
BRANCH  18  19
HETATM   19  C14   D T1001      17.725  12.138 -13.587  1.00 36.54     0.250 C 
HETATM   20  C15   D T1001      16.210  12.197 -13.418  1.00 37.02     0.037 C 
ENDBRANCH  18  19
BRANCH  18  21
HETATM   21  C16   D T1001      19.063   9.932 -13.913  1.00 33.74     0.250 C 
HETATM   22  C17   D T1001      19.725   8.762 -13.264  1.00 35.69     0.037 C 
ENDBRANCH  18  21
ENDBRANCH  17  18
ENDBRANCH  16  17
ENDBRANCH  15  16
ENDBRANCH  13  15
ENDBRANCH  12  13
ENDBRANCH   5  12
TORSDOF 8
ENDMDL
MODEL 9
REMARK VINA RESULT:      -4.1      1.475      3.695
REMARK  8 active torsions:
REMARK  status: ('A' for Active; 'I' for Inactive)
REMARK    1  A    between atoms: C3_5  and  N2_12 
REMARK    2  A    between atoms: N2_12  and  C10_13 
REMARK    3  A    between atoms: C10_13  and  C11_14 
REMARK    4  A    between atoms: C11_14  and  C12_15 
REMARK    5  A    between atoms: C12_15  and  C13_16 
REMARK    6  A    between atoms: C13_16  and  N3_17 
REMARK    7  A    between atoms: N3_17  and  C14_18 
REMARK    8  A    between atoms: N3_17  and  C16_20 
ROOT
HETATM    1 CL     D T1001      12.488   4.479  -6.254  1.00 22.69    -0.082 Cl
HETATM    2  N1    D T1001      17.478   5.729  -6.119  1.00 34.43    -0.244 NA
HETATM    3  C1    D T1001      18.543   6.428  -5.675  1.00 35.26     0.101 A 
HETATM    4  C2    D T1001      18.412   7.425  -4.717  1.00 34.24     0.039 A 
HETATM    5  C3    D T1001      17.107   7.784  -4.166  1.00 31.96     0.079 A 
HETATM    6  C4    D T1001      15.931   7.032  -4.652  1.00 33.68     0.035 A 
HETATM    7  C5    D T1001      14.554   7.237  -4.206  1.00 34.90     0.004 A 
HETATM    8  C6    D T1001      13.498   6.463  -4.707  1.00 32.93     0.012 A 
HETATM    9  C7    D T1001      13.783   5.443  -5.673  1.00 31.88     0.059 A 
HETATM   10  C8    D T1001      15.085   5.199  -6.137  1.00 32.37     0.031 A 
HETATM   11  C9    D T1001      16.167   5.977  -5.641  1.00 35.42     0.084 A 
ENDROOT
BRANCH   5  12
HETATM   12  N2    D T1001      16.947   8.765  -3.224  1.00 30.60    -0.273 NA
BRANCH  12  13
HETATM   13  C10   D T1001      16.747  10.236  -3.454  1.00 29.84     0.103 C 
HETATM   14  C18   D T1001      15.267  10.585  -3.383  1.00 30.59     0.026 C 
BRANCH  13  15
HETATM   15  C11   D T1001      17.399  10.640  -4.785  1.00 31.56     0.026 C 
BRANCH  15  16
HETATM   16  C12   D T1001      16.642  11.639  -5.640  1.00 32.62     0.037 C 
BRANCH  16  17
HETATM   17  C13   D T1001      16.523  11.107  -7.060  1.00 31.65     0.250 C 
BRANCH  17  18
HETATM   18  N3    D T1001      16.146   9.654  -7.131  1.00 36.76     0.137 N 
BRANCH  18  19
HETATM   19  C14   D T1001      14.617   9.437  -7.121  1.00 36.54     0.250 C 
HETATM   20  C15   D T1001      13.770  10.264  -8.084  1.00 37.02     0.037 C 
ENDBRANCH  18  19
BRANCH  18  21
HETATM   21  C16   D T1001      16.940   8.882  -8.148  1.00 33.74     0.250 C 
HETATM   22  C17   D T1001      16.214   7.746  -8.790  1.00 35.69     0.037 C 
ENDBRANCH  18  21
ENDBRANCH  17  18
ENDBRANCH  16  17
ENDBRANCH  15  16
ENDBRANCH  13  15
ENDBRANCH  12  13
ENDBRANCH   5  12
TORSDOF 8
ENDMDL
