MODEL 1
REMARK VINA RESULT:    -5.515      0.000      0.000
REMARK INTER + INTRA:          -9.361
REMARK INTER:                  -8.094
REMARK INTRA:                  -1.267
REMARK UNBOUND:                -1.267
REMARK  8 active torsions:
REMARK  status: ('A' for Active; 'I' for Inactive)
REMARK    1  A    between atoms: C3_5  and  N2_12 
REMARK    2  A    between atoms: N2_12  and  C10_13 
REMARK    3  A    between atoms: C10_13  and  C11_14 
REMARK    4  A    between atoms: C11_14  and  C12_15 
REMARK    5  A    between atoms: C12_15  and  C13_16 
REMARK    6  A    between atoms: C13_16  and  N3_17 
REMARK    7  A    between atoms: N3_17  and  C14_18 
REMARK    8  A    between atoms: N3_17  and  C16_20 
ROOT
HETATM    1 CL     D T1001      13.440  14.091 -11.816  1.00 22.69    -0.082 Cl
HETATM    2  N1    D T1001      11.518   9.897 -14.100  1.00 34.43    -0.244 NA
HETATM    3  C1    D T1001      11.160   8.598 -14.149  1.00 35.26     0.101 A 
HETATM    4  C2    D T1001      11.347   7.750 -13.065  1.00 34.24     0.039 A 
HETATM    5  C3    D T1001      11.969   8.221 -11.828  1.00 31.96     0.079 A 
HETATM    6  C4    D T1001      12.375   9.640 -11.767  1.00 33.68     0.035 A 
HETATM    7  C5    D T1001      12.995  10.292 -10.614  1.00 34.90     0.004 A 
HETATM    8  C6    D T1001      13.333  11.652 -10.636  1.00 32.93     0.012 A 
HETATM    9  C7    D T1001      13.053  12.419 -11.815  1.00 31.88     0.059 A 
HETATM   10  C8    D T1001      12.459  11.847 -12.952  1.00 32.37     0.031 A 
HETATM   11  C9    D T1001      12.114  10.468 -12.947  1.00 35.42     0.084 A 
ENDROOT
BRANCH   5  12
HETATM   12  N2    D T1001      12.170   7.407 -10.745  1.00 30.60    -0.273 NA
BRANCH  12  13
HETATM   13  C10   D T1001      13.280   6.418 -10.533  1.00 29.84     0.103 C 
HETATM   14  C18   D T1001      12.899   5.063 -11.110  1.00 30.59     0.026 C 
BRANCH  13  15
HETATM   15  C11   D T1001      13.636   6.360  -9.040  1.00 31.56     0.026 C 
BRANCH  15  16
HETATM   16  C12   D T1001      12.971   7.387  -8.141  1.00 32.62     0.037 C 
BRANCH  16  17
HETATM   17  C13   D T1001      13.995   8.423  -7.705  1.00 31.65     0.250 C 
BRANCH  17  18
HETATM   18  N3    D T1001      15.371   7.858  -7.487  1.00 36.76     0.137 N 
BRANCH  18  19
HETATM   19  C14   D T1001      16.480   8.738  -8.105  1.00 36.54     0.250 C 
HETATM   20  C15   D T1001      16.136  10.182  -8.455  1.00 37.02     0.037 C 
ENDBRANCH  18  19
BRANCH  18  21
HETATM   21  C16   D T1001      15.594   7.359  -6.086  1.00 33.74     0.250 C 
HETATM   22  C17   D T1001      16.215   6.006  -5.986  1.00 35.69     0.037 C 
ENDBRANCH  18  21
ENDBRANCH  17  18
ENDBRANCH  16  17
ENDBRANCH  15  16
ENDBRANCH  13  15
ENDBRANCH  12  13
ENDBRANCH   5  12
TORSDOF 8
ENDMDL
MODEL 2
REMARK VINA RESULT:    -5.472      2.209      3.825
REMARK INTER + INTRA:          -9.298
REMARK INTER:                  -8.107
REMARK INTRA:                  -1.191
REMARK UNBOUND:                -1.267
REMARK  8 active torsions:
REMARK  status: ('A' for Active; 'I' for Inactive)
REMARK    1  A    between atoms: C3_5  and  N2_12 
REMARK    2  A    between atoms: N2_12  and  C10_13 
REMARK    3  A    between atoms: C10_13  and  C11_14 
REMARK    4  A    between atoms: C11_14  and  C12_15 
REMARK    5  A    between atoms: C12_15  and  C13_16 
REMARK    6  A    between atoms: C13_16  and  N3_17 
REMARK    7  A    between atoms: N3_17  and  C14_18 
REMARK    8  A    between atoms: N3_17  and  C16_20 
ROOT
HETATM    1 CL     D T1001      10.693   9.929 -14.458  1.00 22.69    -0.082 Cl
HETATM    2  N1    D T1001      12.136   5.514 -12.240  1.00 34.43    -0.244 NA
HETATM    3  C1    D T1001      12.663   4.771 -11.246  1.00 35.26     0.101 A 
HETATM    4  C2    D T1001      13.156   5.352 -10.085  1.00 34.24     0.039 A 
HETATM    5  C3    D T1001      13.153   6.802  -9.898  1.00 31.96     0.079 A 
HETATM    6  C4    D T1001      12.588   7.628 -10.986  1.00 33.68     0.035 A 
HETATM    7  C5    D T1001      12.485   9.087 -10.972  1.00 34.90     0.004 A 
HETATM    8  C6    D T1001      11.917   9.791 -12.043  1.00 32.93     0.012 A 
HETATM    9  C7    D T1001      11.418   9.058 -13.169  1.00 31.88     0.059 A 
HETATM   10  C8    D T1001      11.488   7.657 -13.238  1.00 32.37     0.031 A 
HETATM   11  C9    D T1001      12.065   6.929 -12.162  1.00 35.42     0.084 A 
ENDROOT
BRANCH   5  12
HETATM   12  N2    D T1001      13.636   7.403  -8.766  1.00 30.60    -0.273 NA
BRANCH  12  13
HETATM   13  C10   D T1001      14.364   6.757  -7.623  1.00 29.84     0.103 C 
HETATM   14  C18   D T1001      13.568   6.911  -6.335  1.00 30.59     0.026 C 
BRANCH  13  15
HETATM   15  C11   D T1001      15.785   7.332  -7.528  1.00 31.56     0.026 C 
BRANCH  15  16
HETATM   16  C12   D T1001      16.132   8.451  -8.494  1.00 32.62     0.037 C 
BRANCH  16  17
HETATM   17  C13   D T1001      16.726   9.621  -7.725  1.00 31.65     0.250 C 
BRANCH  17  18
HETATM   18  N3    D T1001      16.130  10.951  -8.093  1.00 36.76     0.137 N 
BRANCH  18  19
HETATM   19  C14   D T1001      17.118  11.851  -8.868  1.00 36.54     0.250 C 
HETATM   20  C15   D T1001      17.145  13.339  -8.535  1.00 37.02     0.037 C 
ENDBRANCH  18  19
BRANCH  18  21
HETATM   21  C16   D T1001      14.731  10.847  -8.633  1.00 33.74     0.250 C 
HETATM   22  C17   D T1001      13.650  10.879  -7.605  1.00 35.69     0.037 C 
ENDBRANCH  18  21
ENDBRANCH  17  18
ENDBRANCH  16  17
ENDBRANCH  15  16
ENDBRANCH  13  15
ENDBRANCH  12  13
ENDBRANCH   5  12
TORSDOF 8
ENDMDL
MODEL 3
REMARK VINA RESULT:    -5.344      2.874      4.853
REMARK INTER + INTRA:          -9.110
REMARK INTER:                  -7.920
REMARK INTRA:                  -1.190
REMARK UNBOUND:                -1.267
REMARK  8 active torsions:
REMARK  status: ('A' for Active; 'I' for Inactive)
REMARK    1  A    between atoms: C3_5  and  N2_12 
REMARK    2  A    between atoms: N2_12  and  C10_13 
REMARK    3  A    between atoms: C10_13  and  C11_14 
REMARK    4  A    between atoms: C11_14  and  C12_15 
REMARK    5  A    between atoms: C12_15  and  C13_16 
REMARK    6  A    between atoms: C13_16  and  N3_17 
REMARK    7  A    between atoms: N3_17  and  C14_18 
REMARK    8  A    between atoms: N3_17  and  C16_20 
ROOT
HETATM    1 CL     D T1001      11.368   6.501 -13.305  1.00 22.69    -0.082 Cl
HETATM    2  N1    D T1001      12.626   9.798  -9.558  1.00 34.43    -0.244 NA
HETATM    3  C1    D T1001      13.229  10.152  -8.404  1.00 35.26     0.101 A 
HETATM    4  C2    D T1001      13.968   9.243  -7.659  1.00 34.24     0.039 A 
HETATM    5  C3    D T1001      14.104   7.848  -8.077  1.00 31.96     0.079 A 
HETATM    6  C4    D T1001      13.439   7.445  -9.334  1.00 33.68     0.035 A 
HETATM    7  C5    D T1001      13.476   6.105  -9.917  1.00 34.90     0.004 A 
HETATM    8  C6    D T1001      12.829   5.814 -11.127  1.00 32.93     0.012 A 
HETATM    9  C7    D T1001      12.126   6.861 -11.808  1.00 31.88     0.059 A 
HETATM   10  C8    D T1001      12.057   8.167 -11.297  1.00 32.37     0.031 A 
HETATM   11  C9    D T1001      12.704   8.478 -10.070  1.00 35.42     0.084 A 
ENDROOT
BRANCH   5  12
HETATM   12  N2    D T1001      14.823   6.928  -7.361  1.00 30.60    -0.273 NA
BRANCH  12  13
HETATM   13  C10   D T1001      14.325   6.016  -6.277  1.00 29.84     0.103 C 
HETATM   14  C18   D T1001      12.809   6.089  -6.178  1.00 30.59     0.026 C 
BRANCH  13  15
HETATM   15  C11   D T1001      15.034   6.353  -4.957  1.00 31.56     0.026 C 
BRANCH  15  16
HETATM   16  C12   D T1001      14.661   7.670  -4.301  1.00 32.62     0.037 C 
BRANCH  16  17
HETATM   17  C13   D T1001      15.923   8.392  -3.854  1.00 31.65     0.250 C 
BRANCH  17  18
HETATM   18  N3    D T1001      15.901   9.871  -4.124  1.00 36.76     0.137 N 
BRANCH  18  19
HETATM   19  C14   D T1001      16.857  10.280  -5.267  1.00 36.54     0.250 C 
HETATM   20  C15   D T1001      17.423   9.178  -6.156  1.00 37.02     0.037 C 
ENDBRANCH  18  19
BRANCH  18  21
HETATM   21  C16   D T1001      14.515  10.450  -4.150  1.00 33.74     0.250 C 
HETATM   22  C17   D T1001      14.357  11.750  -3.433  1.00 35.69     0.037 C 
ENDBRANCH  18  21
ENDBRANCH  17  18
ENDBRANCH  16  17
ENDBRANCH  15  16
ENDBRANCH  13  15
ENDBRANCH  12  13
ENDBRANCH   5  12
TORSDOF 8
ENDMDL
MODEL 4
REMARK VINA RESULT:    -5.012      2.274      3.877
REMARK INTER + INTRA:          -8.622
REMARK INTER:                  -7.640
REMARK INTRA:                  -0.982
REMARK UNBOUND:                -1.267
REMARK  8 active torsions:
REMARK  status: ('A' for Active; 'I' for Inactive)
REMARK    1  A    between atoms: C3_5  and  N2_12 
REMARK    2  A    between atoms: N2_12  and  C10_13 
REMARK    3  A    between atoms: C10_13  and  C11_14 
REMARK    4  A    between atoms: C11_14  and  C12_15 
REMARK    5  A    between atoms: C12_15  and  C13_16 
REMARK    6  A    between atoms: C13_16  and  N3_17 
REMARK    7  A    between atoms: N3_17  and  C14_18 
REMARK    8  A    between atoms: N3_17  and  C16_20 
ROOT
HETATM    1 CL     D T1001      11.079   9.865 -14.412  1.00 22.69    -0.082 Cl
HETATM    2  N1    D T1001      12.474   5.628 -11.842  1.00 34.43    -0.244 NA
HETATM    3  C1    D T1001      12.904   4.953 -10.756  1.00 35.26     0.101 A 
HETATM    4  C2    D T1001      13.194   5.602  -9.563  1.00 34.24     0.039 A 
HETATM    5  C3    D T1001      13.075   7.054  -9.437  1.00 31.96     0.079 A 
HETATM    6  C4    D T1001      12.616   7.805 -10.624  1.00 33.68     0.035 A 
HETATM    7  C5    D T1001      12.421   9.254 -10.683  1.00 34.90     0.004 A 
HETATM    8  C6    D T1001      11.964   9.884 -11.848  1.00 32.93     0.012 A 
HETATM    9  C7    D T1001      11.672   9.085 -13.002  1.00 31.88     0.059 A 
HETATM   10  C8    D T1001      11.838   7.690 -13.004  1.00 32.37     0.031 A 
HETATM   11  C9    D T1001      12.305   7.036 -11.831  1.00 35.42     0.084 A 
ENDROOT
BRANCH   5  12
HETATM   12  N2    D T1001      13.358   7.721  -8.275  1.00 30.60    -0.273 NA
BRANCH  12  13
HETATM   13  C10   D T1001      14.705   7.950  -7.652  1.00 29.84     0.103 C 
HETATM   14  C18   D T1001      15.729   8.299  -8.721  1.00 30.59     0.026 C 
BRANCH  13  15
HETATM   15  C11   D T1001      15.097   6.724  -6.815  1.00 31.56     0.026 C 
BRANCH  15  16
HETATM   16  C12   D T1001      16.234   6.911  -5.825  1.00 32.62     0.037 C 
BRANCH  16  17
HETATM   17  C13   D T1001      15.768   6.510  -4.434  1.00 31.65     0.250 C 
BRANCH  17  18
HETATM   18  N3    D T1001      15.210   7.652  -3.631  1.00 36.76     0.137 N 
BRANCH  18  19
HETATM   19  C14   D T1001      15.821   9.013  -4.031  1.00 36.54     0.250 C 
HETATM   20  C15   D T1001      14.890  10.074  -4.610  1.00 37.02     0.037 C 
ENDBRANCH  18  19
BRANCH  18  21
HETATM   21  C16   D T1001      13.717   7.592  -3.471  1.00 33.74     0.250 C 
HETATM   22  C17   D T1001      13.174   6.258  -3.079  1.00 35.69     0.037 C 
ENDBRANCH  18  21
ENDBRANCH  17  18
ENDBRANCH  16  17
ENDBRANCH  15  16
ENDBRANCH  13  15
ENDBRANCH  12  13
ENDBRANCH   5  12
TORSDOF 8
ENDMDL
MODEL 5
REMARK VINA RESULT:    -4.995      2.362      4.557
REMARK INTER + INTRA:          -8.598
REMARK INTER:                  -7.537
REMARK INTRA:                  -1.061
REMARK UNBOUND:                -1.267
REMARK  8 active torsions:
REMARK  status: ('A' for Active; 'I' for Inactive)
REMARK    1  A    between atoms: C3_5  and  N2_12 
REMARK    2  A    between atoms: N2_12  and  C10_13 
REMARK    3  A    between atoms: C10_13  and  C11_14 
REMARK    4  A    between atoms: C11_14  and  C12_15 
REMARK    5  A    between atoms: C12_15  and  C13_16 
REMARK    6  A    between atoms: C13_16  and  N3_17 
REMARK    7  A    between atoms: N3_17  and  C14_18 
REMARK    8  A    between atoms: N3_17  and  C16_20 
ROOT
HETATM    1 CL     D T1001      11.245   8.500 -14.087  1.00 22.69    -0.082 Cl
HETATM    2  N1    D T1001      12.969   6.422  -9.704  1.00 34.43    -0.244 NA
HETATM    3  C1    D T1001      13.443   6.468  -8.442  1.00 35.26     0.101 A 
HETATM    4  C2    D T1001      13.665   7.676  -7.792  1.00 34.24     0.039 A 
HETATM    5  C3    D T1001      13.422   8.955  -8.458  1.00 31.96     0.079 A 
HETATM    6  C4    D T1001      12.913   8.916  -9.844  1.00 33.68     0.035 A 
HETATM    7  C5    D T1001      12.596  10.087 -10.661  1.00 34.90     0.004 A 
HETATM    8  C6    D T1001      12.099   9.958 -11.966  1.00 32.93     0.012 A 
HETATM    9  C7    D T1001      11.887   8.645 -12.501  1.00 31.88     0.059 A 
HETATM   10  C8    D T1001      12.172   7.484 -11.764  1.00 32.37     0.031 A 
HETATM   11  C9    D T1001      12.680   7.598 -10.441  1.00 35.42     0.084 A 
ENDROOT
BRANCH   5  12
HETATM   12  N2    D T1001      13.635  10.160  -7.844  1.00 30.60    -0.273 NA
BRANCH  12  13
HETATM   13  C10   D T1001      14.911  10.951  -7.791  1.00 29.84     0.103 C 
HETATM   14  C18   D T1001      16.008  10.236  -8.565  1.00 30.59     0.026 C 
BRANCH  13  15
HETATM   15  C11   D T1001      15.284  11.225  -6.327  1.00 31.56     0.026 C 
BRANCH  15  16
HETATM   16  C12   D T1001      14.708  10.279  -5.288  1.00 32.62     0.037 C 
BRANCH  16  17
HETATM   17  C13   D T1001      15.726   9.196  -4.966  1.00 31.65     0.250 C 
BRANCH  17  18
HETATM   18  N3    D T1001      15.112   7.852  -4.691  1.00 36.76     0.137 N 
BRANCH  18  19
HETATM   19  C14   D T1001      16.160   6.718  -4.648  1.00 36.54     0.250 C 
HETATM   20  C15   D T1001      16.274   5.802  -5.863  1.00 37.02     0.037 C 
ENDBRANCH  18  19
BRANCH  18  21
HETATM   21  C16   D T1001      14.088   7.880  -3.590  1.00 33.74     0.250 C 
HETATM   22  C17   D T1001      13.847   6.570  -2.915  1.00 35.69     0.037 C 
ENDBRANCH  18  21
ENDBRANCH  17  18
ENDBRANCH  16  17
ENDBRANCH  15  16
ENDBRANCH  13  15
ENDBRANCH  12  13
ENDBRANCH   5  12
TORSDOF 8
ENDMDL
MODEL 6
REMARK VINA RESULT:    -4.992      3.172      5.406
REMARK INTER + INTRA:          -8.593
REMARK INTER:                  -7.713
REMARK INTRA:                  -0.880
REMARK UNBOUND:                -1.267
REMARK  8 active torsions:
REMARK  status: ('A' for Active; 'I' for Inactive)
REMARK    1  A    between atoms: C3_5  and  N2_12 
REMARK    2  A    between atoms: N2_12  and  C10_13 
REMARK    3  A    between atoms: C10_13  and  C11_14 
REMARK    4  A    between atoms: C11_14  and  C12_15 
REMARK    5  A    between atoms: C12_15  and  C13_16 
REMARK    6  A    between atoms: C13_16  and  N3_17 
REMARK    7  A    between atoms: N3_17  and  C14_18 
REMARK    8  A    between atoms: N3_17  and  C16_20 
ROOT
HETATM    1 CL     D T1001      11.490   6.116 -12.745  1.00 22.69    -0.082 Cl
HETATM    2  N1    D T1001      12.474  10.027  -9.546  1.00 34.43    -0.244 NA
HETATM    3  C1    D T1001      13.097  10.617  -8.505  1.00 35.26     0.101 A 
HETATM    4  C2    D T1001      14.031   9.936  -7.734  1.00 34.24     0.039 A 
HETATM    5  C3    D T1001      14.361   8.536  -7.999  1.00 31.96     0.079 A 
HETATM    6  C4    D T1001      13.676   7.876  -9.130  1.00 33.68     0.035 A 
HETATM    7  C5    D T1001      13.888   6.493  -9.554  1.00 34.90     0.004 A 
HETATM    8  C6    D T1001      13.207   5.951 -10.653  1.00 32.93     0.012 A 
HETATM    9  C7    D T1001      12.291   6.780 -11.380  1.00 31.88     0.059 A 
HETATM   10  C8    D T1001      12.048   8.116 -11.020  1.00 32.37     0.031 A 
HETATM   11  C9    D T1001      12.728   8.679  -9.906  1.00 35.42     0.084 A 
ENDROOT
BRANCH   5  12
HETATM   12  N2    D T1001      15.274   7.839  -7.253  1.00 30.60    -0.273 NA
BRANCH  12  13
HETATM   13  C10   D T1001      16.198   8.373  -6.197  1.00 29.84     0.103 C 
HETATM   14  C18   D T1001      17.510   8.824  -6.821  1.00 30.59     0.026 C 
BRANCH  13  15
HETATM   15  C11   D T1001      16.383   7.318  -5.096  1.00 31.56     0.026 C 
BRANCH  15  16
HETATM   16  C12   D T1001      15.155   6.512  -4.712  1.00 32.62     0.037 C 
BRANCH  16  17
HETATM   17  C13   D T1001      15.101   6.355  -3.200  1.00 31.65     0.250 C 
BRANCH  17  18
HETATM   18  N3    D T1001      13.788   6.767  -2.596  1.00 36.76     0.137 N 
BRANCH  18  19
HETATM   19  C14   D T1001      13.262   8.100  -3.171  1.00 36.54     0.250 C 
HETATM   20  C15   D T1001      14.116   9.350  -2.980  1.00 37.02     0.037 C 
ENDBRANCH  18  19
BRANCH  18  21
HETATM   21  C16   D T1001      12.805   5.635  -2.481  1.00 33.74     0.250 C 
HETATM   22  C17   D T1001      11.393   5.986  -2.816  1.00 35.69     0.037 C 
ENDBRANCH  18  21
ENDBRANCH  17  18
ENDBRANCH  16  17
ENDBRANCH  15  16
ENDBRANCH  13  15
ENDBRANCH  12  13
ENDBRANCH   5  12
TORSDOF 8
ENDMDL
MODEL 7
REMARK VINA RESULT:    -4.870      2.788      7.176
REMARK INTER + INTRA:          -8.414
REMARK INTER:                  -7.449
REMARK INTRA:                  -0.965
REMARK UNBOUND:                -1.267
REMARK  8 active torsions:
REMARK  status: ('A' for Active; 'I' for Inactive)
REMARK    1  A    between atoms: C3_5  and  N2_12 
REMARK    2  A    between atoms: N2_12  and  C10_13 
REMARK    3  A    between atoms: C10_13  and  C11_14 
REMARK    4  A    between atoms: C11_14  and  C12_15 
REMARK    5  A    between atoms: C12_15  and  C13_16 
REMARK    6  A    between atoms: C13_16  and  N3_17 
REMARK    7  A    between atoms: N3_17  and  C14_18 
REMARK    8  A    between atoms: N3_17  and  C16_20 
ROOT
HETATM    1 CL     D T1001      12.853   4.547 -10.895  1.00 22.69    -0.082 Cl
HETATM    2  N1    D T1001      14.254   8.170  -7.517  1.00 34.43    -0.244 NA
HETATM    3  C1    D T1001      14.373   9.440  -7.078  1.00 35.26     0.101 A 
HETATM    4  C2    D T1001      13.930  10.516  -7.835  1.00 34.24     0.039 A 
HETATM    5  C3    D T1001      13.337  10.324  -9.159  1.00 31.96     0.079 A 
HETATM    6  C4    D T1001      13.212   8.938  -9.654  1.00 33.68     0.035 A 
HETATM    7  C5    D T1001      12.633   8.550 -10.940  1.00 34.90     0.004 A 
HETATM    8  C6    D T1001      12.537   7.205 -11.325  1.00 32.93     0.012 A 
HETATM    9  C7    D T1001      13.008   6.191 -10.428  1.00 31.88     0.059 A 
HETATM   10  C8    D T1001      13.572   6.503  -9.179  1.00 32.37     0.031 A 
HETATM   11  C9    D T1001      13.680   7.862  -8.777  1.00 35.42     0.084 A 
ENDROOT
BRANCH   5  12
HETATM   12  N2    D T1001      12.895  11.367  -9.929  1.00 30.60    -0.273 NA
BRANCH  12  13
HETATM   13  C10   D T1001      13.547  11.949 -11.149  1.00 29.84     0.103 C 
HETATM   14  C18   D T1001      14.850  12.639 -10.774  1.00 30.59     0.026 C 
BRANCH  13  15
HETATM   15  C11   D T1001      12.557  12.877 -11.867  1.00 31.56     0.026 C 
BRANCH  15  16
HETATM   16  C12   D T1001      12.212  12.524 -13.304  1.00 32.62     0.037 C 
BRANCH  16  17
HETATM   17  C13   D T1001      13.283  11.608 -13.874  1.00 31.65     0.250 C 
BRANCH  17  18
HETATM   18  N3    D T1001      12.775  10.670 -14.933  1.00 36.76     0.137 N 
BRANCH  18  19
HETATM   19  C14   D T1001      11.269  10.358 -14.778  1.00 36.54     0.250 C 
HETATM   20  C15   D T1001      10.874   9.078 -14.049  1.00 37.02     0.037 C 
ENDBRANCH  18  19
BRANCH  18  21
HETATM   21  C16   D T1001      13.264  11.009 -16.313  1.00 33.74     0.250 C 
HETATM   22  C17   D T1001      14.317  10.099 -16.854  1.00 35.69     0.037 C 
ENDBRANCH  18  21
ENDBRANCH  17  18
ENDBRANCH  16  17
ENDBRANCH  15  16
ENDBRANCH  13  15
ENDBRANCH  12  13
ENDBRANCH   5  12
TORSDOF 8
ENDMDL
MODEL 8
REMARK VINA RESULT:    -4.811      1.262      2.047
REMARK INTER + INTRA:          -8.327
REMARK INTER:                  -7.555
REMARK INTRA:                  -0.772
REMARK UNBOUND:                -1.267
REMARK  8 active torsions:
REMARK  status: ('A' for Active; 'I' for Inactive)
REMARK    1  A    between atoms: C3_5  and  N2_12 
REMARK    2  A    between atoms: N2_12  and  C10_13 
REMARK    3  A    between atoms: C10_13  and  C11_14 
REMARK    4  A    between atoms: C11_14  and  C12_15 
REMARK    5  A    between atoms: C12_15  and  C13_16 
REMARK    6  A    between atoms: C13_16  and  N3_17 
REMARK    7  A    between atoms: N3_17  and  C14_18 
REMARK    8  A    between atoms: N3_17  and  C16_20 
ROOT
HETATM    1 CL     D T1001      12.986  14.132 -13.551  1.00 22.69    -0.082 Cl
HETATM    2  N1    D T1001      11.412   9.279 -14.236  1.00 34.43    -0.244 NA
HETATM    3  C1    D T1001      11.151   8.019 -13.832  1.00 35.26     0.101 A 
HETATM    4  C2    D T1001      11.382   7.610 -12.525  1.00 34.24     0.039 A 
HETATM    5  C3    D T1001      11.948   8.522 -11.531  1.00 31.96     0.079 A 
HETATM    6  C4    D T1001      12.248   9.902 -11.965  1.00 33.68     0.035 A 
HETATM    7  C5    D T1001      12.800  10.955 -11.112  1.00 34.90     0.004 A 
HETATM    8  C6    D T1001      13.038  12.246 -11.603  1.00 32.93     0.012 A 
HETATM    9  C7    D T1001      12.722  12.538 -12.971  1.00 31.88     0.059 A 
HETATM   10  C8    D T1001      12.190  11.568 -13.837  1.00 32.37     0.031 A 
HETATM   11  C9    D T1001      11.946  10.253 -13.355  1.00 35.42     0.084 A 
ENDROOT
BRANCH   5  12
HETATM   12  N2    D T1001      12.190   8.146 -10.237  1.00 30.60    -0.273 NA
BRANCH  12  13
HETATM   13  C10   D T1001      13.435   7.518  -9.680  1.00 29.84     0.103 C 
HETATM   14  C18   D T1001      13.283   6.006  -9.621  1.00 30.59     0.026 C 
BRANCH  13  15
HETATM   15  C11   D T1001      13.761   8.146  -8.317  1.00 31.56     0.026 C 
BRANCH  15  16
HETATM   16  C12   D T1001      15.145   7.874  -7.755  1.00 32.62     0.037 C 
BRANCH  16  17
HETATM   17  C13   D T1001      15.284   8.542  -6.396  1.00 31.65     0.250 C 
BRANCH  17  18
HETATM   18  N3    D T1001      15.839   7.638  -5.332  1.00 36.76     0.137 N 
BRANCH  18  19
HETATM   19  C14   D T1001      14.877   6.485  -4.970  1.00 36.54     0.250 C 
HETATM   20  C15   D T1001      13.664   6.810  -4.104  1.00 37.02     0.037 C 
ENDBRANCH  18  19
BRANCH  18  21
HETATM   21  C16   D T1001      17.284   7.281  -5.549  1.00 33.74     0.250 C 
HETATM   22  C17   D T1001      17.634   5.858  -5.268  1.00 35.69     0.037 C 
ENDBRANCH  18  21
ENDBRANCH  17  18
ENDBRANCH  16  17
ENDBRANCH  15  16
ENDBRANCH  13  15
ENDBRANCH  12  13
ENDBRANCH   5  12
TORSDOF 8
ENDMDL
MODEL 9
REMARK VINA RESULT:    -4.676      3.225      7.190
REMARK INTER + INTRA:          -8.129
REMARK INTER:                  -7.267
REMARK INTRA:                  -0.862
REMARK UNBOUND:                -1.267
REMARK  8 active torsions:
REMARK  status: ('A' for Active; 'I' for Inactive)
REMARK    1  A    between atoms: C3_5  and  N2_12 
REMARK    2  A    between atoms: N2_12  and  C10_13 
REMARK    3  A    between atoms: C10_13  and  C11_14 
REMARK    4  A    between atoms: C11_14  and  C12_15 
REMARK    5  A    between atoms: C12_15  and  C13_16 
REMARK    6  A    between atoms: C13_16  and  N3_17 
REMARK    7  A    between atoms: N3_17  and  C14_18 
REMARK    8  A    between atoms: N3_17  and  C16_20 
ROOT
HETATM    1 CL     D T1001      12.908   5.751  -2.478  1.00 22.69    -0.082 Cl
HETATM    2  N1    D T1001      12.882   5.506  -7.620  1.00 34.43    -0.244 NA
HETATM    3  C1    D T1001      13.209   5.931  -8.857  1.00 35.26     0.101 A 
HETATM    4  C2    D T1001      13.978   7.071  -9.056  1.00 34.24     0.039 A 
HETATM    5  C3    D T1001      14.445   7.880  -7.931  1.00 31.96     0.079 A 
HETATM    6  C4    D T1001      14.084   7.429  -6.571  1.00 33.68     0.035 A 
HETATM    7  C5    D T1001      14.473   8.096  -5.328  1.00 34.90     0.004 A 
HETATM    8  C6    D T1001      14.100   7.589  -4.076  1.00 32.93     0.012 A 
HETATM    9  C7    D T1001      13.328   6.382  -4.018  1.00 31.88     0.059 A 
HETATM   10  C8    D T1001      12.927   5.696  -5.177  1.00 32.37     0.031 A 
HETATM   11  C9    D T1001      13.294   6.201  -6.454  1.00 35.42     0.084 A 
ENDROOT
BRANCH   5  12
HETATM   12  N2    D T1001      15.202   9.009  -8.096  1.00 30.60    -0.273 NA
BRANCH  12  13
HETATM   13  C10   D T1001      14.718  10.418  -8.287  1.00 29.84     0.103 C 
HETATM   14  C18   D T1001      14.888  11.214  -7.001  1.00 30.59     0.026 C 
BRANCH  13  15
HETATM   15  C11   D T1001      13.271  10.399  -8.800  1.00 31.56     0.026 C 
BRANCH  15  16
HETATM   16  C12   D T1001      13.083  10.341 -10.306  1.00 32.62     0.037 C 
BRANCH  16  17
HETATM   17  C13   D T1001      11.933   9.403 -10.639  1.00 31.65     0.250 C 
BRANCH  17  18
HETATM   18  N3    D T1001      12.119   8.655 -11.930  1.00 36.76     0.137 N 
BRANCH  18  19
HETATM   19  C14   D T1001      11.217   7.404 -12.027  1.00 36.54     0.250 C 
HETATM   20  C15   D T1001      11.694   6.242 -12.891  1.00 37.02     0.037 C 
ENDBRANCH  18  19
BRANCH  18  21
HETATM   21  C16   D T1001      12.175   9.552 -13.134  1.00 33.74     0.250 C 
HETATM   22  C17   D T1001      10.942   9.565 -13.974  1.00 35.69     0.037 C 
ENDBRANCH  18  21
ENDBRANCH  17  18
ENDBRANCH  16  17
ENDBRANCH  15  16
ENDBRANCH  13  15
ENDBRANCH  12  13
ENDBRANCH   5  12
TORSDOF 8
ENDMDL
