MODEL 1
REMARK VINA RESULT:      -4.9      0.000      0.000
REMARK  8 active torsions:
REMARK  status: ('A' for Active; 'I' for Inactive)
REMARK    1  A    between atoms: C3_5  and  N2_12 
REMARK    2  A    between atoms: N2_12  and  C10_13 
REMARK    3  A    between atoms: C10_13  and  C11_14 
REMARK    4  A    between atoms: C11_14  and  C12_15 
REMARK    5  A    between atoms: C12_15  and  C13_16 
REMARK    6  A    between atoms: C13_16  and  N3_17 
REMARK    7  A    between atoms: N3_17  and  C14_18 
REMARK    8  A    between atoms: N3_17  and  C16_20 
ROOT
HETATM    1 CL     D T1001       5.857  14.103 -18.102  1.00 22.69    -0.082 Cl
HETATM    2  N1    D T1001       6.143  10.281 -21.537  1.00 34.43    -0.244 NA
HETATM    3  C1    D T1001       6.797   9.424 -22.348  1.00 35.26     0.101 A 
HETATM    4  C2    D T1001       8.182   9.434 -22.453  1.00 34.24     0.039 A 
HETATM    5  C3    D T1001       8.994  10.396 -21.712  1.00 31.96     0.079 A 
HETATM    6  C4    D T1001       8.289  11.348 -20.829  1.00 33.68     0.035 A 
HETATM    7  C5    D T1001       8.932  12.368 -20.000  1.00 34.90     0.004 A 
HETATM    8  C6    D T1001       8.184  13.220 -19.176  1.00 32.93     0.012 A 
HETATM    9  C7    D T1001       6.758  13.077 -19.142  1.00 31.88     0.059 A 
HETATM   10  C8    D T1001       6.086  12.116 -19.914  1.00 32.37     0.031 A 
HETATM   11  C9    D T1001       6.829  11.246 -20.758  1.00 35.42     0.084 A 
ENDROOT
BRANCH   5  12
HETATM   12  N2    D T1001      10.361  10.432 -21.799  1.00 30.60    -0.273 NA
BRANCH  12  13
HETATM   13  C10   D T1001      11.356   9.809 -20.862  1.00 29.84     0.103 C 
HETATM   14  C18   D T1001      12.362  10.849 -20.391  1.00 30.59     0.026 C 
BRANCH  13  15
HETATM   15  C11   D T1001      12.013   8.598 -21.542  1.00 31.56     0.026 C 
BRANCH  15  16
HETATM   16  C12   D T1001      12.039   7.303 -20.750  1.00 32.62     0.037 C 
BRANCH  16  17
HETATM   17  C13   D T1001      13.454   6.745 -20.732  1.00 31.65     0.250 C 
BRANCH  17  18
HETATM   18  N3    D T1001      14.074   6.713 -19.363  1.00 36.76     0.137 N 
BRANCH  18  19
HETATM   19  C14   D T1001      15.056   5.534 -19.183  1.00 36.54     0.250 C 
HETATM   20  C15   D T1001      14.970   4.721 -17.896  1.00 37.02     0.037 C 
ENDBRANCH  18  19
BRANCH  18  21
HETATM   21  C16   D T1001      14.530   8.063 -18.886  1.00 33.74     0.250 C 
HETATM   22  C17   D T1001      15.464   8.778 -19.806  1.00 35.69     0.037 C 
ENDBRANCH  18  21
ENDBRANCH  17  18
ENDBRANCH  16  17
ENDBRANCH  15  16
ENDBRANCH  13  15
ENDBRANCH  12  13
ENDBRANCH   5  12
TORSDOF 8
ENDMDL
MODEL 2
REMARK VINA RESULT:      -4.8      5.649      8.606
REMARK  8 active torsions:
REMARK  status: ('A' for Active; 'I' for Inactive)
REMARK    1  A    between atoms: C3_5  and  N2_12 
REMARK    2  A    between atoms: N2_12  and  C10_13 
REMARK    3  A    between atoms: C10_13  and  C11_14 
REMARK    4  A    between atoms: C11_14  and  C12_15 
REMARK    5  A    between atoms: C12_15  and  C13_16 
REMARK    6  A    between atoms: C13_16  and  N3_17 
REMARK    7  A    between atoms: N3_17  and  C14_18 
REMARK    8  A    between atoms: N3_17  and  C16_20 
ROOT
HETATM    1 CL     D T1001      20.615   8.773 -17.136  1.00 22.69    -0.082 Cl
HETATM    2  N1    D T1001      16.972   5.145 -16.889  1.00 34.43    -0.244 NA
HETATM    3  C1    D T1001      15.733   4.653 -17.092  1.00 35.26     0.101 A 
HETATM    4  C2    D T1001      14.736   5.416 -17.687  1.00 34.24     0.039 A 
HETATM    5  C3    D T1001      14.975   6.799 -18.092  1.00 31.96     0.079 A 
HETATM    6  C4    D T1001      16.326   7.353 -17.864  1.00 33.68     0.035 A 
HETATM    7  C5    D T1001      16.756   8.706 -18.219  1.00 34.90     0.004 A 
HETATM    8  C6    D T1001      18.066   9.143 -17.982  1.00 32.93     0.012 A 
HETATM    9  C7    D T1001      19.004   8.236 -17.387  1.00 31.88     0.059 A 
HETATM   10  C8    D T1001      18.650   6.926 -17.028  1.00 32.37     0.031 A 
HETATM   11  C9    D T1001      17.324   6.468 -17.258  1.00 35.42     0.084 A 
ENDROOT
BRANCH   5  12
HETATM   12  N2    D T1001      14.011   7.576 -18.677  1.00 30.60    -0.273 NA
BRANCH  12  13
HETATM   13  C10   D T1001      13.943   8.034 -20.106  1.00 29.84     0.103 C 
HETATM   14  C18   D T1001      12.730   8.928 -20.318  1.00 30.59     0.026 C 
BRANCH  13  15
HETATM   15  C11   D T1001      13.963   6.813 -21.038  1.00 31.56     0.026 C 
BRANCH  15  16
HETATM   16  C12   D T1001      14.990   6.825 -22.156  1.00 32.62     0.037 C 
BRANCH  16  17
HETATM   17  C13   D T1001      15.586   5.435 -22.317  1.00 31.65     0.250 C 
BRANCH  17  18
HETATM   18  N3    D T1001      15.777   4.705 -21.017  1.00 36.76     0.137 N 
BRANCH  18  19
HETATM   19  C14   D T1001      14.997   3.373 -20.963  1.00 36.54     0.250 C 
HETATM   20  C15   D T1001      13.685   3.280 -21.734  1.00 37.02     0.037 C 
ENDBRANCH  18  19
BRANCH  18  21
HETATM   21  C16   D T1001      17.207   4.681 -20.553  1.00 33.74     0.250 C 
HETATM   22  C17   D T1001      17.991   5.915 -20.854  1.00 35.69     0.037 C 
ENDBRANCH  18  21
ENDBRANCH  17  18
ENDBRANCH  16  17
ENDBRANCH  15  16
ENDBRANCH  13  15
ENDBRANCH  12  13
ENDBRANCH   5  12
TORSDOF 8
ENDMDL
MODEL 3
REMARK VINA RESULT:      -4.7      4.329      6.987
REMARK  8 active torsions:
REMARK  status: ('A' for Active; 'I' for Inactive)
REMARK    1  A    between atoms: C3_5  and  N2_12 
REMARK    2  A    between atoms: N2_12  and  C10_13 
REMARK    3  A    between atoms: C10_13  and  C11_14 
REMARK    4  A    between atoms: C11_14  and  C12_15 
REMARK    5  A    between atoms: C12_15  and  C13_16 
REMARK    6  A    between atoms: C13_16  and  N3_17 
REMARK    7  A    between atoms: N3_17  and  C14_18 
REMARK    8  A    between atoms: N3_17  and  C16_20 
ROOT
HETATM    1 CL     D T1001      10.738  10.183 -21.104  1.00 22.69    -0.082 Cl
HETATM    2  N1    D T1001      12.609   5.478 -22.026  1.00 34.43    -0.244 NA
HETATM    3  C1    D T1001      13.483   4.464 -21.858  1.00 35.26     0.101 A 
HETATM    4  C2    D T1001      14.559   4.568 -20.986  1.00 34.24     0.039 A 
HETATM    5  C3    D T1001      14.812   5.794 -20.232  1.00 31.96     0.079 A 
HETATM    6  C4    D T1001      13.868   6.916 -20.417  1.00 33.68     0.035 A 
HETATM    7  C5    D T1001      13.949   8.210 -19.738  1.00 34.90     0.004 A 
HETATM    8  C6    D T1001      12.997   9.214 -19.960  1.00 32.93     0.012 A 
HETATM    9  C7    D T1001      11.917   8.958 -20.867  1.00 31.88     0.059 A 
HETATM   10  C8    D T1001      11.786   7.736 -21.546  1.00 32.37     0.031 A 
HETATM   11  C9    D T1001      12.745   6.707 -21.335  1.00 35.42     0.084 A 
ENDROOT
BRANCH   5  12
HETATM   12  N2    D T1001      15.866   5.927 -19.368  1.00 30.60    -0.273 NA
BRANCH  12  13
HETATM   13  C10   D T1001      16.147   5.119 -18.133  1.00 29.84     0.103 C 
HETATM   14  C18   D T1001      14.858   4.858 -17.368  1.00 30.59     0.026 C 
BRANCH  13  15
HETATM   15  C11   D T1001      17.217   5.828 -17.289  1.00 31.56     0.026 C 
BRANCH  15  16
HETATM   16  C12   D T1001      17.111   7.338 -17.181  1.00 32.62     0.037 C 
BRANCH  16  17
HETATM   17  C13   D T1001      18.348   7.889 -16.488  1.00 31.65     0.250 C 
BRANCH  17  18
HETATM   18  N3    D T1001      18.335   9.383 -16.324  1.00 36.76     0.137 N 
BRANCH  18  19
HETATM   19  C14   D T1001      18.122   9.818 -14.858  1.00 36.54     0.250 C 
HETATM   20  C15   D T1001      18.995   9.173 -13.786  1.00 37.02     0.037 C 
ENDBRANCH  18  19
BRANCH  18  21
HETATM   21  C16   D T1001      19.426  10.075 -17.092  1.00 33.74     0.250 C 
HETATM   22  C17   D T1001      19.091  10.406 -18.509  1.00 35.69     0.037 C 
ENDBRANCH  18  21
ENDBRANCH  17  18
ENDBRANCH  16  17
ENDBRANCH  15  16
ENDBRANCH  13  15
ENDBRANCH  12  13
ENDBRANCH   5  12
TORSDOF 8
ENDMDL
MODEL 4
REMARK VINA RESULT:      -4.7     11.827     13.799
REMARK  8 active torsions:
REMARK  status: ('A' for Active; 'I' for Inactive)
REMARK    1  A    between atoms: C3_5  and  N2_12 
REMARK    2  A    between atoms: N2_12  and  C10_13 
REMARK    3  A    between atoms: C10_13  and  C11_14 
REMARK    4  A    between atoms: C11_14  and  C12_15 
REMARK    5  A    between atoms: C12_15  and  C13_16 
REMARK    6  A    between atoms: C13_16  and  N3_17 
REMARK    7  A    between atoms: N3_17  and  C14_18 
REMARK    8  A    between atoms: N3_17  and  C16_20 
ROOT
HETATM    1 CL     D T1001      16.547  14.855 -13.586  1.00 22.69    -0.082 Cl
HETATM    2  N1    D T1001      19.086  10.826 -11.633  1.00 34.43    -0.244 NA
HETATM    3  C1    D T1001      19.296   9.843 -10.733  1.00 35.26     0.101 A 
HETATM    4  C2    D T1001      18.459   9.668  -9.638  1.00 34.24     0.039 A 
HETATM    5  C3    D T1001      17.328  10.560  -9.394  1.00 31.96     0.079 A 
HETATM    6  C4    D T1001      17.094  11.647 -10.367  1.00 33.68     0.035 A 
HETATM    7  C5    D T1001      16.007  12.625 -10.299  1.00 34.90     0.004 A 
HETATM    8  C6    D T1001      15.850  13.614 -11.278  1.00 32.93     0.012 A 
HETATM    9  C7    D T1001      16.772  13.660 -12.374  1.00 31.88     0.059 A 
HETATM   10  C8    D T1001      17.834  12.748 -12.495  1.00 32.37     0.031 A 
HETATM   11  C9    D T1001      18.010  11.740 -11.508  1.00 35.42     0.084 A 
ENDROOT
BRANCH   5  12
HETATM   12  N2    D T1001      16.488  10.414  -8.322  1.00 30.60    -0.273 NA
BRANCH  12  13
HETATM   13  C10   D T1001      15.113   9.811  -8.310  1.00 29.84     0.103 C 
HETATM   14  C18   D T1001      14.294  10.386  -7.163  1.00 30.59     0.026 C 
BRANCH  13  15
HETATM   15  C11   D T1001      15.225   8.279  -8.264  1.00 31.56     0.026 C 
BRANCH  15  16
HETATM   16  C12   D T1001      14.033   7.526  -7.702  1.00 32.62     0.037 C 
BRANCH  16  17
HETATM   17  C13   D T1001      14.234   6.031  -7.902  1.00 31.65     0.250 C 
BRANCH  17  18
HETATM   18  N3    D T1001      14.033   5.222  -6.652  1.00 36.76     0.137 N 
BRANCH  18  19
HETATM   19  C14   D T1001      15.279   5.220  -5.739  1.00 36.54     0.250 C 
HETATM   20  C15   D T1001      16.648   5.368  -6.395  1.00 37.02     0.037 C 
ENDBRANCH  18  19
BRANCH  18  21
HETATM   21  C16   D T1001      12.703   5.463  -5.994  1.00 33.74     0.250 C 
HETATM   22  C17   D T1001      12.766   5.790  -4.538  1.00 35.69     0.037 C 
ENDBRANCH  18  21
ENDBRANCH  17  18
ENDBRANCH  16  17
ENDBRANCH  15  16
ENDBRANCH  13  15
ENDBRANCH  12  13
ENDBRANCH   5  12
TORSDOF 8
ENDMDL
MODEL 5
REMARK VINA RESULT:      -4.6     13.344     15.605
REMARK  8 active torsions:
REMARK  status: ('A' for Active; 'I' for Inactive)
REMARK    1  A    between atoms: C3_5  and  N2_12 
REMARK    2  A    between atoms: N2_12  and  C10_13 
REMARK    3  A    between atoms: C10_13  and  C11_14 
REMARK    4  A    between atoms: C11_14  and  C12_15 
REMARK    5  A    between atoms: C12_15  and  C13_16 
REMARK    6  A    between atoms: C13_16  and  N3_17 
REMARK    7  A    between atoms: N3_17  and  C14_18 
REMARK    8  A    between atoms: N3_17  and  C16_20 
ROOT
HETATM    1 CL     D T1001      18.978  11.021 -11.174  1.00 22.69    -0.082 Cl
HETATM    2  N1    D T1001      14.771  10.634  -8.234  1.00 34.43    -0.244 NA
HETATM    3  C1    D T1001      14.113  10.386  -7.083  1.00 35.26     0.101 A 
HETATM    4  C2    D T1001      14.783   9.993  -5.932  1.00 34.24     0.039 A 
HETATM    5  C3    D T1001      16.231   9.800  -5.922  1.00 31.96     0.079 A 
HETATM    6  C4    D T1001      16.962  10.058  -7.180  1.00 33.68     0.035 A 
HETATM    7  C5    D T1001      18.410   9.935  -7.358  1.00 34.90     0.004 A 
HETATM    8  C6    D T1001      19.023  10.217  -8.585  1.00 32.93     0.012 A 
HETATM    9  C7    D T1001      18.210  10.644  -9.686  1.00 31.88     0.059 A 
HETATM   10  C8    D T1001      16.817  10.782  -9.575  1.00 32.37     0.031 A 
HETATM   11  C9    D T1001      16.178  10.496  -8.338  1.00 35.42     0.084 A 
ENDROOT
BRANCH   5  12
HETATM   12  N2    D T1001      16.918   9.410  -4.803  1.00 30.60    -0.273 NA
BRANCH  12  13
HETATM   13  C10   D T1001      17.258   8.011  -4.377  1.00 29.84     0.103 C 
HETATM   14  C18   D T1001      18.754   7.882  -4.129  1.00 30.59     0.026 C 
BRANCH  13  15
HETATM   15  C11   D T1001      16.731   7.014  -5.420  1.00 31.56     0.026 C 
BRANCH  15  16
HETATM   16  C12   D T1001      15.848   5.891  -4.905  1.00 32.62     0.037 C 
BRANCH  16  17
HETATM   17  C13   D T1001      15.061   5.290  -6.060  1.00 31.65     0.250 C 
BRANCH  17  18
HETATM   18  N3    D T1001      13.926   6.153  -6.532  1.00 36.76     0.137 N 
BRANCH  18  19
HETATM   19  C14   D T1001      13.961   6.400  -8.056  1.00 36.54     0.250 C 
HETATM   20  C15   D T1001      15.213   7.036  -8.650  1.00 37.02     0.037 C 
ENDBRANCH  18  19
BRANCH  18  21
HETATM   21  C16   D T1001      12.601   5.775  -5.930  1.00 33.74     0.250 C 
HETATM   22  C17   D T1001      12.478   4.345  -5.519  1.00 35.69     0.037 C 
ENDBRANCH  18  21
ENDBRANCH  17  18
ENDBRANCH  16  17
ENDBRANCH  15  16
ENDBRANCH  13  15
ENDBRANCH  12  13
ENDBRANCH   5  12
TORSDOF 8
ENDMDL
MODEL 6
REMARK VINA RESULT:      -4.6      5.614      8.791
REMARK  8 active torsions:
REMARK  status: ('A' for Active; 'I' for Inactive)
REMARK    1  A    between atoms: C3_5  and  N2_12 
REMARK    2  A    between atoms: N2_12  and  C10_13 
REMARK    3  A    between atoms: C10_13  and  C11_14 
REMARK    4  A    between atoms: C11_14  and  C12_15 
REMARK    5  A    between atoms: C12_15  and  C13_16 
REMARK    6  A    between atoms: C13_16  and  N3_17 
REMARK    7  A    between atoms: N3_17  and  C14_18 
REMARK    8  A    between atoms: N3_17  and  C16_20 
ROOT
HETATM    1 CL     D T1001      13.281   2.521 -22.542  1.00 22.69    -0.082 Cl
HETATM    2  N1    D T1001      12.925   7.482 -21.216  1.00 34.43    -0.244 NA
HETATM    3  C1    D T1001      13.204   8.556 -20.450  1.00 35.26     0.101 A 
HETATM    4  C2    D T1001      14.033   8.464 -19.340  1.00 34.24     0.039 A 
HETATM    5  C3    D T1001      14.619   7.189 -18.932  1.00 31.96     0.079 A 
HETATM    6  C4    D T1001      14.313   6.002 -19.756  1.00 33.68     0.035 A 
HETATM    7  C5    D T1001      14.820   4.651 -19.515  1.00 34.90     0.004 A 
HETATM    8  C6    D T1001      14.491   3.584 -20.362  1.00 32.93     0.012 A 
HETATM    9  C7    D T1001      13.646   3.829 -21.493  1.00 31.88     0.059 A 
HETATM   10  C8    D T1001      13.131   5.105 -21.777  1.00 32.37     0.031 A 
HETATM   11  C9    D T1001      13.452   6.198 -20.926  1.00 35.42     0.084 A 
ENDROOT
BRANCH   5  12
HETATM   12  N2    D T1001      15.438   7.067 -17.840  1.00 30.60    -0.273 NA
BRANCH  12  13
HETATM   13  C10   D T1001      16.939   7.094 -17.812  1.00 29.84     0.103 C 
HETATM   14  C18   D T1001      17.476   5.861 -17.100  1.00 30.59     0.026 C 
BRANCH  13  15
HETATM   15  C11   D T1001      17.416   8.412 -17.182  1.00 31.56     0.026 C 
BRANCH  15  16
HETATM   16  C12   D T1001      18.353   8.298 -15.993  1.00 32.62     0.037 C 
BRANCH  16  17
HETATM   17  C13   D T1001      19.212   9.550 -15.898  1.00 31.65     0.250 C 
BRANCH  17  18
HETATM   18  N3    D T1001      19.545   9.950 -14.488  1.00 36.76     0.137 N 
BRANCH  18  19
HETATM   19  C14   D T1001      18.396  10.723 -13.803  1.00 36.54     0.250 C 
HETATM   20  C15   D T1001      18.713  12.087 -13.198  1.00 37.02     0.037 C 
ENDBRANCH  18  19
BRANCH  18  21
HETATM   21  C16   D T1001      20.198   8.851 -13.697  1.00 33.74     0.250 C 
HETATM   22  C17   D T1001      19.606   8.604 -12.349  1.00 35.69     0.037 C 
ENDBRANCH  18  21
ENDBRANCH  17  18
ENDBRANCH  16  17
ENDBRANCH  15  16
ENDBRANCH  13  15
ENDBRANCH  12  13
ENDBRANCH   5  12
TORSDOF 8
ENDMDL
MODEL 7
REMARK VINA RESULT:      -4.6     11.020     14.675
REMARK  8 active torsions:
REMARK  status: ('A' for Active; 'I' for Inactive)
REMARK    1  A    between atoms: C3_5  and  N2_12 
REMARK    2  A    between atoms: N2_12  and  C10_13 
REMARK    3  A    between atoms: C10_13  and  C11_14 
REMARK    4  A    between atoms: C11_14  and  C12_15 
REMARK    5  A    between atoms: C12_15  and  C13_16 
REMARK    6  A    between atoms: C13_16  and  N3_17 
REMARK    7  A    between atoms: N3_17  and  C14_18 
REMARK    8  A    between atoms: N3_17  and  C16_20 
ROOT
HETATM    1 CL     D T1001      12.431   4.343  -6.059  1.00 22.69    -0.082 Cl
HETATM    2  N1    D T1001      17.041   6.396  -5.048  1.00 34.43    -0.244 NA
HETATM    3  C1    D T1001      18.077   7.228  -5.280  1.00 35.26     0.101 A 
HETATM    4  C2    D T1001      18.088   8.092  -6.368  1.00 34.24     0.039 A 
HETATM    5  C3    D T1001      16.989   8.116  -7.331  1.00 31.96     0.079 A 
HETATM    6  C4    D T1001      15.853   7.201  -7.093  1.00 33.68     0.035 A 
HETATM    7  C5    D T1001      14.660   7.097  -7.935  1.00 34.90     0.004 A 
HETATM    8  C6    D T1001      13.620   6.211  -7.624  1.00 32.93     0.012 A 
HETATM    9  C7    D T1001      13.728   5.398  -6.448  1.00 31.88     0.059 A 
HETATM   10  C8    D T1001      14.847   5.456  -5.602  1.00 32.37     0.031 A 
HETATM   11  C9    D T1001      15.913   6.347  -5.905  1.00 35.42     0.084 A 
ENDROOT
BRANCH   5  12
HETATM   12  N2    D T1001      16.973   8.954  -8.414  1.00 30.60    -0.273 NA
BRANCH  12  13
HETATM   13  C10   D T1001      16.724  10.435  -8.425  1.00 29.84     0.103 C 
HETATM   14  C18   D T1001      15.232  10.719  -8.523  1.00 30.59     0.026 C 
BRANCH  13  15
HETATM   15  C11   D T1001      17.538  11.084  -9.555  1.00 31.56     0.026 C 
BRANCH  15  16
HETATM   16  C12   D T1001      18.594  10.219 -10.218  1.00 32.62     0.037 C 
BRANCH  16  17
HETATM   17  C13   D T1001      19.268  11.002 -11.335  1.00 31.65     0.250 C 
BRANCH  17  18
HETATM   18  N3    D T1001      18.563  10.895 -12.658  1.00 36.76     0.137 N 
BRANCH  18  19
HETATM   19  C14   D T1001      17.826  12.195 -13.046  1.00 36.54     0.250 C 
HETATM   20  C15   D T1001      16.316  12.128 -13.251  1.00 37.02     0.037 C 
ENDBRANCH  18  19
BRANCH  18  21
HETATM   21  C16   D T1001      19.396  10.236 -13.723  1.00 33.74     0.250 C 
HETATM   22  C17   D T1001      18.785   9.024 -14.345  1.00 35.69     0.037 C 
ENDBRANCH  18  21
ENDBRANCH  17  18
ENDBRANCH  16  17
ENDBRANCH  15  16
ENDBRANCH  13  15
ENDBRANCH  12  13
ENDBRANCH   5  12
TORSDOF 8
ENDMDL
MODEL 8
REMARK VINA RESULT:      -4.5      1.793      3.239
REMARK  8 active torsions:
REMARK  status: ('A' for Active; 'I' for Inactive)
REMARK    1  A    between atoms: C3_5  and  N2_12 
REMARK    2  A    between atoms: N2_12  and  C10_13 
REMARK    3  A    between atoms: C10_13  and  C11_14 
REMARK    4  A    between atoms: C11_14  and  C12_15 
REMARK    5  A    between atoms: C12_15  and  C13_16 
REMARK    6  A    between atoms: C13_16  and  N3_17 
REMARK    7  A    between atoms: N3_17  and  C14_18 
REMARK    8  A    between atoms: N3_17  and  C16_20 
ROOT
HETATM    1 CL     D T1001       5.274  14.712 -17.891  1.00 22.69    -0.082 Cl
HETATM    2  N1    D T1001      10.294  14.827 -19.022  1.00 34.43    -0.244 NA
HETATM    3  C1    D T1001      11.433  14.326 -19.543  1.00 35.26     0.101 A 
HETATM    4  C2    D T1001      11.467  13.080 -20.156  1.00 34.24     0.039 A 
HETATM    5  C3    D T1001      10.274  12.240 -20.238  1.00 31.96     0.079 A 
HETATM    6  C4    D T1001       9.022  12.773 -19.662  1.00 33.68     0.035 A 
HETATM    7  C5    D T1001       7.730  12.087 -19.665  1.00 34.90     0.004 A 
HETATM    8  C6    D T1001       6.587  12.677 -19.110  1.00 32.93     0.012 A 
HETATM    9  C7    D T1001       6.689  13.986 -18.536  1.00 31.88     0.059 A 
HETATM   10  C8    D T1001       7.902  14.694 -18.505  1.00 32.37     0.031 A 
HETATM   11  C9    D T1001       9.073  14.109 -19.061  1.00 35.42     0.084 A 
ENDROOT
BRANCH   5  12
HETATM   12  N2    D T1001      10.278  11.006 -20.834  1.00 30.60    -0.273 NA
BRANCH  12  13
HETATM   13  C10   D T1001      11.451  10.276 -21.423  1.00 29.84     0.103 C 
HETATM   14  C18   D T1001      10.972   9.169 -22.351  1.00 30.59     0.026 C 
BRANCH  13  15
HETATM   15  C11   D T1001      12.359   9.767 -20.293  1.00 31.56     0.026 C 
BRANCH  15  16
HETATM   16  C12   D T1001      12.841   8.332 -20.401  1.00 32.62     0.037 C 
BRANCH  16  17
HETATM   17  C13   D T1001      13.910   8.072 -19.350  1.00 31.65     0.250 C 
BRANCH  17  18
HETATM   18  N3    D T1001      14.262   6.620 -19.192  1.00 36.76     0.137 N 
BRANCH  18  19
HETATM   19  C14   D T1001      14.796   5.993 -20.498  1.00 36.54     0.250 C 
HETATM   20  C15   D T1001      13.908   4.990 -21.227  1.00 37.02     0.037 C 
ENDBRANCH  18  19
BRANCH  18  21
HETATM   21  C16   D T1001      15.024   6.326 -17.929  1.00 33.74     0.250 C 
HETATM   22  C17   D T1001      15.052   4.889 -17.526  1.00 35.69     0.037 C 
ENDBRANCH  18  21
ENDBRANCH  17  18
ENDBRANCH  16  17
ENDBRANCH  15  16
ENDBRANCH  13  15
ENDBRANCH  12  13
ENDBRANCH   5  12
TORSDOF 8
ENDMDL
MODEL 9
REMARK VINA RESULT:      -4.5     13.924     16.378
REMARK  8 active torsions:
REMARK  status: ('A' for Active; 'I' for Inactive)
REMARK    1  A    between atoms: C3_5  and  N2_12 
REMARK    2  A    between atoms: N2_12  and  C10_13 
REMARK    3  A    between atoms: C10_13  and  C11_14 
REMARK    4  A    between atoms: C11_14  and  C12_15 
REMARK    5  A    between atoms: C12_15  and  C13_16 
REMARK    6  A    between atoms: C13_16  and  N3_17 
REMARK    7  A    between atoms: N3_17  and  C14_18 
REMARK    8  A    between atoms: N3_17  and  C16_20 
ROOT
HETATM    1 CL     D T1001      12.340   4.153  -5.907  1.00 22.69    -0.082 Cl
HETATM    2  N1    D T1001      17.119   6.038  -5.598  1.00 34.43    -0.244 NA
HETATM    3  C1    D T1001      18.103   6.909  -5.904  1.00 35.26     0.101 A 
HETATM    4  C2    D T1001      17.899   7.954  -6.795  1.00 34.24     0.039 A 
HETATM    5  C3    D T1001      16.615   8.140  -7.469  1.00 31.96     0.079 A 
HETATM    6  C4    D T1001      15.533   7.186  -7.151  1.00 33.68     0.035 A 
HETATM    7  C5    D T1001      14.182   7.222  -7.711  1.00 34.90     0.004 A 
HETATM    8  C6    D T1001      13.209   6.284  -7.339  1.00 32.93     0.012 A 
HETATM    9  C7    D T1001      13.550   5.274  -6.381  1.00 31.88     0.059 A 
HETATM   10  C8    D T1001      14.829   5.190  -5.808  1.00 32.37     0.031 A 
HETATM   11  C9    D T1001      15.829   6.132  -6.177  1.00 35.42     0.084 A 
ENDROOT
BRANCH   5  12
HETATM   12  N2    D T1001      16.386   9.159  -8.355  1.00 30.60    -0.273 NA
BRANCH  12  13
HETATM   13  C10   D T1001      15.836  10.525  -8.060  1.00 29.84     0.103 C 
HETATM   14  C18   D T1001      16.555  11.576  -8.893  1.00 30.59     0.026 C 
BRANCH  13  15
HETATM   15  C11   D T1001      15.913  10.794  -6.550  1.00 31.56     0.026 C 
BRANCH  15  16
HETATM   16  C12   D T1001      14.735  10.328  -5.713  1.00 32.62     0.037 C 
BRANCH  16  17
HETATM   17  C13   D T1001      14.846  10.906  -4.310  1.00 31.65     0.250 C 
BRANCH  17  18
HETATM   18  N3    D T1001      15.353   9.926  -3.291  1.00 36.76     0.137 N 
BRANCH  18  19
HETATM   19  C14   D T1001      15.148   8.458  -3.725  1.00 36.54     0.250 C 
HETATM   20  C15   D T1001      13.972   7.692  -3.128  1.00 37.02     0.037 C 
ENDBRANCH  18  19
BRANCH  18  21
HETATM   21  C16   D T1001      16.700  10.293  -2.732  1.00 33.74     0.250 C 
HETATM   22  C17   D T1001      17.868   9.787  -3.511  1.00 35.69     0.037 C 
ENDBRANCH  18  21
ENDBRANCH  17  18
ENDBRANCH  16  17
ENDBRANCH  15  16
ENDBRANCH  13  15
ENDBRANCH  12  13
ENDBRANCH   5  12
TORSDOF 8
ENDMDL
