MODEL 1
REMARK VINA RESULT:    -5.310      0.000      0.000
REMARK INTER + INTRA:          -9.015
REMARK INTER:                  -7.793
REMARK INTRA:                  -1.222
REMARK UNBOUND:                -1.222
REMARK  8 active torsions:
REMARK  status: ('A' for Active; 'I' for Inactive)
REMARK    1  A    between atoms: C3_5  and  N2_12 
REMARK    2  A    between atoms: N2_12  and  C10_13 
REMARK    3  A    between atoms: C10_13  and  C11_14 
REMARK    4  A    between atoms: C11_14  and  C12_15 
REMARK    5  A    between atoms: C12_15  and  C13_16 
REMARK    6  A    between atoms: C13_16  and  N3_17 
REMARK    7  A    between atoms: N3_17  and  C14_18 
REMARK    8  A    between atoms: N3_17  and  C16_20 
ROOT
HETATM    1 CL     D T1001      11.460   9.937 -13.970  1.00 22.69    -0.082 Cl
HETATM    2  N1    D T1001      12.453   5.268 -12.043  1.00 34.43    -0.244 NA
HETATM    3  C1    D T1001      12.813   4.409 -11.068  1.00 35.26     0.101 A 
HETATM    4  C2    D T1001      13.149   4.852  -9.795  1.00 34.24     0.039 A 
HETATM    5  C3    D T1001      13.158   6.274  -9.462  1.00 31.96     0.079 A 
HETATM    6  C4    D T1001      12.777   7.227 -10.525  1.00 33.68     0.035 A 
HETATM    7  C5    D T1001      12.711   8.681 -10.375  1.00 34.90     0.004 A 
HETATM    8  C6    D T1001      12.321   9.510 -11.435  1.00 32.93     0.012 A 
HETATM    9  C7    D T1001      11.970   8.913 -12.690  1.00 31.88     0.059 A 
HETATM   10  C8    D T1001      12.012   7.524 -12.894  1.00 32.37     0.031 A 
HETATM   11  C9    D T1001      12.409   6.669 -11.829  1.00 35.42     0.084 A 
ENDROOT
BRANCH   5  12
HETATM   12  N2    D T1001      13.488   6.741  -8.217  1.00 30.60    -0.273 NA
BRANCH  12  13
HETATM   13  C10   D T1001      13.902   5.938  -7.017  1.00 29.84     0.103 C 
HETATM   14  C18   D T1001      12.709   5.699  -6.104  1.00 30.59     0.026 C 
BRANCH  13  15
HETATM   15  C11   D T1001      15.073   6.638  -6.310  1.00 31.56     0.026 C 
BRANCH  15  16
HETATM   16  C12   D T1001      16.124   7.276  -7.201  1.00 32.62     0.037 C 
BRANCH  16  17
HETATM   17  C13   D T1001      16.249   8.754  -6.862  1.00 31.65     0.250 C 
BRANCH  17  18
HETATM   18  N3    D T1001      14.975   9.369  -6.355  1.00 36.76     0.137 N 
BRANCH  18  19
HETATM   19  C14   D T1001      15.135   9.999  -4.955  1.00 36.54     0.250 C 
HETATM   20  C15   D T1001      16.176  11.100  -4.780  1.00 37.02     0.037 C 
ENDBRANCH  18  19
BRANCH  18  21
HETATM   21  C16   D T1001      14.253  10.181  -7.394  1.00 33.74     0.250 C 
HETATM   22  C17   D T1001      15.122  10.760  -8.462  1.00 35.69     0.037 C 
ENDBRANCH  18  21
ENDBRANCH  17  18
ENDBRANCH  16  17
ENDBRANCH  15  16
ENDBRANCH  13  15
ENDBRANCH  12  13
ENDBRANCH   5  12
TORSDOF 8
ENDMDL
MODEL 2
REMARK VINA RESULT:    -5.302      1.589      2.427
REMARK INTER + INTRA:          -9.003
REMARK INTER:                  -7.657
REMARK INTRA:                  -1.346
REMARK UNBOUND:                -1.222
REMARK  8 active torsions:
REMARK  status: ('A' for Active; 'I' for Inactive)
REMARK    1  A    between atoms: C3_5  and  N2_12 
REMARK    2  A    between atoms: N2_12  and  C10_13 
REMARK    3  A    between atoms: C10_13  and  C11_14 
REMARK    4  A    between atoms: C11_14  and  C12_15 
REMARK    5  A    between atoms: C12_15  and  C13_16 
REMARK    6  A    between atoms: C13_16  and  N3_17 
REMARK    7  A    between atoms: N3_17  and  C14_18 
REMARK    8  A    between atoms: N3_17  and  C16_20 
ROOT
HETATM    1 CL     D T1001      11.019   9.551 -14.335  1.00 22.69    -0.082 Cl
HETATM    2  N1    D T1001      12.387   5.175 -11.995  1.00 34.43    -0.244 NA
HETATM    3  C1    D T1001      12.852   4.446 -10.960  1.00 35.26     0.101 A 
HETATM    4  C2    D T1001      13.239   5.041  -9.766  1.00 34.24     0.039 A 
HETATM    5  C3    D T1001      13.187   6.490  -9.586  1.00 31.96     0.079 A 
HETATM    6  C4    D T1001      12.690   7.301 -10.717  1.00 33.68     0.035 A 
HETATM    7  C5    D T1001      12.552   8.758 -10.717  1.00 34.90     0.004 A 
HETATM    8  C6    D T1001      12.053   9.446 -11.831  1.00 32.93     0.012 A 
HETATM    9  C7    D T1001      11.662   8.699 -12.991  1.00 31.88     0.059 A 
HETATM   10  C8    D T1001      11.770   7.300 -13.049  1.00 32.37     0.031 A 
HETATM   11  C9    D T1001      12.277   6.587 -11.928  1.00 35.42     0.084 A 
ENDROOT
BRANCH   5  12
HETATM   12  N2    D T1001      13.565   7.105  -8.422  1.00 30.60    -0.273 NA
BRANCH  12  13
HETATM   13  C10   D T1001      14.885   7.750  -8.111  1.00 29.84     0.103 C 
HETATM   14  C18   D T1001      15.874   6.710  -7.603  1.00 30.59     0.026 C 
BRANCH  13  15
HETATM   15  C11   D T1001      14.671   8.911  -7.129  1.00 31.56     0.026 C 
BRANCH  15  16
HETATM   16  C12   D T1001      14.390  10.274  -7.735  1.00 32.62     0.037 C 
BRANCH  16  17
HETATM   17  C13   D T1001      15.161  10.421  -9.038  1.00 31.65     0.250 C 
BRANCH  17  18
HETATM   18  N3    D T1001      16.212  11.495  -9.000  1.00 36.76     0.137 N 
BRANCH  18  19
HETATM   19  C14   D T1001      17.589  10.963  -8.549  1.00 36.54     0.250 C 
HETATM   20  C15   D T1001      18.012   9.577  -9.024  1.00 37.02     0.037 C 
ENDBRANCH  18  19
BRANCH  18  21
HETATM   21  C16   D T1001      16.186  12.395 -10.205  1.00 33.74     0.250 C 
HETATM   22  C17   D T1001      14.951  12.302 -11.039  1.00 35.69     0.037 C 
ENDBRANCH  18  21
ENDBRANCH  17  18
ENDBRANCH  16  17
ENDBRANCH  15  16
ENDBRANCH  13  15
ENDBRANCH  12  13
ENDBRANCH   5  12
TORSDOF 8
ENDMDL
MODEL 3
REMARK VINA RESULT:    -5.299      2.058      3.624
REMARK INTER + INTRA:          -8.999
REMARK INTER:                  -8.009
REMARK INTRA:                  -0.990
REMARK UNBOUND:                -1.222
REMARK  8 active torsions:
REMARK  status: ('A' for Active; 'I' for Inactive)
REMARK    1  A    between atoms: C3_5  and  N2_12 
REMARK    2  A    between atoms: N2_12  and  C10_13 
REMARK    3  A    between atoms: C10_13  and  C11_14 
REMARK    4  A    between atoms: C11_14  and  C12_15 
REMARK    5  A    between atoms: C12_15  and  C13_16 
REMARK    6  A    between atoms: C13_16  and  N3_17 
REMARK    7  A    between atoms: N3_17  and  C14_18 
REMARK    8  A    between atoms: N3_17  and  C16_20 
ROOT
HETATM    1 CL     D T1001      13.498  13.745 -12.308  1.00 22.69    -0.082 Cl
HETATM    2  N1    D T1001      11.552   9.300 -14.026  1.00 34.43    -0.244 NA
HETATM    3  C1    D T1001      11.227   7.996 -13.919  1.00 35.26     0.101 A 
HETATM    4  C2    D T1001      11.502   7.268 -12.769  1.00 34.24     0.039 A 
HETATM    5  C3    D T1001      12.186   7.876 -11.629  1.00 31.96     0.079 A 
HETATM    6  C4    D T1001      12.557   9.302 -11.738  1.00 33.68     0.035 A 
HETATM    7  C5    D T1001      13.229  10.083 -10.699  1.00 34.90     0.004 A 
HETATM    8  C6    D T1001      13.529  11.440 -10.880  1.00 32.93     0.012 A 
HETATM    9  C7    D T1001      13.158  12.074 -12.112  1.00 31.88     0.059 A 
HETATM   10  C8    D T1001      12.510  11.377 -13.144  1.00 32.37     0.031 A 
HETATM   11  C9    D T1001      12.202   9.999 -12.977  1.00 35.42     0.084 A 
ENDROOT
BRANCH   5  12
HETATM   12  N2    D T1001      12.474   7.183 -10.483  1.00 30.60    -0.273 NA
BRANCH  12  13
HETATM   13  C10   D T1001      13.567   6.176 -10.270  1.00 29.84     0.103 C 
HETATM   14  C18   D T1001      13.068   4.777 -10.601  1.00 30.59     0.026 C 
BRANCH  13  15
HETATM   15  C11   D T1001      14.109   6.301  -8.839  1.00 31.56     0.026 C 
BRANCH  15  16
HETATM   16  C12   D T1001      13.127   6.035  -7.712  1.00 32.62     0.037 C 
BRANCH  16  17
HETATM   17  C13   D T1001      13.718   6.518  -6.396  1.00 31.65     0.250 C 
BRANCH  17  18
HETATM   18  N3    D T1001      15.035   7.224  -6.547  1.00 36.76     0.137 N 
BRANCH  18  19
HETATM   19  C14   D T1001      14.908   8.757  -6.405  1.00 36.54     0.250 C 
HETATM   20  C15   D T1001      15.195   9.616  -7.631  1.00 37.02     0.037 C 
ENDBRANCH  18  19
BRANCH  18  21
HETATM   21  C16   D T1001      16.157   6.558  -5.800  1.00 33.74     0.250 C 
HETATM   22  C17   D T1001      16.558   5.218  -6.323  1.00 35.69     0.037 C 
ENDBRANCH  18  21
ENDBRANCH  17  18
ENDBRANCH  16  17
ENDBRANCH  15  16
ENDBRANCH  13  15
ENDBRANCH  12  13
ENDBRANCH   5  12
TORSDOF 8
ENDMDL
MODEL 4
REMARK VINA RESULT:    -5.150      2.190      3.794
REMARK INTER + INTRA:          -8.780
REMARK INTER:                  -7.770
REMARK INTRA:                  -1.010
REMARK UNBOUND:                -1.222
REMARK  8 active torsions:
REMARK  status: ('A' for Active; 'I' for Inactive)
REMARK    1  A    between atoms: C3_5  and  N2_12 
REMARK    2  A    between atoms: N2_12  and  C10_13 
REMARK    3  A    between atoms: C10_13  and  C11_14 
REMARK    4  A    between atoms: C11_14  and  C12_15 
REMARK    5  A    between atoms: C12_15  and  C13_16 
REMARK    6  A    between atoms: C13_16  and  N3_17 
REMARK    7  A    between atoms: N3_17  and  C14_18 
REMARK    8  A    between atoms: N3_17  and  C16_20 
ROOT
HETATM    1 CL     D T1001      11.587   6.313 -13.053  1.00 22.69    -0.082 Cl
HETATM    2  N1    D T1001      12.902   9.662  -9.372  1.00 34.43    -0.244 NA
HETATM    3  C1    D T1001      13.488  10.022  -8.211  1.00 35.26     0.101 A 
HETATM    4  C2    D T1001      14.157   9.101  -7.416  1.00 34.24     0.039 A 
HETATM    5  C3    D T1001      14.232   7.689  -7.787  1.00 31.96     0.079 A 
HETATM    6  C4    D T1001      13.585   7.280  -9.050  1.00 33.68     0.035 A 
HETATM    7  C5    D T1001      13.570   5.920  -9.592  1.00 34.90     0.004 A 
HETATM    8  C6    D T1001      12.946   5.624 -10.810  1.00 32.93     0.012 A 
HETATM    9  C7    D T1001      12.317   6.683 -11.544  1.00 31.88     0.059 A 
HETATM   10  C8    D T1001      12.300   8.007 -11.076  1.00 32.37     0.031 A 
HETATM   11  C9    D T1001      12.927   8.324  -9.839  1.00 35.42     0.084 A 
ENDROOT
BRANCH   5  12
HETATM   12  N2    D T1001      14.883   6.757  -7.022  1.00 30.60    -0.273 NA
BRANCH  12  13
HETATM   13  C10   D T1001      16.353   6.675  -6.729  1.00 29.84     0.103 C 
HETATM   14  C18   D T1001      16.746   5.244  -6.392  1.00 30.59     0.026 C 
BRANCH  13  15
HETATM   15  C11   D T1001      16.712   7.677  -5.621  1.00 31.56     0.026 C 
BRANCH  15  16
HETATM   16  C12   D T1001      16.877   7.115  -4.221  1.00 32.62     0.037 C 
BRANCH  16  17
HETATM   17  C13   D T1001      16.432   8.151  -3.199  1.00 31.65     0.250 C 
BRANCH  17  18
HETATM   18  N3    D T1001      15.017   7.965  -2.728  1.00 36.76     0.137 N 
BRANCH  18  19
HETATM   19  C14   D T1001      14.058   9.037  -3.289  1.00 36.54     0.250 C 
HETATM   20  C15   D T1001      14.605  10.445  -3.504  1.00 37.02     0.037 C 
ENDBRANCH  18  19
BRANCH  18  21
HETATM   21  C16   D T1001      14.555   6.536  -2.784  1.00 33.74     0.250 C 
HETATM   22  C17   D T1001      13.296   6.307  -3.555  1.00 35.69     0.037 C 
ENDBRANCH  18  21
ENDBRANCH  17  18
ENDBRANCH  16  17
ENDBRANCH  15  16
ENDBRANCH  13  15
ENDBRANCH  12  13
ENDBRANCH   5  12
TORSDOF 8
ENDMDL
MODEL 5
REMARK VINA RESULT:    -5.098      1.451      3.095
REMARK INTER + INTRA:          -8.704
REMARK INTER:                  -7.869
REMARK INTRA:                  -0.835
REMARK UNBOUND:                -1.222
REMARK  8 active torsions:
REMARK  status: ('A' for Active; 'I' for Inactive)
REMARK    1  A    between atoms: C3_5  and  N2_12 
REMARK    2  A    between atoms: N2_12  and  C10_13 
REMARK    3  A    between atoms: C10_13  and  C11_14 
REMARK    4  A    between atoms: C11_14  and  C12_15 
REMARK    5  A    between atoms: C12_15  and  C13_16 
REMARK    6  A    between atoms: C13_16  and  N3_17 
REMARK    7  A    between atoms: N3_17  and  C14_18 
REMARK    8  A    between atoms: N3_17  and  C16_20 
ROOT
HETATM    1 CL     D T1001      11.169   9.207 -14.346  1.00 22.69    -0.082 Cl
HETATM    2  N1    D T1001      12.651   5.247 -11.410  1.00 34.43    -0.244 NA
HETATM    3  C1    D T1001      13.110   4.683 -10.274  1.00 35.26     0.101 A 
HETATM    4  C2    D T1001      13.423   5.447  -9.156  1.00 34.24     0.039 A 
HETATM    5  C3    D T1001      13.297   6.903  -9.170  1.00 31.96     0.079 A 
HETATM    6  C4    D T1001      12.805   7.533 -10.413  1.00 33.68     0.035 A 
HETATM    7  C5    D T1001      12.600   8.969 -10.608  1.00 34.90     0.004 A 
HETATM    8  C6    D T1001      12.112   9.480 -11.818  1.00 32.93     0.012 A 
HETATM    9  C7    D T1001      11.800   8.571 -12.881  1.00 31.88     0.059 A 
HETATM   10  C8    D T1001      11.975   7.184 -12.752  1.00 32.37     0.031 A 
HETATM   11  C9    D T1001      12.473   6.648 -11.532  1.00 35.42     0.084 A 
ENDROOT
BRANCH   5  12
HETATM   12  N2    D T1001      13.601   7.682  -8.085  1.00 30.60    -0.273 NA
BRANCH  12  13
HETATM   13  C10   D T1001      14.838   8.503  -7.864  1.00 29.84     0.103 C 
HETATM   14  C18   D T1001      16.050   7.807  -8.466  1.00 30.59     0.026 C 
BRANCH  13  15
HETATM   15  C11   D T1001      14.996   8.802  -6.365  1.00 31.56     0.026 C 
BRANCH  15  16
HETATM   16  C12   D T1001      15.964   7.923  -5.594  1.00 32.62     0.037 C 
BRANCH  16  17
HETATM   17  C13   D T1001      15.246   7.288  -4.413  1.00 31.65     0.250 C 
BRANCH  17  18
HETATM   18  N3    D T1001      14.899   5.841  -4.624  1.00 36.76     0.137 N 
BRANCH  18  19
HETATM   19  C14   D T1001      13.398   5.552  -4.404  1.00 36.54     0.250 C 
HETATM   20  C15   D T1001      12.525   5.322  -5.633  1.00 37.02     0.037 C 
ENDBRANCH  18  19
BRANCH  18  21
HETATM   21  C16   D T1001      15.538   5.249  -5.849  1.00 33.74     0.250 C 
HETATM   22  C17   D T1001      16.990   4.927  -5.714  1.00 35.69     0.037 C 
ENDBRANCH  18  21
ENDBRANCH  17  18
ENDBRANCH  16  17
ENDBRANCH  15  16
ENDBRANCH  13  15
ENDBRANCH  12  13
ENDBRANCH   5  12
TORSDOF 8
ENDMDL
MODEL 6
REMARK VINA RESULT:    -5.070      3.174      5.033
REMARK INTER + INTRA:          -8.663
REMARK INTER:                  -7.158
REMARK INTRA:                  -1.505
REMARK UNBOUND:                -1.222
REMARK  8 active torsions:
REMARK  status: ('A' for Active; 'I' for Inactive)
REMARK    1  A    between atoms: C3_5  and  N2_12 
REMARK    2  A    between atoms: N2_12  and  C10_13 
REMARK    3  A    between atoms: C10_13  and  C11_14 
REMARK    4  A    between atoms: C11_14  and  C12_15 
REMARK    5  A    between atoms: C12_15  and  C13_16 
REMARK    6  A    between atoms: C13_16  and  N3_17 
REMARK    7  A    between atoms: N3_17  and  C14_18 
REMARK    8  A    between atoms: N3_17  and  C16_20 
ROOT
HETATM    1 CL     D T1001      13.543   5.719  -9.965  1.00 22.69    -0.082 Cl
HETATM    2  N1    D T1001      12.445   4.886  -5.006  1.00 34.43    -0.244 NA
HETATM    3  C1    D T1001      12.637   5.032  -3.679  1.00 35.26     0.101 A 
HETATM    4  C2    D T1001      13.676   5.803  -3.174  1.00 34.24     0.039 A 
HETATM    5  C3    D T1001      14.630   6.468  -4.059  1.00 31.96     0.079 A 
HETATM    6  C4    D T1001      14.437   6.306  -5.515  1.00 33.68     0.035 A 
HETATM    7  C5    D T1001      15.277   6.907  -6.552  1.00 34.90     0.004 A 
HETATM    8  C6    D T1001      15.009   6.715  -7.914  1.00 32.93     0.012 A 
HETATM    9  C7    D T1001      13.880   5.917  -8.294  1.00 31.88     0.059 A 
HETATM   10  C8    D T1001      13.038   5.316  -7.345  1.00 32.37     0.031 A 
HETATM   11  C9    D T1001      13.297   5.499  -5.958  1.00 35.42     0.084 A 
ENDROOT
BRANCH   5  12
HETATM   12  N2    D T1001      15.667   7.231  -3.591  1.00 30.60    -0.273 NA
BRANCH  12  13
HETATM   13  C10   D T1001      15.648   8.694  -3.253  1.00 29.84     0.103 C 
HETATM   14  C18   D T1001      14.215   9.183  -3.101  1.00 30.59     0.026 C 
BRANCH  13  15
HETATM   15  C11   D T1001      16.445   9.475  -4.309  1.00 31.56     0.026 C 
BRANCH  15  16
HETATM   16  C12   D T1001      15.714  10.599  -5.020  1.00 32.62     0.037 C 
BRANCH  16  17
HETATM   17  C13   D T1001      16.438  10.941  -6.314  1.00 31.65     0.250 C 
BRANCH  17  18
HETATM   18  N3    D T1001      15.564  10.865  -7.534  1.00 36.76     0.137 N 
BRANCH  18  19
HETATM   19  C14   D T1001      16.316  10.328  -8.771  1.00 36.54     0.250 C 
HETATM   20  C15   D T1001      17.457   9.341  -8.543  1.00 37.02     0.037 C 
ENDBRANCH  18  19
BRANCH  18  21
HETATM   21  C16   D T1001      14.204  10.288  -7.256  1.00 33.74     0.250 C 
HETATM   22  C17   D T1001      13.366  10.029  -8.465  1.00 35.69     0.037 C 
ENDBRANCH  18  21
ENDBRANCH  17  18
ENDBRANCH  16  17
ENDBRANCH  15  16
ENDBRANCH  13  15
ENDBRANCH  12  13
ENDBRANCH   5  12
TORSDOF 8
ENDMDL
MODEL 7
REMARK VINA RESULT:    -5.013      1.597      3.288
REMARK INTER + INTRA:          -8.580
REMARK INTER:                  -7.402
REMARK INTRA:                  -1.178
REMARK UNBOUND:                -1.222
REMARK  8 active torsions:
REMARK  status: ('A' for Active; 'I' for Inactive)
REMARK    1  A    between atoms: C3_5  and  N2_12 
REMARK    2  A    between atoms: N2_12  and  C10_13 
REMARK    3  A    between atoms: C10_13  and  C11_14 
REMARK    4  A    between atoms: C11_14  and  C12_15 
REMARK    5  A    between atoms: C12_15  and  C13_16 
REMARK    6  A    between atoms: C13_16  and  N3_17 
REMARK    7  A    between atoms: N3_17  and  C14_18 
REMARK    8  A    between atoms: N3_17  and  C16_20 
ROOT
HETATM    1 CL     D T1001      11.381   8.465 -14.040  1.00 22.69    -0.082 Cl
HETATM    2  N1    D T1001      12.950   5.752  -9.957  1.00 34.43    -0.244 NA
HETATM    3  C1    D T1001      13.442   5.612  -8.709  1.00 35.26     0.101 A 
HETATM    4  C2    D T1001      13.786   6.712  -7.934  1.00 34.24     0.039 A 
HETATM    5  C3    D T1001      13.659   8.074  -8.448  1.00 31.96     0.079 A 
HETATM    6  C4    D T1001      13.131   8.240  -9.818  1.00 33.68     0.035 A 
HETATM    7  C5    D T1001      12.918   9.521 -10.492  1.00 34.90     0.004 A 
HETATM    8  C6    D T1001      12.395   9.587 -11.790  1.00 32.93     0.012 A 
HETATM    9  C7    D T1001      12.054   8.369 -12.464  1.00 31.88     0.059 A 
HETATM   10  C8    D T1001      12.234   7.110 -11.868  1.00 32.37     0.031 A 
HETATM   11  C9    D T1001      12.767   7.026 -10.552  1.00 35.42     0.084 A 
ENDROOT
BRANCH   5  12
HETATM   12  N2    D T1001      13.993   9.177  -7.708  1.00 30.60    -0.273 NA
BRANCH  12  13
HETATM   13  C10   D T1001      15.248   9.997  -7.799  1.00 29.84     0.103 C 
HETATM   14  C18   D T1001      16.365   9.183  -8.437  1.00 30.59     0.026 C 
BRANCH  13  15
HETATM   15  C11   D T1001      15.612  10.536  -6.408  1.00 31.56     0.026 C 
BRANCH  15  16
HETATM   16  C12   D T1001      14.823   9.982  -5.235  1.00 32.62     0.037 C 
BRANCH  16  17
HETATM   17  C13   D T1001      15.679   8.981  -4.472  1.00 31.65     0.250 C 
BRANCH  17  18
HETATM   18  N3    D T1001      15.577   7.576  -4.997  1.00 36.76     0.137 N 
BRANCH  18  19
HETATM   19  C14   D T1001      16.927   7.036  -5.515  1.00 36.54     0.250 C 
HETATM   20  C15   D T1001      16.914   5.763  -6.355  1.00 37.02     0.037 C 
ENDBRANCH  18  19
BRANCH  18  21
HETATM   21  C16   D T1001      14.770   6.669  -4.110  1.00 33.74     0.250 C 
HETATM   22  C17   D T1001      13.982   7.359  -3.047  1.00 35.69     0.037 C 
ENDBRANCH  18  21
ENDBRANCH  17  18
ENDBRANCH  16  17
ENDBRANCH  15  16
ENDBRANCH  13  15
ENDBRANCH  12  13
ENDBRANCH   5  12
TORSDOF 8
ENDMDL
MODEL 8
REMARK VINA RESULT:    -4.781      1.882      2.919
REMARK INTER + INTRA:          -8.239
REMARK INTER:                  -7.355
REMARK INTRA:                  -0.884
REMARK UNBOUND:                -1.222
REMARK  8 active torsions:
REMARK  status: ('A' for Active; 'I' for Inactive)
REMARK    1  A    between atoms: C3_5  and  N2_12 
REMARK    2  A    between atoms: N2_12  and  C10_13 
REMARK    3  A    between atoms: C10_13  and  C11_14 
REMARK    4  A    between atoms: C11_14  and  C12_15 
REMARK    5  A    between atoms: C12_15  and  C13_16 
REMARK    6  A    between atoms: C13_16  and  N3_17 
REMARK    7  A    between atoms: N3_17  and  C14_18 
REMARK    8  A    between atoms: N3_17  and  C16_20 
ROOT
HETATM    1 CL     D T1001      11.184   9.888 -14.129  1.00 22.69    -0.082 Cl
HETATM    2  N1    D T1001      12.221   5.193 -12.292  1.00 34.43    -0.244 NA
HETATM    3  C1    D T1001      12.640   4.324 -11.351  1.00 35.26     0.101 A 
HETATM    4  C2    D T1001      13.092   4.755 -10.110  1.00 34.24     0.039 A 
HETATM    5  C3    D T1001      13.163   6.177  -9.779  1.00 31.96     0.079 A 
HETATM    6  C4    D T1001      12.718   7.140 -10.806  1.00 33.68     0.035 A 
HETATM    7  C5    D T1001      12.700   8.595 -10.651  1.00 34.90     0.004 A 
HETATM    8  C6    D T1001      12.243   9.435 -11.675  1.00 32.93     0.012 A 
HETATM    9  C7    D T1001      11.774   8.850 -12.897  1.00 31.88     0.059 A 
HETATM   10  C8    D T1001      11.765   7.461 -13.103  1.00 32.37     0.031 A 
HETATM   11  C9    D T1001      12.229   6.594 -12.075  1.00 35.42     0.084 A 
ENDROOT
BRANCH   5  12
HETATM   12  N2    D T1001      13.607   6.632  -8.565  1.00 30.60    -0.273 NA
BRANCH  12  13
HETATM   13  C10   D T1001      14.056   5.816  -7.388  1.00 29.84     0.103 C 
HETATM   14  C18   D T1001      13.099   6.003  -6.219  1.00 30.59     0.026 C 
BRANCH  13  15
HETATM   15  C11   D T1001      15.510   6.170  -7.041  1.00 31.56     0.026 C 
BRANCH  15  16
HETATM   16  C12   D T1001      15.774   7.594  -6.587  1.00 32.62     0.037 C 
BRANCH  16  17
HETATM   17  C13   D T1001      16.939   7.610  -5.609  1.00 31.65     0.250 C 
BRANCH  17  18
HETATM   18  N3    D T1001      16.997   6.401  -4.718  1.00 36.76     0.137 N 
BRANCH  18  19
HETATM   19  C14   D T1001      18.361   5.680  -4.782  1.00 36.54     0.250 C 
HETATM   20  C15   D T1001      18.455   4.274  -4.199  1.00 37.02     0.037 C 
ENDBRANCH  18  19
BRANCH  18  21
HETATM   21  C16   D T1001      16.411   6.640  -3.354  1.00 33.74     0.250 C 
HETATM   22  C17   D T1001      15.055   6.055  -3.136  1.00 35.69     0.037 C 
ENDBRANCH  18  21
ENDBRANCH  17  18
ENDBRANCH  16  17
ENDBRANCH  15  16
ENDBRANCH  13  15
ENDBRANCH  12  13
ENDBRANCH   5  12
TORSDOF 8
ENDMDL
MODEL 9
REMARK VINA RESULT:    -4.758      4.484      8.533
REMARK INTER + INTRA:          -8.205
REMARK INTER:                  -7.301
REMARK INTRA:                  -0.905
REMARK UNBOUND:                -1.222
REMARK  8 active torsions:
REMARK  status: ('A' for Active; 'I' for Inactive)
REMARK    1  A    between atoms: C3_5  and  N2_12 
REMARK    2  A    between atoms: N2_12  and  C10_13 
REMARK    3  A    between atoms: C10_13  and  C11_14 
REMARK    4  A    between atoms: C11_14  and  C12_15 
REMARK    5  A    between atoms: C12_15  and  C13_16 
REMARK    6  A    between atoms: C13_16  and  N3_17 
REMARK    7  A    between atoms: N3_17  and  C14_18 
REMARK    8  A    between atoms: N3_17  and  C16_20 
ROOT
HETATM    1 CL     D T1001      13.877  10.248  -7.906  1.00 22.69    -0.082 Cl
HETATM    2  N1    D T1001      11.733   7.348 -11.578  1.00 34.43    -0.244 NA
HETATM    3  C1    D T1001      11.315   7.094 -12.835  1.00 35.26     0.101 A 
HETATM    4  C2    D T1001      11.450   8.032 -13.850  1.00 34.24     0.039 A 
HETATM    5  C3    D T1001      12.024   9.351 -13.596  1.00 31.96     0.079 A 
HETATM    6  C4    D T1001      12.476   9.645 -12.220  1.00 33.68     0.035 A 
HETATM    7  C5    D T1001      13.088  10.900 -11.781  1.00 34.90     0.004 A 
HETATM    8  C6    D T1001      13.504  11.087 -10.456  1.00 32.93     0.012 A 
HETATM    9  C7    D T1001      13.331  10.019  -9.516  1.00 31.88     0.059 A 
HETATM   10  C8    D T1001      12.752   8.792  -9.880  1.00 32.37     0.031 A 
HETATM   11  C9    D T1001      12.321   8.587 -11.219  1.00 35.42     0.084 A 
ENDROOT
BRANCH   5  12
HETATM   12  N2    D T1001      12.167  10.297 -14.577  1.00 30.60    -0.273 NA
BRANCH  12  13
HETATM   13  C10   D T1001      13.382  10.574 -15.415  1.00 29.84     0.103 C 
HETATM   14  C18   D T1001      13.245  11.917 -16.116  1.00 30.59     0.026 C 
BRANCH  13  15
HETATM   15  C11   D T1001      13.612   9.406 -16.386  1.00 31.56     0.026 C 
BRANCH  15  16
HETATM   16  C12   D T1001      15.051   8.971 -16.600  1.00 32.62     0.037 C 
BRANCH  16  17
HETATM   17  C13   D T1001      15.332   8.854 -18.090  1.00 31.65     0.250 C 
BRANCH  17  18
HETATM   18  N3    D T1001      15.351   7.438 -18.592  1.00 36.76     0.137 N 
BRANCH  18  19
HETATM   19  C14   D T1001      16.101   6.480 -17.640  1.00 36.54     0.250 C 
HETATM   20  C15   D T1001      15.511   5.093 -17.410  1.00 37.02     0.037 C 
ENDBRANCH  18  19
BRANCH  18  21
HETATM   21  C16   D T1001      14.022   6.976 -19.121  1.00 33.74     0.250 C 
HETATM   22  C17   D T1001      13.369   7.905 -20.091  1.00 35.69     0.037 C 
ENDBRANCH  18  21
ENDBRANCH  17  18
ENDBRANCH  16  17
ENDBRANCH  15  16
ENDBRANCH  13  15
ENDBRANCH  12  13
ENDBRANCH   5  12
TORSDOF 8
ENDMDL
