MODEL 1
REMARK VINA RESULT:    -5.751      0.000      0.000
REMARK INTER + INTRA:          -9.615
REMARK INTER:                  -8.440
REMARK INTRA:                  -1.175
REMARK UNBOUND:                -1.175
REMARK  8 active torsions:
REMARK  status: ('A' for Active; 'I' for Inactive)
REMARK    1  A    between atoms: C3_5  and  N2_12 
REMARK    2  A    between atoms: N2_12  and  C10_13 
REMARK    3  A    between atoms: C10_13  and  C11_14 
REMARK    4  A    between atoms: C11_14  and  C12_15 
REMARK    5  A    between atoms: C12_15  and  C13_16 
REMARK    6  A    between atoms: C13_16  and  N3_17 
REMARK    7  A    between atoms: N3_17  and  C14_18 
REMARK    8  A    between atoms: N3_17  and  C16_20 
ROOT
HETATM    1 CL     D T1001      10.876   9.689 -14.652  1.00 22.69    -0.082 Cl
HETATM    2  N1    D T1001      12.117   5.117 -12.640  1.00 34.43    -0.244 NA
HETATM    3  C1    D T1001      12.622   4.306 -11.687  1.00 35.26     0.101 A 
HETATM    4  C2    D T1001      13.171   4.813 -10.516  1.00 34.24     0.039 A 
HETATM    5  C3    D T1001      13.252   6.253 -10.274  1.00 31.96     0.079 A 
HETATM    6  C4    D T1001      12.712   7.151 -11.316  1.00 33.68     0.035 A 
HETATM    7  C5    D T1001      12.690   8.611 -11.244  1.00 34.90     0.004 A 
HETATM    8  C6    D T1001      12.140   9.387 -12.273  1.00 32.93     0.012 A 
HETATM    9  C7    D T1001      11.578   8.729 -13.415  1.00 31.88     0.059 A 
HETATM   10  C8    D T1001      11.569   7.329 -13.539  1.00 32.37     0.031 A 
HETATM   11  C9    D T1001      12.126   6.528 -12.506  1.00 35.42     0.084 A 
ENDROOT
BRANCH   5  12
HETATM   12  N2    D T1001      13.790   6.781  -9.131  1.00 30.60    -0.273 NA
BRANCH  12  13
HETATM   13  C10   D T1001      14.159   6.055  -7.870  1.00 29.84     0.103 C 
HETATM   14  C18   D T1001      13.062   6.214  -6.827  1.00 30.59     0.026 C 
BRANCH  13  15
HETATM   15  C11   D T1001      15.532   6.542  -7.381  1.00 31.56     0.026 C 
BRANCH  15  16
HETATM   16  C12   D T1001      16.156   7.698  -8.141  1.00 32.62     0.037 C 
BRANCH  16  17
HETATM   17  C13   D T1001      16.352   8.878  -7.204  1.00 31.65     0.250 C 
BRANCH  17  18
HETATM   18  N3    D T1001      15.116   9.248  -6.430  1.00 36.76     0.137 N 
BRANCH  18  19
HETATM   19  C14   D T1001      15.312   9.124  -4.904  1.00 36.54     0.250 C 
HETATM   20  C15   D T1001      14.357   9.890  -3.994  1.00 37.02     0.037 C 
ENDBRANCH  18  19
BRANCH  18  21
HETATM   21  C16   D T1001      14.451  10.499  -6.936  1.00 33.74     0.250 C 
HETATM   22  C17   D T1001      13.707  10.345  -8.221  1.00 35.69     0.037 C 
ENDBRANCH  18  21
ENDBRANCH  17  18
ENDBRANCH  16  17
ENDBRANCH  15  16
ENDBRANCH  13  15
ENDBRANCH  12  13
ENDBRANCH   5  12
TORSDOF 8
ENDMDL
MODEL 2
REMARK VINA RESULT:    -5.741      2.194      3.426
REMARK INTER + INTRA:          -9.601
REMARK INTER:                  -8.398
REMARK INTRA:                  -1.203
REMARK UNBOUND:                -1.175
REMARK  8 active torsions:
REMARK  status: ('A' for Active; 'I' for Inactive)
REMARK    1  A    between atoms: C3_5  and  N2_12 
REMARK    2  A    between atoms: N2_12  and  C10_13 
REMARK    3  A    between atoms: C10_13  and  C11_14 
REMARK    4  A    between atoms: C11_14  and  C12_15 
REMARK    5  A    between atoms: C12_15  and  C13_16 
REMARK    6  A    between atoms: C13_16  and  N3_17 
REMARK    7  A    between atoms: N3_17  and  C14_18 
REMARK    8  A    between atoms: N3_17  and  C16_20 
ROOT
HETATM    1 CL     D T1001      13.519  13.679 -12.309  1.00 22.69    -0.082 Cl
HETATM    2  N1    D T1001      11.651   9.337 -14.346  1.00 34.43    -0.244 NA
HETATM    3  C1    D T1001      11.303   8.034 -14.317  1.00 35.26     0.101 A 
HETATM    4  C2    D T1001      11.489   7.255 -13.182  1.00 34.24     0.039 A 
HETATM    5  C3    D T1001      12.096   7.806 -11.972  1.00 31.96     0.079 A 
HETATM    6  C4    D T1001      12.491   9.230 -11.995  1.00 33.68     0.035 A 
HETATM    7  C5    D T1001      13.095   9.958 -10.879  1.00 34.90     0.004 A 
HETATM    8  C6    D T1001      13.422  11.317 -10.982  1.00 32.93     0.012 A 
HETATM    9  C7    D T1001      13.146  12.006 -12.208  1.00 31.88     0.059 A 
HETATM   10  C8    D T1001      12.566  11.361 -13.312  1.00 32.37     0.031 A 
HETATM   11  C9    D T1001      12.231   9.982 -13.226  1.00 35.42     0.084 A 
ENDROOT
BRANCH   5  12
HETATM   12  N2    D T1001      12.294   7.062 -10.839  1.00 30.60    -0.273 NA
BRANCH  12  13
HETATM   13  C10   D T1001      13.358   6.032 -10.592  1.00 29.84     0.103 C 
HETATM   14  C18   D T1001      13.086   4.783 -11.418  1.00 30.59     0.026 C 
BRANCH  13  15
HETATM   15  C11   D T1001      13.458   5.750  -9.086  1.00 31.56     0.026 C 
BRANCH  15  16
HETATM   16  C12   D T1001      14.086   6.834  -8.228  1.00 32.62     0.037 C 
BRANCH  16  17
HETATM   17  C13   D T1001      15.355   7.340  -8.895  1.00 31.65     0.250 C 
BRANCH  17  18
HETATM   18  N3    D T1001      15.639   8.793  -8.630  1.00 36.76     0.137 N 
BRANCH  18  19
HETATM   19  C14   D T1001      15.031   9.284  -7.298  1.00 36.54     0.250 C 
HETATM   20  C15   D T1001      14.150  10.528  -7.328  1.00 37.02     0.037 C 
ENDBRANCH  18  19
BRANCH  18  21
HETATM   21  C16   D T1001      17.064   9.181  -8.916  1.00 33.74     0.250 C 
HETATM   22  C17   D T1001      17.231  10.408  -9.750  1.00 35.69     0.037 C 
ENDBRANCH  18  21
ENDBRANCH  17  18
ENDBRANCH  16  17
ENDBRANCH  15  16
ENDBRANCH  13  15
ENDBRANCH  12  13
ENDBRANCH   5  12
TORSDOF 8
ENDMDL
MODEL 3
REMARK VINA RESULT:    -5.707      2.302      3.889
REMARK INTER + INTRA:          -9.551
REMARK INTER:                  -8.640
REMARK INTRA:                  -0.910
REMARK UNBOUND:                -1.175
REMARK  8 active torsions:
REMARK  status: ('A' for Active; 'I' for Inactive)
REMARK    1  A    between atoms: C3_5  and  N2_12 
REMARK    2  A    between atoms: N2_12  and  C10_13 
REMARK    3  A    between atoms: C10_13  and  C11_14 
REMARK    4  A    between atoms: C11_14  and  C12_15 
REMARK    5  A    between atoms: C12_15  and  C13_16 
REMARK    6  A    between atoms: C13_16  and  N3_17 
REMARK    7  A    between atoms: N3_17  and  C14_18 
REMARK    8  A    between atoms: N3_17  and  C16_20 
ROOT
HETATM    1 CL     D T1001      13.595  13.686 -12.390  1.00 22.69    -0.082 Cl
HETATM    2  N1    D T1001      11.622   9.413 -14.472  1.00 34.43    -0.244 NA
HETATM    3  C1    D T1001      11.246   8.117 -14.459  1.00 35.26     0.101 A 
HETATM    4  C2    D T1001      11.422   7.319 -13.336  1.00 34.24     0.039 A 
HETATM    5  C3    D T1001      12.049   7.841 -12.122  1.00 31.96     0.079 A 
HETATM    6  C4    D T1001      12.474   9.257 -12.129  1.00 33.68     0.035 A 
HETATM    7  C5    D T1001      13.100   9.956 -11.008  1.00 34.90     0.004 A 
HETATM    8  C6    D T1001      13.456  11.309 -11.094  1.00 32.93     0.012 A 
HETATM    9  C7    D T1001      13.187  12.021 -12.309  1.00 31.88     0.059 A 
HETATM   10  C8    D T1001      12.586  11.403 -13.418  1.00 32.37     0.031 A 
HETATM   11  C9    D T1001      12.223  10.031 -13.348  1.00 35.42     0.084 A 
ENDROOT
BRANCH   5  12
HETATM   12  N2    D T1001      12.238   7.078 -11.001  1.00 30.60    -0.273 NA
BRANCH  12  13
HETATM   13  C10   D T1001      13.374   6.141 -10.709  1.00 29.84     0.103 C 
HETATM   14  C18   D T1001      13.032   4.733 -11.175  1.00 30.59     0.026 C 
BRANCH  13  15
HETATM   15  C11   D T1001      13.728   6.214  -9.216  1.00 31.56     0.026 C 
BRANCH  15  16
HETATM   16  C12   D T1001      14.497   7.439  -8.756  1.00 32.62     0.037 C 
BRANCH  16  17
HETATM   17  C13   D T1001      14.701   7.378  -7.251  1.00 31.65     0.250 C 
BRANCH  17  18
HETATM   18  N3    D T1001      14.520   6.002  -6.672  1.00 36.76     0.137 N 
BRANCH  18  19
HETATM   19  C14   D T1001      15.845   5.394  -6.162  1.00 36.54     0.250 C 
HETATM   20  C15   D T1001      17.127   5.737  -6.913  1.00 37.02     0.037 C 
ENDBRANCH  18  19
BRANCH  18  21
HETATM   21  C16   D T1001      13.323   5.890  -5.768  1.00 33.74     0.250 C 
HETATM   22  C17   D T1001      12.534   4.632  -5.914  1.00 35.69     0.037 C 
ENDBRANCH  18  21
ENDBRANCH  17  18
ENDBRANCH  16  17
ENDBRANCH  15  16
ENDBRANCH  13  15
ENDBRANCH  12  13
ENDBRANCH   5  12
TORSDOF 8
ENDMDL
MODEL 4
REMARK VINA RESULT:    -5.367      1.926      3.264
REMARK INTER + INTRA:          -9.051
REMARK INTER:                  -7.725
REMARK INTRA:                  -1.326
REMARK UNBOUND:                -1.175
REMARK  8 active torsions:
REMARK  status: ('A' for Active; 'I' for Inactive)
REMARK    1  A    between atoms: C3_5  and  N2_12 
REMARK    2  A    between atoms: N2_12  and  C10_13 
REMARK    3  A    between atoms: C10_13  and  C11_14 
REMARK    4  A    between atoms: C11_14  and  C12_15 
REMARK    5  A    between atoms: C12_15  and  C13_16 
REMARK    6  A    between atoms: C13_16  and  N3_17 
REMARK    7  A    between atoms: N3_17  and  C14_18 
REMARK    8  A    between atoms: N3_17  and  C16_20 
ROOT
HETATM    1 CL     D T1001      11.267   6.044 -13.632  1.00 22.69    -0.082 Cl
HETATM    2  N1    D T1001      12.633   9.296  -9.883  1.00 34.43    -0.244 NA
HETATM    3  C1    D T1001      13.285   9.642  -8.754  1.00 35.26     0.101 A 
HETATM    4  C2    D T1001      14.082   8.737  -8.066  1.00 34.24     0.039 A 
HETATM    5  C3    D T1001      14.229   7.355  -8.520  1.00 31.96     0.079 A 
HETATM    6  C4    D T1001      13.512   6.960  -9.750  1.00 33.68     0.035 A 
HETATM    7  C5    D T1001      13.552   5.634 -10.363  1.00 34.90     0.004 A 
HETATM    8  C6    D T1001      12.852   5.350 -11.544  1.00 32.93     0.012 A 
HETATM    9  C7    D T1001      12.091   6.393 -12.166  1.00 31.88     0.059 A 
HETATM   10  C8    D T1001      12.016   7.687 -11.625  1.00 32.37     0.031 A 
HETATM   11  C9    D T1001      12.716   7.989 -10.426  1.00 35.42     0.084 A 
ENDROOT
BRANCH   5  12
HETATM   12  N2    D T1001      15.006   6.439  -7.860  1.00 30.60    -0.273 NA
BRANCH  12  13
HETATM   13  C10   D T1001      14.651   5.648  -6.635  1.00 29.84     0.103 C 
HETATM   14  C18   D T1001      13.154   5.375  -6.597  1.00 30.59     0.026 C 
BRANCH  13  15
HETATM   15  C11   D T1001      15.163   6.381  -5.386  1.00 31.56     0.026 C 
BRANCH  15  16
HETATM   16  C12   D T1001      16.525   7.043  -5.493  1.00 32.62     0.037 C 
BRANCH  16  17
HETATM   17  C13   D T1001      16.480   8.413  -4.835  1.00 31.65     0.250 C 
BRANCH  17  18
HETATM   18  N3    D T1001      17.081   9.507  -5.673  1.00 36.76     0.137 N 
BRANCH  18  19
HETATM   19  C14   D T1001      17.658   8.984  -7.007  1.00 36.54     0.250 C 
HETATM   20  C15   D T1001      17.419   9.813  -8.265  1.00 37.02     0.037 C 
ENDBRANCH  18  19
BRANCH  18  21
HETATM   21  C16   D T1001      16.229  10.745  -5.734  1.00 33.74     0.250 C 
HETATM   22  C17   D T1001      14.843  10.587  -5.202  1.00 35.69     0.037 C 
ENDBRANCH  18  21
ENDBRANCH  17  18
ENDBRANCH  16  17
ENDBRANCH  15  16
ENDBRANCH  13  15
ENDBRANCH  12  13
ENDBRANCH   5  12
TORSDOF 8
ENDMDL
MODEL 5
REMARK VINA RESULT:    -5.120      3.447      5.443
REMARK INTER + INTRA:          -8.689
REMARK INTER:                  -7.101
REMARK INTRA:                  -1.588
REMARK UNBOUND:                -1.175
REMARK  8 active torsions:
REMARK  status: ('A' for Active; 'I' for Inactive)
REMARK    1  A    between atoms: C3_5  and  N2_12 
REMARK    2  A    between atoms: N2_12  and  C10_13 
REMARK    3  A    between atoms: C10_13  and  C11_14 
REMARK    4  A    between atoms: C11_14  and  C12_15 
REMARK    5  A    between atoms: C12_15  and  C13_16 
REMARK    6  A    between atoms: C13_16  and  N3_17 
REMARK    7  A    between atoms: N3_17  and  C14_18 
REMARK    8  A    between atoms: N3_17  and  C16_20 
ROOT
HETATM    1 CL     D T1001      13.569   5.762 -10.210  1.00 22.69    -0.082 Cl
HETATM    2  N1    D T1001      12.514   5.095  -5.216  1.00 34.43    -0.244 NA
HETATM    3  C1    D T1001      12.699   5.307  -3.897  1.00 35.26     0.101 A 
HETATM    4  C2    D T1001      13.705   6.143  -3.428  1.00 34.24     0.039 A 
HETATM    5  C3    D T1001      14.628   6.811  -4.344  1.00 31.96     0.079 A 
HETATM    6  C4    D T1001      14.441   6.578  -5.792  1.00 33.68     0.035 A 
HETATM    7  C5    D T1001      15.251   7.171  -6.855  1.00 34.90     0.004 A 
HETATM    8  C6    D T1001      14.992   6.908  -8.207  1.00 32.93     0.012 A 
HETATM    9  C7    D T1001      13.899   6.048  -8.549  1.00 31.88     0.059 A 
HETATM   10  C8    D T1001      13.085   5.451  -7.572  1.00 32.37     0.031 A 
HETATM   11  C9    D T1001      13.336   5.704  -6.197  1.00 35.42     0.084 A 
ENDROOT
BRANCH   5  12
HETATM   12  N2    D T1001      15.630   7.638  -3.911  1.00 30.60    -0.273 NA
BRANCH  12  13
HETATM   13  C10   D T1001      15.533   9.096  -3.566  1.00 29.84     0.103 C 
HETATM   14  C18   D T1001      14.074   9.514  -3.446  1.00 30.59     0.026 C 
BRANCH  13  15
HETATM   15  C11   D T1001      16.314   9.921  -4.599  1.00 31.56     0.026 C 
BRANCH  15  16
HETATM   16  C12   D T1001      15.494  10.728  -5.590  1.00 32.62     0.037 C 
BRANCH  16  17
HETATM   17  C13   D T1001      16.240  10.823  -6.911  1.00 31.65     0.250 C 
BRANCH  17  18
HETATM   18  N3    D T1001      15.337  10.906  -8.111  1.00 36.76     0.137 N 
BRANCH  18  19
HETATM   19  C14   D T1001      15.978  10.304  -9.380  1.00 36.54     0.250 C 
HETATM   20  C15   D T1001      17.375   9.703  -9.261  1.00 37.02     0.037 C 
ENDBRANCH  18  19
BRANCH  18  21
HETATM   21  C16   D T1001      13.915  10.517  -7.811  1.00 33.74     0.250 C 
HETATM   22  C17   D T1001      13.142   9.995  -8.977  1.00 35.69     0.037 C 
ENDBRANCH  18  21
ENDBRANCH  17  18
ENDBRANCH  16  17
ENDBRANCH  15  16
ENDBRANCH  13  15
ENDBRANCH  12  13
ENDBRANCH   5  12
TORSDOF 8
ENDMDL
MODEL 6
REMARK VINA RESULT:    -5.077      2.604      4.162
REMARK INTER + INTRA:          -8.626
REMARK INTER:                  -7.739
REMARK INTRA:                  -0.887
REMARK UNBOUND:                -1.175
REMARK  8 active torsions:
REMARK  status: ('A' for Active; 'I' for Inactive)
REMARK    1  A    between atoms: C3_5  and  N2_12 
REMARK    2  A    between atoms: N2_12  and  C10_13 
REMARK    3  A    between atoms: C10_13  and  C11_14 
REMARK    4  A    between atoms: C11_14  and  C12_15 
REMARK    5  A    between atoms: C12_15  and  C13_16 
REMARK    6  A    between atoms: C13_16  and  N3_17 
REMARK    7  A    between atoms: N3_17  and  C14_18 
REMARK    8  A    between atoms: N3_17  and  C16_20 
ROOT
HETATM    1 CL     D T1001      11.232   6.222 -13.531  1.00 22.69    -0.082 Cl
HETATM    2  N1    D T1001      12.753   9.406  -9.783  1.00 34.43    -0.244 NA
HETATM    3  C1    D T1001      13.426   9.723  -8.659  1.00 35.26     0.101 A 
HETATM    4  C2    D T1001      14.193   8.785  -7.979  1.00 34.24     0.039 A 
HETATM    5  C3    D T1001      14.283   7.399  -8.439  1.00 31.96     0.079 A 
HETATM    6  C4    D T1001      13.541   7.037  -9.664  1.00 33.68     0.035 A 
HETATM    7  C5    D T1001      13.524   5.712 -10.282  1.00 34.90     0.004 A 
HETATM    8  C6    D T1001      12.805   5.460 -11.458  1.00 32.93     0.012 A 
HETATM    9  C7    D T1001      12.080   6.534 -12.071  1.00 31.88     0.059 A 
HETATM   10  C8    D T1001      12.060   7.828 -11.525  1.00 32.37     0.031 A 
HETATM   11  C9    D T1001      12.781   8.099 -10.331  1.00 35.42     0.084 A 
ENDROOT
BRANCH   5  12
HETATM   12  N2    D T1001      15.028   6.452  -7.788  1.00 30.60    -0.273 NA
BRANCH  12  13
HETATM   13  C10   D T1001      14.686   5.728  -6.518  1.00 29.84     0.103 C 
HETATM   14  C18   D T1001      13.392   4.945  -6.689  1.00 30.59     0.026 C 
BRANCH  13  15
HETATM   15  C11   D T1001      14.636   6.730  -5.355  1.00 31.56     0.026 C 
BRANCH  15  16
HETATM   16  C12   D T1001      15.851   6.780  -4.445  1.00 32.62     0.037 C 
BRANCH  16  17
HETATM   17  C13   D T1001      16.795   5.640  -4.791  1.00 31.65     0.250 C 
BRANCH  17  18
HETATM   18  N3    D T1001      18.193   6.088  -5.114  1.00 36.76     0.137 N 
BRANCH  18  19
HETATM   19  C14   D T1001      19.242   4.979  -4.880  1.00 36.54     0.250 C 
HETATM   20  C15   D T1001      20.565   5.074  -5.632  1.00 37.02     0.037 C 
ENDBRANCH  18  19
BRANCH  18  21
HETATM   21  C16   D T1001      18.286   6.858  -6.403  1.00 33.74     0.250 C 
HETATM   22  C17   D T1001      18.753   8.269  -6.267  1.00 35.69     0.037 C 
ENDBRANCH  18  21
ENDBRANCH  17  18
ENDBRANCH  16  17
ENDBRANCH  15  16
ENDBRANCH  13  15
ENDBRANCH  12  13
ENDBRANCH   5  12
TORSDOF 8
ENDMDL
MODEL 7
REMARK VINA RESULT:    -4.969      1.727      3.236
REMARK INTER + INTRA:          -8.468
REMARK INTER:                  -7.322
REMARK INTRA:                  -1.146
REMARK UNBOUND:                -1.175
REMARK  8 active torsions:
REMARK  status: ('A' for Active; 'I' for Inactive)
REMARK    1  A    between atoms: C3_5  and  N2_12 
REMARK    2  A    between atoms: N2_12  and  C10_13 
REMARK    3  A    between atoms: C10_13  and  C11_14 
REMARK    4  A    between atoms: C11_14  and  C12_15 
REMARK    5  A    between atoms: C12_15  and  C13_16 
REMARK    6  A    between atoms: C13_16  and  N3_17 
REMARK    7  A    between atoms: N3_17  and  C14_18 
REMARK    8  A    between atoms: N3_17  and  C16_20 
ROOT
HETATM    1 CL     D T1001      11.389   7.661 -14.323  1.00 22.69    -0.082 Cl
HETATM    2  N1    D T1001      13.246   5.848  -9.878  1.00 34.43    -0.244 NA
HETATM    3  C1    D T1001      13.711   5.967  -8.618  1.00 35.26     0.101 A 
HETATM    4  C2    D T1001      13.846   7.207  -8.005  1.00 34.24     0.039 A 
HETATM    5  C3    D T1001      13.513   8.444  -8.710  1.00 31.96     0.079 A 
HETATM    6  C4    D T1001      13.012   8.326 -10.095  1.00 33.68     0.035 A 
HETATM    7  C5    D T1001      12.614   9.445 -10.948  1.00 34.90     0.004 A 
HETATM    8  C6    D T1001      12.132   9.241 -12.248  1.00 32.93     0.012 A 
HETATM    9  C7    D T1001      12.016   7.901 -12.742  1.00 31.88     0.059 A 
HETATM   10  C8    D T1001      12.380   6.786 -11.969  1.00 32.37     0.031 A 
HETATM   11  C9    D T1001      12.876   6.976 -10.650  1.00 35.42     0.084 A 
ENDROOT
BRANCH   5  12
HETATM   12  N2    D T1001      13.639   9.680  -8.133  1.00 30.60    -0.273 NA
BRANCH  12  13
HETATM   13  C10   D T1001      14.892  10.485  -7.951  1.00 29.84     0.103 C 
HETATM   14  C18   D T1001      16.046   9.844  -8.708  1.00 30.59     0.026 C 
BRANCH  13  15
HETATM   15  C11   D T1001      15.176  10.660  -6.452  1.00 31.56     0.026 C 
BRANCH  15  16
HETATM   16  C12   D T1001      16.098   9.639  -5.808  1.00 32.62     0.037 C 
BRANCH  16  17
HETATM   17  C13   D T1001      15.271   8.597  -5.074  1.00 31.65     0.250 C 
BRANCH  17  18
HETATM   18  N3    D T1001      16.025   7.333  -4.767  1.00 36.76     0.137 N 
BRANCH  18  19
HETATM   19  C14   D T1001      15.093   6.115  -4.583  1.00 36.54     0.250 C 
HETATM   20  C15   D T1001      13.977   6.216  -3.549  1.00 37.02     0.037 C 
ENDBRANCH  18  19
BRANCH  18  21
HETATM   21  C16   D T1001      17.240   7.141  -5.633  1.00 33.74     0.250 C 
HETATM   22  C17   D T1001      17.085   6.138  -6.728  1.00 35.69     0.037 C 
ENDBRANCH  18  21
ENDBRANCH  17  18
ENDBRANCH  16  17
ENDBRANCH  15  16
ENDBRANCH  13  15
ENDBRANCH  12  13
ENDBRANCH   5  12
TORSDOF 8
ENDMDL
MODEL 8
REMARK VINA RESULT:    -4.965      1.839      3.510
REMARK INTER + INTRA:          -8.462
REMARK INTER:                  -7.378
REMARK INTRA:                  -1.084
REMARK UNBOUND:                -1.175
REMARK  8 active torsions:
REMARK  status: ('A' for Active; 'I' for Inactive)
REMARK    1  A    between atoms: C3_5  and  N2_12 
REMARK    2  A    between atoms: N2_12  and  C10_13 
REMARK    3  A    between atoms: C10_13  and  C11_14 
REMARK    4  A    between atoms: C11_14  and  C12_15 
REMARK    5  A    between atoms: C12_15  and  C13_16 
REMARK    6  A    between atoms: C13_16  and  N3_17 
REMARK    7  A    between atoms: N3_17  and  C14_18 
REMARK    8  A    between atoms: N3_17  and  C16_20 
ROOT
HETATM    1 CL     D T1001      11.840  11.112 -15.147  1.00 22.69    -0.082 Cl
HETATM    2  N1    D T1001      12.348   7.567 -11.450  1.00 34.43    -0.244 NA
HETATM    3  C1    D T1001      12.646   7.147 -10.203  1.00 35.26     0.101 A 
HETATM    4  C2    D T1001      13.096   8.026  -9.226  1.00 34.24     0.039 A 
HETATM    5  C3    D T1001      13.294   9.446  -9.513  1.00 31.96     0.079 A 
HETATM    6  C4    D T1001      12.981   9.916 -10.879  1.00 33.68     0.035 A 
HETATM    7  C5    D T1001      13.100  11.296 -11.346  1.00 34.90     0.004 A 
HETATM    8  C6    D T1001      12.765  11.658 -12.657  1.00 32.93     0.012 A 
HETATM    9  C7    D T1001      12.282  10.650 -13.554  1.00 31.88     0.059 A 
HETATM   10  C8    D T1001      12.145   9.308 -13.162  1.00 32.37     0.031 A 
HETATM   11  C9    D T1001      12.485   8.923 -11.837  1.00 35.42     0.084 A 
ENDROOT
BRANCH   5  12
HETATM   12  N2    D T1001      13.739  10.335  -8.571  1.00 30.60    -0.273 NA
BRANCH  12  13
HETATM   13  C10   D T1001      15.159  10.623  -8.180  1.00 29.84     0.103 C 
HETATM   14  C18   D T1001      16.118   9.800  -9.028  1.00 30.59     0.026 C 
BRANCH  13  15
HETATM   15  C11   D T1001      15.333  10.388  -6.672  1.00 31.56     0.026 C 
BRANCH  15  16
HETATM   16  C12   D T1001      15.990   9.084  -6.256  1.00 32.62     0.037 C 
BRANCH  16  17
HETATM   17  C13   D T1001      14.944   8.151  -5.667  1.00 31.65     0.250 C 
BRANCH  17  18
HETATM   18  N3    D T1001      14.675   6.935  -6.509  1.00 36.76     0.137 N 
BRANCH  18  19
HETATM   19  C14   D T1001      15.956   6.370  -7.163  1.00 36.54     0.250 C 
HETATM   20  C15   D T1001      16.805   5.397  -6.352  1.00 37.02     0.037 C 
ENDBRANCH  18  19
BRANCH  18  21
HETATM   21  C16   D T1001      13.751   5.948  -5.850  1.00 33.74     0.250 C 
HETATM   22  C17   D T1001      13.058   5.009  -6.781  1.00 35.69     0.037 C 
ENDBRANCH  18  21
ENDBRANCH  17  18
ENDBRANCH  16  17
ENDBRANCH  15  16
ENDBRANCH  13  15
ENDBRANCH  12  13
ENDBRANCH   5  12
TORSDOF 8
ENDMDL
MODEL 9
REMARK VINA RESULT:    -4.897      3.831      7.037
REMARK INTER + INTRA:          -8.363
REMARK INTER:                  -7.265
REMARK INTRA:                  -1.097
REMARK UNBOUND:                -1.175
REMARK  8 active torsions:
REMARK  status: ('A' for Active; 'I' for Inactive)
REMARK    1  A    between atoms: C3_5  and  N2_12 
REMARK    2  A    between atoms: N2_12  and  C10_13 
REMARK    3  A    between atoms: C10_13  and  C11_14 
REMARK    4  A    between atoms: C11_14  and  C12_15 
REMARK    5  A    between atoms: C12_15  and  C13_16 
REMARK    6  A    between atoms: C13_16  and  N3_17 
REMARK    7  A    between atoms: N3_17  and  C14_18 
REMARK    8  A    between atoms: N3_17  and  C16_20 
ROOT
HETATM    1 CL     D T1001      14.651   7.414  -6.555  1.00 22.69    -0.082 Cl
HETATM    2  N1    D T1001      13.061   5.125 -10.881  1.00 34.43    -0.244 NA
HETATM    3  C1    D T1001      12.526   5.106 -12.119  1.00 35.26     0.101 A 
HETATM    4  C2    D T1001      12.088   6.269 -12.741  1.00 34.24     0.039 A 
HETATM    5  C3    D T1001      12.163   7.566 -12.069  1.00 31.96     0.079 A 
HETATM    6  C4    D T1001      12.738   7.596 -10.708  1.00 33.68     0.035 A 
HETATM    7  C5    D T1001      12.909   8.796  -9.890  1.00 34.90     0.004 A 
HETATM    8  C6    D T1001      13.481   8.737  -8.612  1.00 32.93     0.012 A 
HETATM    9  C7    D T1001      13.919   7.469  -8.106  1.00 31.88     0.059 A 
HETATM   10  C8    D T1001      13.782   6.283  -8.847  1.00 32.37     0.031 A 
HETATM   11  C9    D T1001      13.200   6.326 -10.142  1.00 35.42     0.084 A 
ENDROOT
BRANCH   5  12
HETATM   12  N2    D T1001      11.736   8.728 -12.656  1.00 30.60    -0.273 NA
BRANCH  12  13
HETATM   13  C10   D T1001      12.538   9.680 -13.494  1.00 29.84     0.103 C 
HETATM   14  C18   D T1001      12.545  11.064 -12.861  1.00 30.59     0.026 C 
BRANCH  13  15
HETATM   15  C11   D T1001      11.998   9.677 -14.932  1.00 31.56     0.026 C 
BRANCH  15  16
HETATM   16  C12   D T1001      12.930   9.152 -16.010  1.00 32.62     0.037 C 
BRANCH  16  17
HETATM   17  C13   D T1001      13.905  10.246 -16.417  1.00 31.65     0.250 C 
BRANCH  17  18
HETATM   18  N3    D T1001      15.286  10.067 -15.849  1.00 36.76     0.137 N 
BRANCH  18  19
HETATM   19  C14   D T1001      16.180   9.170 -16.733  1.00 36.54     0.250 C 
HETATM   20  C15   D T1001      17.606   8.896 -16.265  1.00 37.02     0.037 C 
ENDBRANCH  18  19
BRANCH  18  21
HETATM   21  C16   D T1001      15.889  11.347 -15.341  1.00 33.74     0.250 C 
HETATM   22  C17   D T1001      14.970  12.524 -15.339  1.00 35.69     0.037 C 
ENDBRANCH  18  21
ENDBRANCH  17  18
ENDBRANCH  16  17
ENDBRANCH  15  16
ENDBRANCH  13  15
ENDBRANCH  12  13
ENDBRANCH   5  12
TORSDOF 8
ENDMDL
