MODEL 1
REMARK VINA RESULT:    -5.838      0.000      0.000
REMARK INTER + INTRA:          -9.620
REMARK INTER:                  -8.569
REMARK INTRA:                  -1.051
REMARK UNBOUND:                -1.051
REMARK  8 active torsions:
REMARK  status: ('A' for Active; 'I' for Inactive)
REMARK    1  A    between atoms: C3_5  and  N2_12 
REMARK    2  A    between atoms: N2_12  and  C10_13 
REMARK    3  A    between atoms: C10_13  and  C11_14 
REMARK    4  A    between atoms: C11_14  and  C12_15 
REMARK    5  A    between atoms: C12_15  and  C13_16 
REMARK    6  A    between atoms: C13_16  and  N3_17 
REMARK    7  A    between atoms: N3_17  and  C14_18 
REMARK    8  A    between atoms: N3_17  and  C16_20 
ROOT
HETATM    1 CL     D T1001       9.851  -2.998 -11.241  1.00 22.69    -0.082 Cl
HETATM    2  N1    D T1001       9.174  -7.427  -8.708  1.00 34.43    -0.244 NA
HETATM    3  C1    D T1001       8.599  -8.629  -8.495  1.00 35.26     0.101 A 
HETATM    4  C2    D T1001       7.591  -9.109  -9.319  1.00 34.24     0.039 A 
HETATM    5  C3    D T1001       7.085  -8.322 -10.442  1.00 31.96     0.079 A 
HETATM    6  C4    D T1001       7.700  -6.999 -10.679  1.00 33.68     0.035 A 
HETATM    7  C5    D T1001       7.339  -6.080 -11.758  1.00 34.90     0.004 A 
HETATM    8  C6    D T1001       7.990  -4.849 -11.920  1.00 32.93     0.012 A 
HETATM    9  C7    D T1001       9.038  -4.493 -11.010  1.00 31.88     0.059 A 
HETATM   10  C8    D T1001       9.429  -5.334  -9.957  1.00 32.37     0.031 A 
HETATM   11  C9    D T1001       8.777  -6.585  -9.776  1.00 35.42     0.084 A 
ENDROOT
BRANCH   5  12
HETATM   12  N2    D T1001       6.091  -8.768 -11.270  1.00 30.60    -0.273 NA
BRANCH  12  13
HETATM   13  C10   D T1001       5.176  -9.940 -11.056  1.00 29.84     0.103 C 
HETATM   14  C18   D T1001       5.435 -11.011 -12.106  1.00 30.59     0.026 C 
BRANCH  13  15
HETATM   15  C11   D T1001       3.718  -9.456 -11.034  1.00 31.56     0.026 C 
BRANCH  15  16
HETATM   16  C12   D T1001       2.988  -9.551  -9.707  1.00 32.62     0.037 C 
BRANCH  16  17
HETATM   17  C13   D T1001       2.844  -8.162  -9.103  1.00 31.65     0.250 C 
BRANCH  17  18
HETATM   18  N3    D T1001       1.865  -7.284  -9.834  1.00 36.76     0.137 N 
BRANCH  18  19
HETATM   19  C14   D T1001       0.503  -7.184  -9.112  1.00 36.54     0.250 C 
HETATM   20  C15   D T1001       0.486  -6.643  -7.686  1.00 37.02     0.037 C 
ENDBRANCH  18  19
BRANCH  18  21
HETATM   21  C16   D T1001       2.472  -6.002 -10.330  1.00 33.74     0.250 C 
HETATM   22  C17   D T1001       3.963  -6.001 -10.424  1.00 35.69     0.037 C 
ENDBRANCH  18  21
ENDBRANCH  17  18
ENDBRANCH  16  17
ENDBRANCH  15  16
ENDBRANCH  13  15
ENDBRANCH  12  13
ENDBRANCH   5  12
TORSDOF 8
ENDMDL
MODEL 2
REMARK VINA RESULT:    -5.629      2.010      3.656
REMARK INTER + INTRA:          -9.313
REMARK INTER:                  -8.661
REMARK INTRA:                  -0.653
REMARK UNBOUND:                -1.051
REMARK  8 active torsions:
REMARK  status: ('A' for Active; 'I' for Inactive)
REMARK    1  A    between atoms: C3_5  and  N2_12 
REMARK    2  A    between atoms: N2_12  and  C10_13 
REMARK    3  A    between atoms: C10_13  and  C11_14 
REMARK    4  A    between atoms: C11_14  and  C12_15 
REMARK    5  A    between atoms: C12_15  and  C13_16 
REMARK    6  A    between atoms: C13_16  and  N3_17 
REMARK    7  A    between atoms: N3_17  and  C14_18 
REMARK    8  A    between atoms: N3_17  and  C16_20 
ROOT
HETATM    1 CL     D T1001      13.199  -3.575  -8.931  1.00 22.69    -0.082 Cl
HETATM    2  N1    D T1001       9.061  -2.861 -11.907  1.00 34.43    -0.244 NA
HETATM    3  C1    D T1001       7.909  -3.241 -12.496  1.00 35.26     0.101 A 
HETATM    4  C2    D T1001       7.392  -4.519 -12.327  1.00 34.24     0.039 A 
HETATM    5  C3    D T1001       8.089  -5.522 -11.524  1.00 31.96     0.079 A 
HETATM    6  C4    D T1001       9.358  -5.119 -10.882  1.00 33.68     0.035 A 
HETATM    7  C5    D T1001      10.184  -5.977 -10.032  1.00 34.90     0.004 A 
HETATM    8  C6    D T1001      11.368  -5.506  -9.447  1.00 32.93     0.012 A 
HETATM    9  C7    D T1001      11.767  -4.150  -9.683  1.00 31.88     0.059 A 
HETATM   10  C8    D T1001      11.015  -3.280 -10.487  1.00 32.37     0.031 A 
HETATM   11  C9    D T1001       9.813  -3.743 -11.092  1.00 35.42     0.084 A 
ENDROOT
BRANCH   5  12
HETATM   12  N2    D T1001       7.606  -6.790 -11.342  1.00 30.60    -0.273 NA
BRANCH  12  13
HETATM   13  C10   D T1001       6.923  -7.345 -10.125  1.00 29.84     0.103 C 
HETATM   14  C18   D T1001       7.739  -8.488  -9.537  1.00 30.59     0.026 C 
BRANCH  13  15
HETATM   15  C11   D T1001       5.486  -7.750 -10.482  1.00 31.56     0.026 C 
BRANCH  15  16
HETATM   16  C12   D T1001       4.459  -6.634 -10.552  1.00 32.62     0.037 C 
BRANCH  16  17
HETATM   17  C13   D T1001       3.475  -6.773  -9.401  1.00 31.65     0.250 C 
BRANCH  17  18
HETATM   18  N3    D T1001       2.122  -7.279  -9.820  1.00 36.76     0.137 N 
BRANCH  18  19
HETATM   19  C14   D T1001       1.826  -8.697  -9.284  1.00 36.54     0.250 C 
HETATM   20  C15   D T1001       3.009  -9.618  -9.005  1.00 37.02     0.037 C 
ENDBRANCH  18  19
BRANCH  18  21
HETATM   21  C16   D T1001       1.034  -6.252  -9.677  1.00 33.74     0.250 C 
HETATM   22  C17   D T1001       0.086  -6.486  -8.547  1.00 35.69     0.037 C 
ENDBRANCH  18  21
ENDBRANCH  17  18
ENDBRANCH  16  17
ENDBRANCH  15  16
ENDBRANCH  13  15
ENDBRANCH  12  13
ENDBRANCH   5  12
TORSDOF 8
ENDMDL
MODEL 3
REMARK VINA RESULT:    -5.522      3.473      7.912
REMARK INTER + INTRA:          -9.156
REMARK INTER:                  -7.993
REMARK INTRA:                  -1.164
REMARK UNBOUND:                -1.051
REMARK  8 active torsions:
REMARK  status: ('A' for Active; 'I' for Inactive)
REMARK    1  A    between atoms: C3_5  and  N2_12 
REMARK    2  A    between atoms: N2_12  and  C10_13 
REMARK    3  A    between atoms: C10_13  and  C11_14 
REMARK    4  A    between atoms: C11_14  and  C12_15 
REMARK    5  A    between atoms: C12_15  and  C13_16 
REMARK    6  A    between atoms: C13_16  and  N3_17 
REMARK    7  A    between atoms: N3_17  and  C14_18 
REMARK    8  A    between atoms: N3_17  and  C16_20 
ROOT
HETATM    1 CL     D T1001       7.649  -3.294 -12.711  1.00 22.69    -0.082 Cl
HETATM    2  N1    D T1001       7.018  -7.909 -10.521  1.00 34.43    -0.244 NA
HETATM    3  C1    D T1001       7.369  -8.924  -9.705  1.00 35.26     0.101 A 
HETATM    4  C2    D T1001       8.536  -8.885  -8.955  1.00 34.24     0.039 A 
HETATM    5  C3    D T1001       9.456  -7.751  -9.037  1.00 31.96     0.079 A 
HETATM    6  C4    D T1001       9.087  -6.638  -9.936  1.00 33.68     0.035 A 
HETATM    7  C5    D T1001       9.869  -5.418 -10.135  1.00 34.90     0.004 A 
HETATM    8  C6    D T1001       9.434  -4.401 -10.997  1.00 32.93     0.012 A 
HETATM    9  C7    D T1001       8.188  -4.562 -11.686  1.00 31.88     0.059 A 
HETATM   10  C8    D T1001       7.394  -5.709 -11.534  1.00 32.37     0.031 A 
HETATM   11  C9    D T1001       7.822  -6.752 -10.667  1.00 35.42     0.084 A 
ENDROOT
BRANCH   5  12
HETATM   12  N2    D T1001      10.616  -7.686  -8.312  1.00 30.60    -0.273 NA
BRANCH  12  13
HETATM   13  C10   D T1001      12.011  -7.970  -8.787  1.00 29.84     0.103 C 
HETATM   14  C18   D T1001      12.099  -9.381  -9.353  1.00 30.59     0.026 C 
BRANCH  13  15
HETATM   15  C11   D T1001      13.005  -7.716  -7.644  1.00 31.56     0.026 C 
BRANCH  15  16
HETATM   16  C12   D T1001      14.360  -7.152  -8.030  1.00 32.62     0.037 C 
BRANCH  16  17
HETATM   17  C13   D T1001      14.240  -5.656  -8.274  1.00 31.65     0.250 C 
BRANCH  17  18
HETATM   18  N3    D T1001      14.513  -5.251  -9.697  1.00 36.76     0.137 N 
BRANCH  18  19
HETATM   19  C14   D T1001      15.051  -6.419 -10.553  1.00 36.54     0.250 C 
HETATM   20  C15   D T1001      14.717  -6.429 -12.041  1.00 37.02     0.037 C 
ENDBRANCH  18  19
BRANCH  18  21
HETATM   21  C16   D T1001      13.421  -4.410 -10.295  1.00 33.74     0.250 C 
HETATM   22  C17   D T1001      12.823  -3.398  -9.374  1.00 35.69     0.037 C 
ENDBRANCH  18  21
ENDBRANCH  17  18
ENDBRANCH  16  17
ENDBRANCH  15  16
ENDBRANCH  13  15
ENDBRANCH  12  13
ENDBRANCH   5  12
TORSDOF 8
ENDMDL
MODEL 4
REMARK VINA RESULT:    -5.473      1.389      2.045
REMARK INTER + INTRA:          -9.083
REMARK INTER:                  -8.265
REMARK INTRA:                  -0.818
REMARK UNBOUND:                -1.051
REMARK  8 active torsions:
REMARK  status: ('A' for Active; 'I' for Inactive)
REMARK    1  A    between atoms: C3_5  and  N2_12 
REMARK    2  A    between atoms: N2_12  and  C10_13 
REMARK    3  A    between atoms: C10_13  and  C11_14 
REMARK    4  A    between atoms: C11_14  and  C12_15 
REMARK    5  A    between atoms: C12_15  and  C13_16 
REMARK    6  A    between atoms: C13_16  and  N3_17 
REMARK    7  A    between atoms: N3_17  and  C14_18 
REMARK    8  A    between atoms: N3_17  and  C16_20 
ROOT
HETATM    1 CL     D T1001       9.965  -2.375 -11.628  1.00 22.69    -0.082 Cl
HETATM    2  N1    D T1001       9.436  -6.852  -9.145  1.00 34.43    -0.244 NA
HETATM    3  C1    D T1001       8.854  -8.044  -8.901  1.00 35.26     0.101 A 
HETATM    4  C2    D T1001       7.751  -8.477  -9.624  1.00 34.24     0.039 A 
HETATM    5  C3    D T1001       7.151  -7.646 -10.667  1.00 31.96     0.079 A 
HETATM    6  C4    D T1001       7.775  -6.334 -10.937  1.00 33.68     0.035 A 
HETATM    7  C5    D T1001       7.328  -5.378 -11.949  1.00 34.90     0.004 A 
HETATM    8  C6    D T1001       7.992  -4.159 -12.149  1.00 32.93     0.012 A 
HETATM    9  C7    D T1001       9.140  -3.854 -11.348  1.00 31.88     0.059 A 
HETATM   10  C8    D T1001       9.616  -4.733 -10.363  1.00 32.37     0.031 A 
HETATM   11  C9    D T1001       8.953  -5.972 -10.144  1.00 35.42     0.084 A 
ENDROOT
BRANCH   5  12
HETATM   12  N2    D T1001       6.062  -8.045 -11.396  1.00 30.60    -0.273 NA
BRANCH  12  13
HETATM   13  C10   D T1001       5.733  -9.432 -11.869  1.00 29.84     0.103 C 
HETATM   14  C18   D T1001       5.158  -9.387 -13.278  1.00 30.59     0.026 C 
BRANCH  13  15
HETATM   15  C11   D T1001       4.799 -10.111 -10.857  1.00 31.56     0.026 C 
BRANCH  15  16
HETATM   16  C12   D T1001       3.874  -9.204 -10.065  1.00 32.62     0.037 C 
BRANCH  16  17
HETATM   17  C13   D T1001       3.063 -10.036  -9.082  1.00 31.65     0.250 C 
BRANCH  17  18
HETATM   18  N3    D T1001       1.577  -9.863  -9.228  1.00 36.76     0.137 N 
BRANCH  18  19
HETATM   19  C14   D T1001       1.186  -8.436  -9.674  1.00 36.54     0.250 C 
HETATM   20  C15   D T1001       0.185  -7.667  -8.818  1.00 37.02     0.037 C 
ENDBRANCH  18  19
BRANCH  18  21
HETATM   21  C16   D T1001       0.912 -11.008  -9.937  1.00 33.74     0.250 C 
HETATM   22  C17   D T1001       1.005 -10.972 -11.427  1.00 35.69     0.037 C 
ENDBRANCH  18  21
ENDBRANCH  17  18
ENDBRANCH  16  17
ENDBRANCH  15  16
ENDBRANCH  13  15
ENDBRANCH  12  13
ENDBRANCH   5  12
TORSDOF 8
ENDMDL
MODEL 5
REMARK VINA RESULT:    -5.362      1.919      3.329
REMARK INTER + INTRA:          -8.921
REMARK INTER:                  -7.758
REMARK INTRA:                  -1.163
REMARK UNBOUND:                -1.051
REMARK  8 active torsions:
REMARK  status: ('A' for Active; 'I' for Inactive)
REMARK    1  A    between atoms: C3_5  and  N2_12 
REMARK    2  A    between atoms: N2_12  and  C10_13 
REMARK    3  A    between atoms: C10_13  and  C11_14 
REMARK    4  A    between atoms: C11_14  and  C12_15 
REMARK    5  A    between atoms: C12_15  and  C13_16 
REMARK    6  A    between atoms: C13_16  and  N3_17 
REMARK    7  A    between atoms: N3_17  and  C14_18 
REMARK    8  A    between atoms: N3_17  and  C16_20 
ROOT
HETATM    1 CL     D T1001       9.807  -2.388 -11.493  1.00 22.69    -0.082 Cl
HETATM    2  N1    D T1001      12.547  -6.077  -9.174  1.00 34.43    -0.244 NA
HETATM    3  C1    D T1001      12.713  -7.285  -8.597  1.00 35.26     0.101 A 
HETATM    4  C2    D T1001      11.656  -8.172  -8.449  1.00 34.24     0.039 A 
HETATM    5  C3    D T1001      10.305  -7.826  -8.885  1.00 31.96     0.079 A 
HETATM    6  C4    D T1001      10.108  -6.501  -9.509  1.00 33.68     0.035 A 
HETATM    7  C5    D T1001       8.837  -5.988 -10.020  1.00 34.90     0.004 A 
HETATM    8  C6    D T1001       8.744  -4.722 -10.615  1.00 32.93     0.012 A 
HETATM    9  C7    D T1001       9.927  -3.921 -10.731  1.00 31.88     0.059 A 
HETATM   10  C8    D T1001      11.174  -4.361 -10.260  1.00 32.37     0.031 A 
HETATM   11  C9    D T1001      11.285  -5.641  -9.651  1.00 35.42     0.084 A 
ENDROOT
BRANCH   5  12
HETATM   12  N2    D T1001       9.242  -8.680  -8.749  1.00 30.60    -0.273 NA
BRANCH  12  13
HETATM   13  C10   D T1001       9.028  -9.995  -9.440  1.00 29.84     0.103 C 
HETATM   14  C18   D T1001       9.116  -9.819 -10.950  1.00 30.59     0.026 C 
BRANCH  13  15
HETATM   15  C11   D T1001       7.697 -10.607  -8.980  1.00 31.56     0.026 C 
BRANCH  15  16
HETATM   16  C12   D T1001       6.646 -10.838 -10.051  1.00 32.62     0.037 C 
BRANCH  16  17
HETATM   17  C13   D T1001       5.340 -10.180  -9.633  1.00 31.65     0.250 C 
BRANCH  17  18
HETATM   18  N3    D T1001       4.859  -9.127 -10.593  1.00 36.76     0.137 N 
BRANCH  18  19
HETATM   19  C14   D T1001       3.366  -8.782 -10.398  1.00 36.54     0.250 C 
HETATM   20  C15   D T1001       2.735  -9.077  -9.042  1.00 37.02     0.037 C 
ENDBRANCH  18  19
BRANCH  18  21
HETATM   21  C16   D T1001       5.815  -7.976 -10.739  1.00 33.74     0.250 C 
HETATM   22  C17   D T1001       5.214  -6.624 -10.537  1.00 35.69     0.037 C 
ENDBRANCH  18  21
ENDBRANCH  17  18
ENDBRANCH  16  17
ENDBRANCH  15  16
ENDBRANCH  13  15
ENDBRANCH  12  13
ENDBRANCH   5  12
TORSDOF 8
ENDMDL
MODEL 6
REMARK VINA RESULT:    -5.235      2.885      7.192
REMARK INTER + INTRA:          -8.734
REMARK INTER:                  -7.905
REMARK INTRA:                  -0.829
REMARK UNBOUND:                -1.051
REMARK  8 active torsions:
REMARK  status: ('A' for Active; 'I' for Inactive)
REMARK    1  A    between atoms: C3_5  and  N2_12 
REMARK    2  A    between atoms: N2_12  and  C10_13 
REMARK    3  A    between atoms: C10_13  and  C11_14 
REMARK    4  A    between atoms: C11_14  and  C12_15 
REMARK    5  A    between atoms: C12_15  and  C13_16 
REMARK    6  A    between atoms: C13_16  and  N3_17 
REMARK    7  A    between atoms: N3_17  and  C14_18 
REMARK    8  A    between atoms: N3_17  and  C16_20 
ROOT
HETATM    1 CL     D T1001       0.865  -6.096  -9.629  1.00 22.69    -0.082 Cl
HETATM    2  N1    D T1001       3.749 -10.325 -10.163  1.00 34.43    -0.244 NA
HETATM    3  C1    D T1001       4.887 -10.991 -10.450  1.00 35.26     0.101 A 
HETATM    4  C2    D T1001       6.035 -10.327 -10.859  1.00 34.24     0.039 A 
HETATM    5  C3    D T1001       6.056  -8.875 -11.027  1.00 31.96     0.079 A 
HETATM    6  C4    D T1001       4.813  -8.136 -10.726  1.00 33.68     0.035 A 
HETATM    7  C5    D T1001       4.648  -6.686 -10.818  1.00 34.90     0.004 A 
HETATM    8  C6    D T1001       3.433  -6.064 -10.496  1.00 32.93     0.012 A 
HETATM    9  C7    D T1001       2.336  -6.873 -10.056  1.00 31.88     0.059 A 
HETATM   10  C8    D T1001       2.434  -8.268  -9.945  1.00 32.37     0.031 A 
HETATM   11  C9    D T1001       3.658  -8.916 -10.273  1.00 35.42     0.084 A 
ENDROOT
BRANCH   5  12
HETATM   12  N2    D T1001       7.173  -8.193 -11.431  1.00 30.60    -0.273 NA
BRANCH  12  13
HETATM   13  C10   D T1001       8.302  -7.694 -10.577  1.00 29.84     0.103 C 
HETATM   14  C18   D T1001       8.228  -8.313  -9.188  1.00 30.59     0.026 C 
BRANCH  13  15
HETATM   15  C11   D T1001       8.290  -6.159 -10.556  1.00 31.56     0.026 C 
BRANCH  15  16
HETATM   16  C12   D T1001       9.202  -5.483  -9.548  1.00 32.62     0.037 C 
BRANCH  16  17
HETATM   17  C13   D T1001      10.294  -4.718 -10.281  1.00 31.65     0.250 C 
BRANCH  17  18
HETATM   18  N3    D T1001      11.639  -5.388 -10.230  1.00 36.76     0.137 N 
BRANCH  18  19
HETATM   19  C14   D T1001      12.805  -4.376 -10.176  1.00 36.54     0.250 C 
HETATM   20  C15   D T1001      12.646  -3.147  -9.287  1.00 37.02     0.037 C 
ENDBRANCH  18  19
BRANCH  18  21
HETATM   21  C16   D T1001      11.692  -6.544  -9.271  1.00 33.74     0.250 C 
HETATM   22  C17   D T1001      13.010  -6.752  -8.600  1.00 35.69     0.037 C 
ENDBRANCH  18  21
ENDBRANCH  17  18
ENDBRANCH  16  17
ENDBRANCH  15  16
ENDBRANCH  13  15
ENDBRANCH  12  13
ENDBRANCH   5  12
TORSDOF 8
ENDMDL
MODEL 7
REMARK VINA RESULT:    -5.203      5.712      9.619
REMARK INTER + INTRA:          -8.688
REMARK INTER:                  -7.621
REMARK INTRA:                  -1.067
REMARK UNBOUND:                -1.051
REMARK  8 active torsions:
REMARK  status: ('A' for Active; 'I' for Inactive)
REMARK    1  A    between atoms: C3_5  and  N2_12 
REMARK    2  A    between atoms: N2_12  and  C10_13 
REMARK    3  A    between atoms: C10_13  and  C11_14 
REMARK    4  A    between atoms: C11_14  and  C12_15 
REMARK    5  A    between atoms: C12_15  and  C13_16 
REMARK    6  A    between atoms: C13_16  and  N3_17 
REMARK    7  A    between atoms: N3_17  and  C14_18 
REMARK    8  A    between atoms: N3_17  and  C16_20 
ROOT
HETATM    1 CL     D T1001       9.715  -2.014 -11.137  1.00 22.69    -0.082 Cl
HETATM    2  N1    D T1001      10.014  -6.856  -9.415  1.00 34.43    -0.244 NA
HETATM    3  C1    D T1001      10.657  -7.925  -8.904  1.00 35.26     0.101 A 
HETATM    4  C2    D T1001      12.017  -7.892  -8.627  1.00 34.24     0.039 A 
HETATM    5  C3    D T1001      12.822  -6.704  -8.903  1.00 31.96     0.079 A 
HETATM    6  C4    D T1001      12.130  -5.529  -9.473  1.00 33.68     0.035 A 
HETATM    7  C5    D T1001      12.762  -4.251  -9.800  1.00 34.90     0.004 A 
HETATM    8  C6    D T1001      12.023  -3.180 -10.322  1.00 32.93     0.012 A 
HETATM    9  C7    D T1001      10.615  -3.345 -10.530  1.00 31.88     0.059 A 
HETATM   10  C8    D T1001       9.953  -4.546 -10.234  1.00 32.37     0.031 A 
HETATM   11  C9    D T1001      10.688  -5.644  -9.707  1.00 35.42     0.084 A 
ENDROOT
BRANCH   5  12
HETATM   12  N2    D T1001      14.165  -6.643  -8.643  1.00 30.60    -0.273 NA
BRANCH  12  13
HETATM   13  C10   D T1001      14.849  -5.927  -7.514  1.00 29.84     0.103 C 
HETATM   14  C18   D T1001      15.954  -5.028  -8.051  1.00 30.59     0.026 C 
BRANCH  13  15
HETATM   15  C11   D T1001      15.349  -6.951  -6.485  1.00 31.56     0.026 C 
BRANCH  15  16
HETATM   16  C12   D T1001      14.587  -7.029  -5.174  1.00 32.62     0.037 C 
BRANCH  16  17
HETATM   17  C13   D T1001      13.670  -8.243  -5.189  1.00 31.65     0.250 C 
BRANCH  17  18
HETATM   18  N3    D T1001      13.901  -9.189  -4.044  1.00 36.76     0.137 N 
BRANCH  18  19
HETATM   19  C14   D T1001      14.250 -10.618  -4.516  1.00 36.54     0.250 C 
HETATM   20  C15   D T1001      14.868 -10.784  -5.900  1.00 37.02     0.037 C 
ENDBRANCH  18  19
BRANCH  18  21
HETATM   21  C16   D T1001      14.750  -8.603  -2.951  1.00 33.74     0.250 C 
HETATM   22  C17   D T1001      15.901  -9.452  -2.518  1.00 35.69     0.037 C 
ENDBRANCH  18  21
ENDBRANCH  17  18
ENDBRANCH  16  17
ENDBRANCH  15  16
ENDBRANCH  13  15
ENDBRANCH  12  13
ENDBRANCH   5  12
TORSDOF 8
ENDMDL
MODEL 8
REMARK VINA RESULT:    -5.142      4.567      8.749
REMARK INTER + INTRA:          -8.597
REMARK INTER:                  -7.686
REMARK INTRA:                  -0.911
REMARK UNBOUND:                -1.051
REMARK  8 active torsions:
REMARK  status: ('A' for Active; 'I' for Inactive)
REMARK    1  A    between atoms: C3_5  and  N2_12 
REMARK    2  A    between atoms: N2_12  and  C10_13 
REMARK    3  A    between atoms: C10_13  and  C11_14 
REMARK    4  A    between atoms: C11_14  and  C12_15 
REMARK    5  A    between atoms: C12_15  and  C13_16 
REMARK    6  A    between atoms: C13_16  and  N3_17 
REMARK    7  A    between atoms: N3_17  and  C14_18 
REMARK    8  A    between atoms: N3_17  and  C16_20 
ROOT
HETATM    1 CL     D T1001       9.694  -2.200 -11.447  1.00 22.69    -0.082 Cl
HETATM    2  N1    D T1001       7.797  -6.811 -10.174  1.00 34.43    -0.244 NA
HETATM    3  C1    D T1001       7.864  -8.045  -9.631  1.00 35.26     0.101 A 
HETATM    4  C2    D T1001       9.029  -8.518  -9.043  1.00 34.24     0.039 A 
HETATM    5  C3    D T1001      10.247  -7.711  -9.010  1.00 31.96     0.079 A 
HETATM    6  C4    D T1001      10.189  -6.362  -9.611  1.00 33.68     0.035 A 
HETATM    7  C5    D T1001      11.296  -5.409  -9.657  1.00 34.90     0.004 A 
HETATM    8  C6    D T1001      11.147  -4.139 -10.233  1.00 32.93     0.012 A 
HETATM    9  C7    D T1001       9.874  -3.770 -10.777  1.00 31.88     0.059 A 
HETATM   10  C8    D T1001       8.774  -4.642 -10.761  1.00 32.37     0.031 A 
HETATM   11  C9    D T1001       8.910  -5.935 -10.184  1.00 35.42     0.084 A 
ENDROOT
BRANCH   5  12
HETATM   12  N2    D T1001      11.411  -8.152  -8.439  1.00 30.60    -0.273 NA
BRANCH  12  13
HETATM   13  C10   D T1001      12.643  -8.653  -9.137  1.00 29.84     0.103 C 
HETATM   14  C18   D T1001      12.576 -10.165  -9.307  1.00 30.59     0.026 C 
BRANCH  13  15
HETATM   15  C11   D T1001      13.891  -8.185  -8.375  1.00 31.56     0.026 C 
BRANCH  15  16
HETATM   16  C12   D T1001      13.923  -8.462  -6.883  1.00 32.62     0.037 C 
BRANCH  16  17
HETATM   17  C13   D T1001      14.190  -7.167  -6.130  1.00 31.65     0.250 C 
BRANCH  17  18
HETATM   18  N3    D T1001      15.647  -6.922  -5.847  1.00 36.76     0.137 N 
BRANCH  18  19
HETATM   19  C14   D T1001      16.056  -5.449  -6.069  1.00 36.54     0.250 C 
HETATM   20  C15   D T1001      15.111  -4.556  -6.866  1.00 37.02     0.037 C 
ENDBRANCH  18  19
BRANCH  18  21
HETATM   21  C16   D T1001      16.126  -7.582  -4.584  1.00 33.74     0.250 C 
HETATM   22  C17   D T1001      15.256  -7.371  -3.389  1.00 35.69     0.037 C 
ENDBRANCH  18  21
ENDBRANCH  17  18
ENDBRANCH  16  17
ENDBRANCH  15  16
ENDBRANCH  13  15
ENDBRANCH  12  13
ENDBRANCH   5  12
TORSDOF 8
ENDMDL
MODEL 9
REMARK VINA RESULT:    -5.042      2.358      4.036
REMARK INTER + INTRA:          -8.451
REMARK INTER:                  -7.438
REMARK INTRA:                  -1.014
REMARK UNBOUND:                -1.051
REMARK  8 active torsions:
REMARK  status: ('A' for Active; 'I' for Inactive)
REMARK    1  A    between atoms: C3_5  and  N2_12 
REMARK    2  A    between atoms: N2_12  and  C10_13 
REMARK    3  A    between atoms: C10_13  and  C11_14 
REMARK    4  A    between atoms: C11_14  and  C12_15 
REMARK    5  A    between atoms: C12_15  and  C13_16 
REMARK    6  A    between atoms: C13_16  and  N3_17 
REMARK    7  A    between atoms: N3_17  and  C14_18 
REMARK    8  A    between atoms: N3_17  and  C16_20 
ROOT
HETATM    1 CL     D T1001      14.084  -4.878  -9.175  1.00 22.69    -0.082 Cl
HETATM    2  N1    D T1001       9.109  -5.363 -10.400  1.00 34.43    -0.244 NA
HETATM    3  C1    D T1001       7.926  -6.011 -10.443  1.00 35.26     0.101 A 
HETATM    4  C2    D T1001       7.775  -7.286  -9.915  1.00 34.24     0.039 A 
HETATM    5  C3    D T1001       8.900  -7.998  -9.311  1.00 31.96     0.079 A 
HETATM    6  C4    D T1001      10.203  -7.302  -9.268  1.00 33.68     0.035 A 
HETATM    7  C5    D T1001      11.432  -7.846  -8.691  1.00 34.90     0.004 A 
HETATM    8  C6    D T1001      12.624  -7.107  -8.677  1.00 32.93     0.012 A 
HETATM    9  C7    D T1001      12.628  -5.786  -9.231  1.00 31.88     0.059 A 
HETATM   10  C8    D T1001      11.479  -5.211  -9.797  1.00 32.37     0.031 A 
HETATM   11  C9    D T1001      10.263  -5.948  -9.823  1.00 35.42     0.084 A 
ENDROOT
BRANCH   5  12
HETATM   12  N2    D T1001       8.782  -9.256  -8.785  1.00 30.60    -0.273 NA
BRANCH  12  13
HETATM   13  C10   D T1001       8.838 -10.566  -9.517  1.00 29.84     0.103 C 
HETATM   14  C18   D T1001       9.299 -10.350 -10.952  1.00 30.59     0.026 C 
BRANCH  13  15
HETATM   15  C11   D T1001       7.476 -11.268  -9.420  1.00 31.56     0.026 C 
BRANCH  15  16
HETATM   16  C12   D T1001       6.450 -10.641  -8.494  1.00 32.62     0.037 C 
BRANCH  16  17
HETATM   17  C13   D T1001       5.049 -10.966  -8.991  1.00 31.65     0.250 C 
BRANCH  17  18
HETATM   18  N3    D T1001       4.353  -9.802  -9.640  1.00 36.76     0.137 N 
BRANCH  18  19
HETATM   19  C14   D T1001       4.398  -9.868 -11.183  1.00 36.54     0.250 C 
HETATM   20  C15   D T1001       4.873  -8.631 -11.939  1.00 37.02     0.037 C 
ENDBRANCH  18  19
BRANCH  18  21
HETATM   21  C16   D T1001       3.029  -9.474  -9.008  1.00 33.74     0.250 C 
HETATM   22  C17   D T1001       1.840  -9.660  -9.893  1.00 35.69     0.037 C 
ENDBRANCH  18  21
ENDBRANCH  17  18
ENDBRANCH  16  17
ENDBRANCH  15  16
ENDBRANCH  13  15
ENDBRANCH  12  13
ENDBRANCH   5  12
TORSDOF 8
ENDMDL
