MODEL 1
REMARK VINA RESULT:    -5.660      0.000      0.000
REMARK INTER + INTRA:          -9.363
REMARK INTER:                  -8.307
REMARK INTRA:                  -1.055
REMARK UNBOUND:                -1.055
REMARK  8 active torsions:
REMARK  status: ('A' for Active; 'I' for Inactive)
REMARK    1  A    between atoms: C3_5  and  N2_12 
REMARK    2  A    between atoms: N2_12  and  C10_13 
REMARK    3  A    between atoms: C10_13  and  C11_14 
REMARK    4  A    between atoms: C11_14  and  C12_15 
REMARK    5  A    between atoms: C12_15  and  C13_16 
REMARK    6  A    between atoms: C13_16  and  N3_17 
REMARK    7  A    between atoms: N3_17  and  C14_18 
REMARK    8  A    between atoms: N3_17  and  C16_20 
ROOT
HETATM    1 CL     D T1001      11.969   6.518 -12.424  1.00 22.69    -0.082 Cl
HETATM    2  N1    D T1001      12.857  10.355  -9.110  1.00 34.43    -0.244 NA
HETATM    3  C1    D T1001      13.432  10.915  -8.027  1.00 35.26     0.101 A 
HETATM    4  C2    D T1001      14.307  10.202  -7.217  1.00 34.24     0.039 A 
HETATM    5  C3    D T1001      14.621   8.799  -7.486  1.00 31.96     0.079 A 
HETATM    6  C4    D T1001      13.987   8.172  -8.664  1.00 33.68     0.035 A 
HETATM    7  C5    D T1001      14.192   6.791  -9.100  1.00 34.90     0.004 A 
HETATM    8  C6    D T1001      13.562   6.282 -10.243  1.00 32.93     0.012 A 
HETATM    9  C7    D T1001      12.706   7.143 -11.005  1.00 31.88     0.059 A 
HETATM   10  C8    D T1001      12.472   8.478 -10.637  1.00 32.37     0.031 A 
HETATM   11  C9    D T1001      13.100   9.008  -9.478  1.00 35.42     0.084 A 
ENDROOT
BRANCH   5  12
HETATM   12  N2    D T1001      15.477   8.070  -6.704  1.00 30.60    -0.273 NA
BRANCH  12  13
HETATM   13  C10   D T1001      16.444   8.584  -5.676  1.00 29.84     0.103 C 
HETATM   14  C18   D T1001      17.851   8.633  -6.252  1.00 30.59     0.026 C 
BRANCH  13  15
HETATM   15  C11   D T1001      16.342   7.728  -4.404  1.00 31.56     0.026 C 
BRANCH  15  16
HETATM   16  C12   D T1001      14.979   7.649  -3.742  1.00 32.62     0.037 C 
BRANCH  16  17
HETATM   17  C13   D T1001      14.541   6.196  -3.646  1.00 31.65     0.250 C 
BRANCH  17  18
HETATM   18  N3    D T1001      13.049   6.016  -3.596  1.00 36.76     0.137 N 
BRANCH  18  19
HETATM   19  C14   D T1001      12.534   5.036  -4.673  1.00 36.54     0.250 C 
HETATM   20  C15   D T1001      12.800   5.375  -6.136  1.00 37.02     0.037 C 
ENDBRANCH  18  19
BRANCH  18  21
HETATM   21  C16   D T1001      12.517   5.842  -2.201  1.00 33.74     0.250 C 
HETATM   22  C17   D T1001      11.293   4.996  -2.090  1.00 35.69     0.037 C 
ENDBRANCH  18  21
ENDBRANCH  17  18
ENDBRANCH  16  17
ENDBRANCH  15  16
ENDBRANCH  13  15
ENDBRANCH  12  13
ENDBRANCH   5  12
TORSDOF 8
ENDMDL
MODEL 2
REMARK VINA RESULT:    -5.477      3.561      5.938
REMARK INTER + INTRA:          -9.095
REMARK INTER:                  -8.119
REMARK INTRA:                  -0.976
REMARK UNBOUND:                -1.055
REMARK  8 active torsions:
REMARK  status: ('A' for Active; 'I' for Inactive)
REMARK    1  A    between atoms: C3_5  and  N2_12 
REMARK    2  A    between atoms: N2_12  and  C10_13 
REMARK    3  A    between atoms: C10_13  and  C11_14 
REMARK    4  A    between atoms: C11_14  and  C12_15 
REMARK    5  A    between atoms: C12_15  and  C13_16 
REMARK    6  A    between atoms: C13_16  and  N3_17 
REMARK    7  A    between atoms: N3_17  and  C14_18 
REMARK    8  A    between atoms: N3_17  and  C16_20 
ROOT
HETATM    1 CL     D T1001      13.394  14.388 -12.797  1.00 22.69    -0.082 Cl
HETATM    2  N1    D T1001      11.654   9.677 -13.923  1.00 34.43    -0.244 NA
HETATM    3  C1    D T1001      11.377   8.386 -13.646  1.00 35.26     0.101 A 
HETATM    4  C2    D T1001      11.660   7.831 -12.404  1.00 34.24     0.039 A 
HETATM    5  C3    D T1001      12.300   8.616 -11.348  1.00 31.96     0.079 A 
HETATM    6  C4    D T1001      12.617  10.028 -11.645  1.00 33.68     0.035 A 
HETATM    7  C5    D T1001      13.239  10.969 -10.712  1.00 34.90     0.004 A 
HETATM    8  C6    D T1001      13.489  12.299 -11.072  1.00 32.93     0.012 A 
HETATM    9  C7    D T1001      13.115  12.746 -12.382  1.00 31.88     0.059 A 
HETATM   10  C8    D T1001      12.514  11.890 -13.318  1.00 32.37     0.031 A 
HETATM   11  C9    D T1001      12.257  10.536 -12.971  1.00 35.42     0.084 A 
ENDROOT
BRANCH   5  12
HETATM   12  N2    D T1001      12.593   8.095 -10.116  1.00 30.60    -0.273 NA
BRANCH  12  13
HETATM   13  C10   D T1001      13.713   7.160  -9.757  1.00 29.84     0.103 C 
HETATM   14  C18   D T1001      13.473   5.789 -10.369  1.00 30.59     0.026 C 
BRANCH  13  15
HETATM   15  C11   D T1001      13.877   7.120  -8.230  1.00 31.56     0.026 C 
BRANCH  15  16
HETATM   16  C12   D T1001      15.282   7.316  -7.689  1.00 32.62     0.037 C 
BRANCH  16  17
HETATM   17  C13   D T1001      15.321   8.553  -6.806  1.00 31.65     0.250 C 
BRANCH  17  18
HETATM   18  N3    D T1001      15.179   9.843  -7.566  1.00 36.76     0.137 N 
BRANCH  18  19
HETATM   19  C14   D T1001      14.489  10.947  -6.735  1.00 36.54     0.250 C 
HETATM   20  C15   D T1001      14.734  10.968  -5.229  1.00 37.02     0.037 C 
ENDBRANCH  18  19
BRANCH  18  21
HETATM   21  C16   D T1001      16.421  10.228  -8.320  1.00 33.74     0.250 C 
HETATM   22  C17   D T1001      16.471  11.650  -8.774  1.00 35.69     0.037 C 
ENDBRANCH  18  21
ENDBRANCH  17  18
ENDBRANCH  16  17
ENDBRANCH  15  16
ENDBRANCH  13  15
ENDBRANCH  12  13
ENDBRANCH   5  12
TORSDOF 8
ENDMDL
MODEL 3
REMARK VINA RESULT:    -5.393      3.348      5.542
REMARK INTER + INTRA:          -8.971
REMARK INTER:                  -7.946
REMARK INTRA:                  -1.025
REMARK UNBOUND:                -1.055
REMARK  8 active torsions:
REMARK  status: ('A' for Active; 'I' for Inactive)
REMARK    1  A    between atoms: C3_5  and  N2_12 
REMARK    2  A    between atoms: N2_12  and  C10_13 
REMARK    3  A    between atoms: C10_13  and  C11_14 
REMARK    4  A    between atoms: C11_14  and  C12_15 
REMARK    5  A    between atoms: C12_15  and  C13_16 
REMARK    6  A    between atoms: C13_16  and  N3_17 
REMARK    7  A    between atoms: N3_17  and  C14_18 
REMARK    8  A    between atoms: N3_17  and  C16_20 
ROOT
HETATM    1 CL     D T1001      14.137  14.499 -11.519  1.00 22.69    -0.082 Cl
HETATM    2  N1    D T1001      12.039  10.337 -13.702  1.00 34.43    -0.244 NA
HETATM    3  C1    D T1001      11.598   9.063 -13.711  1.00 35.26     0.101 A 
HETATM    4  C2    D T1001      11.683   8.255 -12.583  1.00 34.24     0.039 A 
HETATM    5  C3    D T1001      12.283   8.742 -11.342  1.00 31.96     0.079 A 
HETATM    6  C4    D T1001      12.779  10.134 -11.324  1.00 33.68     0.035 A 
HETATM    7  C5    D T1001      13.392  10.798 -10.173  1.00 34.90     0.004 A 
HETATM    8  C6    D T1001      13.820  12.131 -10.239  1.00 32.93     0.012 A 
HETATM    9  C7    D T1001      13.642  12.857 -11.462  1.00 31.88     0.059 A 
HETATM   10  C8    D T1001      13.059  12.273 -12.599  1.00 32.37     0.031 A 
HETATM   11  C9    D T1001      12.623  10.921 -12.550  1.00 35.42     0.084 A 
ENDROOT
BRANCH   5  12
HETATM   12  N2    D T1001      12.382   7.969 -10.216  1.00 30.60    -0.273 NA
BRANCH  12  13
HETATM   13  C10   D T1001      13.492   7.026  -9.844  1.00 29.84     0.103 C 
HETATM   14  C18   D T1001      13.429   5.771 -10.701  1.00 30.59     0.026 C 
BRANCH  13  15
HETATM   15  C11   D T1001      13.432   6.733  -8.338  1.00 31.56     0.026 C 
BRANCH  15  16
HETATM   16  C12   D T1001      13.995   7.796  -7.412  1.00 32.62     0.037 C 
BRANCH  16  17
HETATM   17  C13   D T1001      15.345   8.263  -7.932  1.00 31.65     0.250 C 
BRANCH  17  18
HETATM   18  N3    D T1001      16.333   8.586  -6.845  1.00 36.76     0.137 N 
BRANCH  18  19
HETATM   19  C14   D T1001      16.128  10.000  -6.258  1.00 36.54     0.250 C 
HETATM   20  C15   D T1001      15.367  11.020  -7.099  1.00 37.02     0.037 C 
ENDBRANCH  18  19
BRANCH  18  21
HETATM   21  C16   D T1001      16.530   7.460  -5.868  1.00 33.74     0.250 C 
HETATM   22  C17   D T1001      17.219   6.256  -6.419  1.00 35.69     0.037 C 
ENDBRANCH  18  21
ENDBRANCH  17  18
ENDBRANCH  16  17
ENDBRANCH  15  16
ENDBRANCH  13  15
ENDBRANCH  12  13
ENDBRANCH   5  12
TORSDOF 8
ENDMDL
MODEL 4
REMARK VINA RESULT:    -5.319      2.361      3.796
REMARK INTER + INTRA:          -8.863
REMARK INTER:                  -8.095
REMARK INTRA:                  -0.767
REMARK UNBOUND:                -1.055
REMARK  8 active torsions:
REMARK  status: ('A' for Active; 'I' for Inactive)
REMARK    1  A    between atoms: C3_5  and  N2_12 
REMARK    2  A    between atoms: N2_12  and  C10_13 
REMARK    3  A    between atoms: C10_13  and  C11_14 
REMARK    4  A    between atoms: C11_14  and  C12_15 
REMARK    5  A    between atoms: C12_15  and  C13_16 
REMARK    6  A    between atoms: C13_16  and  N3_17 
REMARK    7  A    between atoms: N3_17  and  C14_18 
REMARK    8  A    between atoms: N3_17  and  C16_20 
ROOT
HETATM    1 CL     D T1001      11.456   7.869 -13.112  1.00 22.69    -0.082 Cl
HETATM    2  N1    D T1001      13.120  10.177  -8.823  1.00 34.43    -0.244 NA
HETATM    3  C1    D T1001      13.762  10.219  -7.638  1.00 35.26     0.101 A 
HETATM    4  C2    D T1001      14.382   9.095  -7.105  1.00 34.24     0.039 A 
HETATM    5  C3    D T1001      14.339   7.805  -7.793  1.00 31.96     0.079 A 
HETATM    6  C4    D T1001      13.629   7.745  -9.087  1.00 33.68     0.035 A 
HETATM    7  C5    D T1001      13.496   6.552  -9.924  1.00 34.90     0.004 A 
HETATM    8  C6    D T1001      12.818   6.589 -11.149  1.00 32.93     0.012 A 
HETATM    9  C7    D T1001      12.252   7.829 -11.592  1.00 31.88     0.059 A 
HETATM   10  C8    D T1001      12.349   9.007 -10.833  1.00 32.37     0.031 A 
HETATM   11  C9    D T1001      13.030   8.985  -9.586  1.00 35.42     0.084 A 
ENDROOT
BRANCH   5  12
HETATM   12  N2    D T1001      14.937   6.680  -7.290  1.00 30.60    -0.273 NA
BRANCH  12  13
HETATM   13  C10   D T1001      14.578   5.929  -6.040  1.00 29.84     0.103 C 
HETATM   14  C18   D T1001      13.067   5.796  -5.919  1.00 30.59     0.026 C 
BRANCH  13  15
HETATM   15  C11   D T1001      15.223   6.615  -4.827  1.00 31.56     0.026 C 
BRANCH  15  16
HETATM   16  C12   D T1001      16.736   6.740  -4.837  1.00 32.62     0.037 C 
BRANCH  16  17
HETATM   17  C13   D T1001      17.335   5.769  -3.833  1.00 31.65     0.250 C 
BRANCH  17  18
HETATM   18  N3    D T1001      18.491   4.975  -4.375  1.00 36.76     0.137 N 
BRANCH  18  19
HETATM   19  C14   D T1001      19.472   5.841  -5.197  1.00 36.54     0.250 C 
HETATM   20  C15   D T1001      20.940   5.430  -5.224  1.00 37.02     0.037 C 
ENDBRANCH  18  19
BRANCH  18  21
HETATM   21  C16   D T1001      19.089   4.031  -3.369  1.00 33.74     0.250 C 
HETATM   22  C17   D T1001      18.368   3.957  -2.064  1.00 35.69     0.037 C 
ENDBRANCH  18  21
ENDBRANCH  17  18
ENDBRANCH  16  17
ENDBRANCH  15  16
ENDBRANCH  13  15
ENDBRANCH  12  13
ENDBRANCH   5  12
TORSDOF 8
ENDMDL
MODEL 5
REMARK VINA RESULT:    -5.186      2.732      4.893
REMARK INTER + INTRA:          -8.668
REMARK INTER:                  -7.600
REMARK INTRA:                  -1.067
REMARK UNBOUND:                -1.055
REMARK  8 active torsions:
REMARK  status: ('A' for Active; 'I' for Inactive)
REMARK    1  A    between atoms: C3_5  and  N2_12 
REMARK    2  A    between atoms: N2_12  and  C10_13 
REMARK    3  A    between atoms: C10_13  and  C11_14 
REMARK    4  A    between atoms: C11_14  and  C12_15 
REMARK    5  A    between atoms: C12_15  and  C13_16 
REMARK    6  A    between atoms: C13_16  and  N3_17 
REMARK    7  A    between atoms: N3_17  and  C14_18 
REMARK    8  A    between atoms: N3_17  and  C16_20 
ROOT
HETATM    1 CL     D T1001      12.096  12.451 -15.109  1.00 22.69    -0.082 Cl
HETATM    2  N1    D T1001      13.672  11.944 -10.235  1.00 34.43    -0.244 NA
HETATM    3  C1    D T1001      13.896  11.256  -9.097  1.00 35.26     0.101 A 
HETATM    4  C2    D T1001      13.579   9.908  -8.986  1.00 34.24     0.039 A 
HETATM    5  C3    D T1001      12.956   9.180 -10.092  1.00 31.96     0.079 A 
HETATM    6  C4    D T1001      12.696   9.927 -11.339  1.00 33.68     0.035 A 
HETATM    7  C5    D T1001      12.099   9.365 -12.552  1.00 34.90     0.004 A 
HETATM    8  C6    D T1001      11.903  10.143 -13.700  1.00 32.93     0.012 A 
HETATM    9  C7    D T1001      12.308  11.518 -13.684  1.00 31.88     0.059 A 
HETATM   10  C8    D T1001      12.888  12.112 -12.551  1.00 32.37     0.031 A 
HETATM   11  C9    D T1001      13.090  11.337 -11.376  1.00 35.42     0.084 A 
ENDROOT
BRANCH   5  12
HETATM   12  N2    D T1001      12.629   7.852 -10.010  1.00 30.60    -0.273 NA
BRANCH  12  13
HETATM   13  C10   D T1001      13.548   6.695  -9.739  1.00 29.84     0.103 C 
HETATM   14  C18   D T1001      13.291   5.572 -10.733  1.00 30.59     0.026 C 
BRANCH  13  15
HETATM   15  C11   D T1001      13.396   6.252  -8.276  1.00 31.56     0.026 C 
BRANCH  15  16
HETATM   16  C12   D T1001      14.621   6.390  -7.390  1.00 32.62     0.037 C 
BRANCH  16  17
HETATM   17  C13   D T1001      14.412   7.527  -6.403  1.00 31.65     0.250 C 
BRANCH  17  18
HETATM   18  N3    D T1001      15.627   8.394  -6.215  1.00 36.76     0.137 N 
BRANCH  18  19
HETATM   19  C14   D T1001      16.218   8.285  -4.792  1.00 36.54     0.250 C 
HETATM   20  C15   D T1001      16.299   6.902  -4.154  1.00 37.02     0.037 C 
ENDBRANCH  18  19
BRANCH  18  21
HETATM   21  C16   D T1001      16.593   8.322  -7.365  1.00 33.74     0.250 C 
HETATM   22  C17   D T1001      17.191   9.628  -7.772  1.00 35.69     0.037 C 
ENDBRANCH  18  21
ENDBRANCH  17  18
ENDBRANCH  16  17
ENDBRANCH  15  16
ENDBRANCH  13  15
ENDBRANCH  12  13
ENDBRANCH   5  12
TORSDOF 8
ENDMDL
MODEL 6
REMARK VINA RESULT:    -5.103      2.170      3.634
REMARK INTER + INTRA:          -8.545
REMARK INTER:                  -7.715
REMARK INTRA:                  -0.829
REMARK UNBOUND:                -1.055
REMARK  8 active torsions:
REMARK  status: ('A' for Active; 'I' for Inactive)
REMARK    1  A    between atoms: C3_5  and  N2_12 
REMARK    2  A    between atoms: N2_12  and  C10_13 
REMARK    3  A    between atoms: C10_13  and  C11_14 
REMARK    4  A    between atoms: C11_14  and  C12_15 
REMARK    5  A    between atoms: C12_15  and  C13_16 
REMARK    6  A    between atoms: C13_16  and  N3_17 
REMARK    7  A    between atoms: N3_17  and  C14_18 
REMARK    8  A    between atoms: N3_17  and  C16_20 
ROOT
HETATM    1 CL     D T1001      11.324   6.579 -12.919  1.00 22.69    -0.082 Cl
HETATM    2  N1    D T1001      12.656  11.539 -12.577  1.00 34.43    -0.244 NA
HETATM    3  C1    D T1001      13.167  12.619 -11.951  1.00 35.26     0.101 A 
HETATM    4  C2    D T1001      13.651  12.545 -10.651  1.00 34.24     0.039 A 
HETATM    5  C3    D T1001      13.601  11.296  -9.890  1.00 31.96     0.079 A 
HETATM    6  C4    D T1001      13.033  10.110 -10.563  1.00 33.68     0.035 A 
HETATM    7  C5    D T1001      12.917   8.777  -9.970  1.00 34.90     0.004 A 
HETATM    8  C6    D T1001      12.380   7.701 -10.688  1.00 32.93     0.012 A 
HETATM    9  C7    D T1001      11.946   7.914 -12.038  1.00 31.88     0.059 A 
HETATM   10  C8    D T1001      12.035   9.170 -12.660  1.00 32.37     0.031 A 
HETATM   11  C9    D T1001      12.574  10.273 -11.944  1.00 35.42     0.084 A 
ENDROOT
BRANCH   5  12
HETATM   12  N2    D T1001      14.068  11.194  -8.606  1.00 30.60    -0.273 NA
BRANCH  12  13
HETATM   13  C10   D T1001      15.496  11.084  -8.154  1.00 29.84     0.103 C 
HETATM   14  C18   D T1001      16.400  11.919  -9.048  1.00 30.59     0.026 C 
BRANCH  13  15
HETATM   15  C11   D T1001      15.903   9.604  -8.099  1.00 31.56     0.026 C 
BRANCH  15  16
HETATM   16  C12   D T1001      15.164   8.729  -7.103  1.00 32.62     0.037 C 
BRANCH  16  17
HETATM   17  C13   D T1001      15.475   7.266  -7.378  1.00 31.65     0.250 C 
BRANCH  17  18
HETATM   18  N3    D T1001      15.361   6.386  -6.164  1.00 36.76     0.137 N 
BRANCH  18  19
HETATM   19  C14   D T1001      14.076   5.528  -6.173  1.00 36.54     0.250 C 
HETATM   20  C15   D T1001      12.753   6.217  -5.854  1.00 37.02     0.037 C 
ENDBRANCH  18  19
BRANCH  18  21
HETATM   21  C16   D T1001      16.647   5.690  -5.812  1.00 33.74     0.250 C 
HETATM   22  C17   D T1001      17.621   6.514  -5.037  1.00 35.69     0.037 C 
ENDBRANCH  18  21
ENDBRANCH  17  18
ENDBRANCH  16  17
ENDBRANCH  15  16
ENDBRANCH  13  15
ENDBRANCH  12  13
ENDBRANCH   5  12
TORSDOF 8
ENDMDL
MODEL 7
REMARK VINA RESULT:    -5.087      2.061      3.676
REMARK INTER + INTRA:          -8.522
REMARK INTER:                  -7.751
REMARK INTRA:                  -0.771
REMARK UNBOUND:                -1.055
REMARK  8 active torsions:
REMARK  status: ('A' for Active; 'I' for Inactive)
REMARK    1  A    between atoms: C3_5  and  N2_12 
REMARK    2  A    between atoms: N2_12  and  C10_13 
REMARK    3  A    between atoms: C10_13  and  C11_14 
REMARK    4  A    between atoms: C11_14  and  C12_15 
REMARK    5  A    between atoms: C12_15  and  C13_16 
REMARK    6  A    between atoms: C13_16  and  N3_17 
REMARK    7  A    between atoms: N3_17  and  C14_18 
REMARK    8  A    between atoms: N3_17  and  C16_20 
ROOT
HETATM    1 CL     D T1001      11.454  10.195 -14.107  1.00 22.69    -0.082 Cl
HETATM    2  N1    D T1001      12.791   6.028 -11.398  1.00 34.43    -0.244 NA
HETATM    3  C1    D T1001      13.205   5.382 -10.289  1.00 35.26     0.101 A 
HETATM    4  C2    D T1001      13.489   6.065  -9.112  1.00 34.24     0.039 A 
HETATM    5  C3    D T1001      13.381   7.521  -9.033  1.00 31.96     0.079 A 
HETATM    6  C4    D T1001      12.939   8.240 -10.246  1.00 33.68     0.035 A 
HETATM    7  C5    D T1001      12.756   9.688 -10.351  1.00 34.90     0.004 A 
HETATM    8  C6    D T1001      12.315  10.286 -11.539  1.00 32.93     0.012 A 
HETATM    9  C7    D T1001      12.028   9.454 -12.670  1.00 31.88     0.059 A 
HETATM   10  C8    D T1001      12.183   8.058 -12.628  1.00 32.37     0.031 A 
HETATM   11  C9    D T1001      12.633   7.436 -11.432  1.00 35.42     0.084 A 
ENDROOT
BRANCH   5  12
HETATM   12  N2    D T1001      13.657   8.221  -7.888  1.00 30.60    -0.273 NA
BRANCH  12  13
HETATM   13  C10   D T1001      15.000   8.680  -7.394  1.00 29.84     0.103 C 
HETATM   14  C18   D T1001      15.273  10.104  -7.853  1.00 30.59     0.026 C 
BRANCH  13  15
HETATM   15  C11   D T1001      16.079   7.684  -7.842  1.00 31.56     0.026 C 
BRANCH  15  16
HETATM   16  C12   D T1001      16.633   6.753  -6.779  1.00 32.62     0.037 C 
BRANCH  16  17
HETATM   17  C13   D T1001      15.492   6.197  -5.943  1.00 31.65     0.250 C 
BRANCH  17  18
HETATM   18  N3    D T1001      15.725   6.296  -4.460  1.00 36.76     0.137 N 
BRANCH  18  19
HETATM   19  C14   D T1001      17.224   6.408  -4.102  1.00 36.54     0.250 C 
HETATM   20  C15   D T1001      17.699   7.674  -3.396  1.00 37.02     0.037 C 
ENDBRANCH  18  19
BRANCH  18  21
HETATM   21  C16   D T1001      14.784   7.246  -3.773  1.00 33.74     0.250 C 
HETATM   22  C17   D T1001      13.748   6.600  -2.913  1.00 35.69     0.037 C 
ENDBRANCH  18  21
ENDBRANCH  17  18
ENDBRANCH  16  17
ENDBRANCH  15  16
ENDBRANCH  13  15
ENDBRANCH  12  13
ENDBRANCH   5  12
TORSDOF 8
ENDMDL
MODEL 8
REMARK VINA RESULT:    -5.062      2.091      5.107
REMARK INTER + INTRA:          -8.485
REMARK INTER:                  -7.007
REMARK INTRA:                  -1.478
REMARK UNBOUND:                -1.055
REMARK  8 active torsions:
REMARK  status: ('A' for Active; 'I' for Inactive)
REMARK    1  A    between atoms: C3_5  and  N2_12 
REMARK    2  A    between atoms: N2_12  and  C10_13 
REMARK    3  A    between atoms: C10_13  and  C11_14 
REMARK    4  A    between atoms: C11_14  and  C12_15 
REMARK    5  A    between atoms: C12_15  and  C13_16 
REMARK    6  A    between atoms: C13_16  and  N3_17 
REMARK    7  A    between atoms: N3_17  and  C14_18 
REMARK    8  A    between atoms: N3_17  and  C16_20 
ROOT
HETATM    1 CL     D T1001      13.492   6.497 -10.265  1.00 22.69    -0.082 Cl
HETATM    2  N1    D T1001      12.682   5.987  -5.208  1.00 34.43    -0.244 NA
HETATM    3  C1    D T1001      12.995   6.148  -3.905  1.00 35.26     0.101 A 
HETATM    4  C2    D T1001      14.167   6.780  -3.511  1.00 34.24     0.039 A 
HETATM    5  C3    D T1001      15.132   7.274  -4.493  1.00 31.96     0.079 A 
HETATM    6  C4    D T1001      14.805   7.094  -5.922  1.00 33.68     0.035 A 
HETATM    7  C5    D T1001      15.636   7.537  -7.042  1.00 34.90     0.004 A 
HETATM    8  C6    D T1001      15.239   7.341  -8.371  1.00 32.93     0.012 A 
HETATM    9  C7    D T1001      13.984   6.699  -8.633  1.00 31.88     0.059 A 
HETATM   10  C8    D T1001      13.144   6.254  -7.599  1.00 32.37     0.031 A 
HETATM   11  C9    D T1001      13.533   6.443  -6.246  1.00 35.42     0.084 A 
ENDROOT
BRANCH   5  12
HETATM   12  N2    D T1001      16.298   7.898  -4.133  1.00 30.60    -0.273 NA
BRANCH  12  13
HETATM   13  C10   D T1001      16.495   9.348  -3.790  1.00 29.84     0.103 C 
HETATM   14  C18   D T1001      17.354   9.483  -2.542  1.00 30.59     0.026 C 
BRANCH  13  15
HETATM   15  C11   D T1001      15.128  10.035  -3.660  1.00 31.56     0.026 C 
BRANCH  15  16
HETATM   16  C12   D T1001      14.754  11.024  -4.749  1.00 32.62     0.037 C 
BRANCH  16  17
HETATM   17  C13   D T1001      15.852  11.065  -5.800  1.00 31.65     0.250 C 
BRANCH  17  18
HETATM   18  N3    D T1001      15.350  11.360  -7.186  1.00 36.76     0.137 N 
BRANCH  18  19
HETATM   19  C14   D T1001      16.356  10.943  -8.282  1.00 36.54     0.250 C 
HETATM   20  C15   D T1001      17.159  12.041  -8.973  1.00 37.02     0.037 C 
ENDBRANCH  18  19
BRANCH  18  21
HETATM   21  C16   D T1001      13.912  10.974  -7.394  1.00 33.74     0.250 C 
HETATM   22  C17   D T1001      13.568  10.533  -8.778  1.00 35.69     0.037 C 
ENDBRANCH  18  21
ENDBRANCH  17  18
ENDBRANCH  16  17
ENDBRANCH  15  16
ENDBRANCH  13  15
ENDBRANCH  12  13
ENDBRANCH   5  12
TORSDOF 8
ENDMDL
MODEL 9
REMARK VINA RESULT:    -5.019      4.946      9.372
REMARK INTER + INTRA:          -8.422
REMARK INTER:                  -6.997
REMARK INTRA:                  -1.425
REMARK UNBOUND:                -1.055
REMARK  8 active torsions:
REMARK  status: ('A' for Active; 'I' for Inactive)
REMARK    1  A    between atoms: C3_5  and  N2_12 
REMARK    2  A    between atoms: N2_12  and  C10_13 
REMARK    3  A    between atoms: C10_13  and  C11_14 
REMARK    4  A    between atoms: C11_14  and  C12_15 
REMARK    5  A    between atoms: C12_15  and  C13_16 
REMARK    6  A    between atoms: C13_16  and  N3_17 
REMARK    7  A    between atoms: N3_17  and  C14_18 
REMARK    8  A    between atoms: N3_17  and  C16_20 
ROOT
HETATM    1 CL     D T1001      11.046   6.245 -12.926  1.00 22.69    -0.082 Cl
HETATM    2  N1    D T1001      13.250   9.478  -9.582  1.00 34.43    -0.244 NA
HETATM    3  C1    D T1001      13.712  10.679  -9.178  1.00 35.26     0.101 A 
HETATM    4  C2    D T1001      13.648  11.797 -10.001  1.00 34.24     0.039 A 
HETATM    5  C3    D T1001      13.105  11.714 -11.356  1.00 31.96     0.079 A 
HETATM    6  C4    D T1001      12.606  10.400 -11.812  1.00 33.68     0.035 A 
HETATM    7  C5    D T1001      12.015  10.129 -13.123  1.00 34.90     0.004 A 
HETATM    8  C6    D T1001      11.551   8.853 -13.467  1.00 32.93     0.012 A 
HETATM    9  C7    D T1001      11.651   7.795 -12.505  1.00 31.88     0.059 A 
HETATM   10  C8    D T1001      12.207   7.996 -11.231  1.00 32.37     0.031 A 
HETATM   11  C9    D T1001      12.686   9.284 -10.868  1.00 35.42     0.084 A 
ENDROOT
BRANCH   5  12
HETATM   12  N2    D T1001      13.033  12.798 -12.190  1.00 30.60    -0.273 NA
BRANCH  12  13
HETATM   13  C10   D T1001      13.088  14.252 -11.815  1.00 29.84     0.103 C 
HETATM   14  C18   D T1001      11.684  14.798 -11.607  1.00 30.59     0.026 C 
BRANCH  13  15
HETATM   15  C11   D T1001      13.886  15.025 -12.875  1.00 31.56     0.026 C 
BRANCH  15  16
HETATM   16  C12   D T1001      13.084  15.842 -13.872  1.00 32.62     0.037 C 
BRANCH  16  17
HETATM   17  C13   D T1001      13.275  15.274 -15.269  1.00 31.65     0.250 C 
BRANCH  17  18
HETATM   18  N3    D T1001      12.619  13.936 -15.472  1.00 36.76     0.137 N 
BRANCH  18  19
HETATM   19  C14   D T1001      11.084  14.042 -15.606  1.00 36.54     0.250 C 
HETATM   20  C15   D T1001      10.224  13.281 -14.602  1.00 37.02     0.037 C 
ENDBRANCH  18  19
BRANCH  18  21
HETATM   21  C16   D T1001      13.335  13.069 -16.469  1.00 33.74     0.250 C 
HETATM   22  C17   D T1001      13.667  11.694 -15.991  1.00 35.69     0.037 C 
ENDBRANCH  18  21
ENDBRANCH  17  18
ENDBRANCH  16  17
ENDBRANCH  15  16
ENDBRANCH  13  15
ENDBRANCH  12  13
ENDBRANCH   5  12
TORSDOF 8
ENDMDL
