MODEL 1
REMARK VINA RESULT:    -5.621      0.000      0.000
REMARK INTER + INTRA:          -9.459
REMARK INTER:                  -8.250
REMARK INTRA:                  -1.208
REMARK UNBOUND:                -1.208
REMARK  8 active torsions:
REMARK  status: ('A' for Active; 'I' for Inactive)
REMARK    1  A    between atoms: C3_5  and  N2_12 
REMARK    2  A    between atoms: N2_12  and  C10_13 
REMARK    3  A    between atoms: C10_13  and  C11_14 
REMARK    4  A    between atoms: C11_14  and  C12_15 
REMARK    5  A    between atoms: C12_15  and  C13_16 
REMARK    6  A    between atoms: C13_16  and  N3_17 
REMARK    7  A    between atoms: N3_17  and  C14_18 
REMARK    8  A    between atoms: N3_17  and  C16_20 
ROOT
HETATM    1 CL     D T1001      13.759  13.686 -12.066  1.00 22.69    -0.082 Cl
HETATM    2  N1    D T1001      11.745   9.479 -14.242  1.00 34.43    -0.244 NA
HETATM    3  C1    D T1001      11.354   8.188 -14.255  1.00 35.26     0.101 A 
HETATM    4  C2    D T1001      11.512   7.367 -13.146  1.00 34.24     0.039 A 
HETATM    5  C3    D T1001      12.138   7.857 -11.919  1.00 31.96     0.079 A 
HETATM    6  C4    D T1001      12.581   9.267 -11.896  1.00 33.68     0.035 A 
HETATM    7  C5    D T1001      13.209   9.936 -10.758  1.00 34.90     0.004 A 
HETATM    8  C6    D T1001      13.582  11.287 -10.816  1.00 32.93     0.012 A 
HETATM    9  C7    D T1001      13.330  12.025 -12.019  1.00 31.88     0.059 A 
HETATM   10  C8    D T1001      12.729  11.436 -13.142  1.00 32.37     0.031 A 
HETATM   11  C9    D T1001      12.348  10.067 -13.101  1.00 35.42     0.084 A 
ENDROOT
BRANCH   5  12
HETATM   12  N2    D T1001      12.310   7.070 -10.812  1.00 30.60    -0.273 NA
BRANCH  12  13
HETATM   13  C10   D T1001      13.485   6.194 -10.481  1.00 29.84     0.103 C 
HETATM   14  C18   D T1001      13.208   4.759 -10.905  1.00 30.59     0.026 C 
BRANCH  13  15
HETATM   15  C11   D T1001      13.821   6.328  -8.988  1.00 31.56     0.026 C 
BRANCH  15  16
HETATM   16  C12   D T1001      15.212   6.829  -8.644  1.00 32.62     0.037 C 
BRANCH  16  17
HETATM   17  C13   D T1001      15.404   6.803  -7.136  1.00 31.65     0.250 C 
BRANCH  17  18
HETATM   18  N3    D T1001      15.780   8.136  -6.552  1.00 36.76     0.137 N 
BRANCH  18  19
HETATM   19  C14   D T1001      15.486   9.309  -7.513  1.00 36.54     0.250 C 
HETATM   20  C15   D T1001      14.297  10.210  -7.200  1.00 37.02     0.037 C 
ENDBRANCH  18  19
BRANCH  18  21
HETATM   21  C16   D T1001      15.351   8.300  -5.121  1.00 33.74     0.250 C 
HETATM   22  C17   D T1001      14.395   7.267  -4.622  1.00 35.69     0.037 C 
ENDBRANCH  18  21
ENDBRANCH  17  18
ENDBRANCH  16  17
ENDBRANCH  15  16
ENDBRANCH  13  15
ENDBRANCH  12  13
ENDBRANCH   5  12
TORSDOF 8
ENDMDL
MODEL 2
REMARK VINA RESULT:    -5.311      2.697      4.424
REMARK INTER + INTRA:          -9.003
REMARK INTER:                  -7.767
REMARK INTRA:                  -1.236
REMARK UNBOUND:                -1.208
REMARK  8 active torsions:
REMARK  status: ('A' for Active; 'I' for Inactive)
REMARK    1  A    between atoms: C3_5  and  N2_12 
REMARK    2  A    between atoms: N2_12  and  C10_13 
REMARK    3  A    between atoms: C10_13  and  C11_14 
REMARK    4  A    between atoms: C11_14  and  C12_15 
REMARK    5  A    between atoms: C12_15  and  C13_16 
REMARK    6  A    between atoms: C13_16  and  N3_17 
REMARK    7  A    between atoms: N3_17  and  C14_18 
REMARK    8  A    between atoms: N3_17  and  C16_20 
ROOT
HETATM    1 CL     D T1001      11.306   6.957 -13.471  1.00 22.69    -0.082 Cl
HETATM    2  N1    D T1001      12.936   9.800  -9.502  1.00 34.43    -0.244 NA
HETATM    3  C1    D T1001      13.601  10.002  -8.346  1.00 35.26     0.101 A 
HETATM    4  C2    D T1001      14.291   8.977  -7.713  1.00 34.24     0.039 A 
HETATM    5  C3    D T1001      14.303   7.620  -8.255  1.00 31.96     0.079 A 
HETATM    6  C4    D T1001      13.568   7.382  -9.516  1.00 33.68     0.035 A 
HETATM    7  C5    D T1001      13.482   6.101 -10.215  1.00 34.90     0.004 A 
HETATM    8  C6    D T1001      12.777   5.969 -11.420  1.00 32.93     0.012 A 
HETATM    9  C7    D T1001      12.137   7.123 -11.978  1.00 31.88     0.059 A 
HETATM   10  C8    D T1001      12.186   8.379 -11.354  1.00 32.37     0.031 A 
HETATM   11  C9    D T1001      12.894   8.529 -10.130  1.00 35.42     0.084 A 
ENDROOT
BRANCH   5  12
HETATM   12  N2    D T1001      14.971   6.588  -7.651  1.00 30.60    -0.273 NA
BRANCH  12  13
HETATM   13  C10   D T1001      14.412   5.556  -6.713  1.00 29.84     0.103 C 
HETATM   14  C18   D T1001      12.950   5.853  -6.413  1.00 30.59     0.026 C 
BRANCH  13  15
HETATM   15  C11   D T1001      15.285   5.484  -5.451  1.00 31.56     0.026 C 
BRANCH  15  16
HETATM   16  C12   D T1001      14.992   6.498  -4.361  1.00 32.62     0.037 C 
BRANCH  16  17
HETATM   17  C13   D T1001      16.230   7.345  -4.107  1.00 31.65     0.250 C 
BRANCH  17  18
HETATM   18  N3    D T1001      16.161   8.715  -4.722  1.00 36.76     0.137 N 
BRANCH  18  19
HETATM   19  C14   D T1001      15.731   9.799  -3.708  1.00 36.54     0.250 C 
HETATM   20  C15   D T1001      14.565  10.707  -4.083  1.00 37.02     0.037 C 
ENDBRANCH  18  19
BRANCH  18  21
HETATM   21  C16   D T1001      17.335   9.031  -5.605  1.00 33.74     0.250 C 
HETATM   22  C17   D T1001      18.064   7.842  -6.141  1.00 35.69     0.037 C 
ENDBRANCH  18  21
ENDBRANCH  17  18
ENDBRANCH  16  17
ENDBRANCH  15  16
ENDBRANCH  13  15
ENDBRANCH  12  13
ENDBRANCH   5  12
TORSDOF 8
ENDMDL
MODEL 3
REMARK VINA RESULT:    -5.112      2.729      4.781
REMARK INTER + INTRA:          -8.711
REMARK INTER:                  -7.478
REMARK INTRA:                  -1.233
REMARK UNBOUND:                -1.208
REMARK  8 active torsions:
REMARK  status: ('A' for Active; 'I' for Inactive)
REMARK    1  A    between atoms: C3_5  and  N2_12 
REMARK    2  A    between atoms: N2_12  and  C10_13 
REMARK    3  A    between atoms: C10_13  and  C11_14 
REMARK    4  A    between atoms: C11_14  and  C12_15 
REMARK    5  A    between atoms: C12_15  and  C13_16 
REMARK    6  A    between atoms: C13_16  and  N3_17 
REMARK    7  A    between atoms: N3_17  and  C14_18 
REMARK    8  A    between atoms: N3_17  and  C16_20 
ROOT
HETATM    1 CL     D T1001      11.375   6.843 -13.695  1.00 22.69    -0.082 Cl
HETATM    2  N1    D T1001      13.687   5.704  -9.240  1.00 34.43    -0.244 NA
HETATM    3  C1    D T1001      14.221   6.003  -8.038  1.00 35.26     0.101 A 
HETATM    4  C2    D T1001      14.273   7.309  -7.569  1.00 34.24     0.039 A 
HETATM    5  C3    D T1001      13.777   8.426  -8.371  1.00 31.96     0.079 A 
HETATM    6  C4    D T1001      13.199   8.112  -9.695  1.00 33.68     0.035 A 
HETATM    7  C5    D T1001      12.640   9.091 -10.626  1.00 34.90     0.004 A 
HETATM    8  C6    D T1001      12.094   8.701 -11.857  1.00 32.93     0.012 A 
HETATM    9  C7    D T1001      12.078   7.310 -12.201  1.00 31.88     0.059 A 
HETATM   10  C8    D T1001      12.598   6.325 -11.346  1.00 32.37     0.031 A 
HETATM   11  C9    D T1001      13.159   6.703 -10.096  1.00 35.42     0.084 A 
ENDROOT
BRANCH   5  12
HETATM   12  N2    D T1001      13.818   9.724  -7.936  1.00 30.60    -0.273 NA
BRANCH  12  13
HETATM   13  C10   D T1001      15.023  10.611  -7.806  1.00 29.84     0.103 C 
HETATM   14  C18   D T1001      15.986  10.365  -8.958  1.00 30.59     0.026 C 
BRANCH  13  15
HETATM   15  C11   D T1001      15.667  10.403  -6.427  1.00 31.56     0.026 C 
BRANCH  15  16
HETATM   16  C12   D T1001      14.723  10.277  -5.245  1.00 32.62     0.037 C 
BRANCH  16  17
HETATM   17  C13   D T1001      15.431   9.571  -4.100  1.00 31.65     0.250 C 
BRANCH  17  18
HETATM   18  N3    D T1001      15.561   8.086  -4.294  1.00 36.76     0.137 N 
BRANCH  18  19
HETATM   19  C14   D T1001      17.029   7.638  -4.473  1.00 36.54     0.250 C 
HETATM   20  C15   D T1001      17.344   6.647  -5.589  1.00 37.02     0.037 C 
ENDBRANCH  18  19
BRANCH  18  21
HETATM   21  C16   D T1001      14.711   7.286  -3.348  1.00 33.74     0.250 C 
HETATM   22  C17   D T1001      13.561   6.572  -3.978  1.00 35.69     0.037 C 
ENDBRANCH  18  21
ENDBRANCH  17  18
ENDBRANCH  16  17
ENDBRANCH  15  16
ENDBRANCH  13  15
ENDBRANCH  12  13
ENDBRANCH   5  12
TORSDOF 8
ENDMDL
MODEL 4
REMARK VINA RESULT:    -5.006      2.777      7.386
REMARK INTER + INTRA:          -8.555
REMARK INTER:                  -7.543
REMARK INTRA:                  -1.012
REMARK UNBOUND:                -1.208
REMARK  8 active torsions:
REMARK  status: ('A' for Active; 'I' for Inactive)
REMARK    1  A    between atoms: C3_5  and  N2_12 
REMARK    2  A    between atoms: N2_12  and  C10_13 
REMARK    3  A    between atoms: C10_13  and  C11_14 
REMARK    4  A    between atoms: C11_14  and  C12_15 
REMARK    5  A    between atoms: C12_15  and  C13_16 
REMARK    6  A    between atoms: C13_16  and  N3_17 
REMARK    7  A    between atoms: N3_17  and  C14_18 
REMARK    8  A    between atoms: N3_17  and  C16_20 
ROOT
HETATM    1 CL     D T1001      12.610   4.077 -11.496  1.00 22.69    -0.082 Cl
HETATM    2  N1    D T1001      14.236   7.280  -7.810  1.00 34.43    -0.244 NA
HETATM    3  C1    D T1001      14.451   8.496  -7.267  1.00 35.26     0.101 A 
HETATM    4  C2    D T1001      14.118   9.665  -7.939  1.00 34.24     0.039 A 
HETATM    5  C3    D T1001      13.544   9.632  -9.283  1.00 31.96     0.079 A 
HETATM    6  C4    D T1001      13.312   8.306  -9.894  1.00 33.68     0.035 A 
HETATM    7  C5    D T1001      12.734   8.074 -11.216  1.00 34.90     0.004 A 
HETATM    8  C6    D T1001      12.531   6.778 -11.711  1.00 32.93     0.012 A 
HETATM    9  C7    D T1001      12.895   5.659 -10.894  1.00 31.88     0.059 A 
HETATM   10  C8    D T1001      13.453   5.819  -9.616  1.00 32.37     0.031 A 
HETATM   11  C9    D T1001      13.667   7.126  -9.100  1.00 35.42     0.084 A 
ENDROOT
BRANCH   5  12
HETATM   12  N2    D T1001      13.208  10.767  -9.971  1.00 30.60    -0.273 NA
BRANCH  12  13
HETATM   13  C10   D T1001      13.950  11.401 -11.113  1.00 29.84     0.103 C 
HETATM   14  C18   D T1001      15.284  11.954 -10.634  1.00 30.59     0.026 C 
BRANCH  13  15
HETATM   15  C11   D T1001      13.060  12.463 -11.777  1.00 31.56     0.026 C 
BRANCH  15  16
HETATM   16  C12   D T1001      12.613  12.186 -13.200  1.00 32.62     0.037 C 
BRANCH  16  17
HETATM   17  C13   D T1001      13.475  11.086 -13.800  1.00 31.65     0.250 C 
BRANCH  17  18
HETATM   18  N3    D T1001      12.875  10.445 -15.020  1.00 36.76     0.137 N 
BRANCH  18  19
HETATM   19  C14   D T1001      11.389  10.070 -14.821  1.00 36.54     0.250 C 
HETATM   20  C15   D T1001      11.055   8.621 -14.483  1.00 37.02     0.037 C 
ENDBRANCH  18  19
BRANCH  18  21
HETATM   21  C16   D T1001      13.239  11.143 -16.300  1.00 33.74     0.250 C 
HETATM   22  C17   D T1001      13.765  10.254 -17.379  1.00 35.69     0.037 C 
ENDBRANCH  18  21
ENDBRANCH  17  18
ENDBRANCH  16  17
ENDBRANCH  15  16
ENDBRANCH  13  15
ENDBRANCH  12  13
ENDBRANCH   5  12
TORSDOF 8
ENDMDL
MODEL 5
REMARK VINA RESULT:    -4.879      2.369      4.040
REMARK INTER + INTRA:          -8.370
REMARK INTER:                  -7.297
REMARK INTRA:                  -1.073
REMARK UNBOUND:                -1.208
REMARK  8 active torsions:
REMARK  status: ('A' for Active; 'I' for Inactive)
REMARK    1  A    between atoms: C3_5  and  N2_12 
REMARK    2  A    between atoms: N2_12  and  C10_13 
REMARK    3  A    between atoms: C10_13  and  C11_14 
REMARK    4  A    between atoms: C11_14  and  C12_15 
REMARK    5  A    between atoms: C12_15  and  C13_16 
REMARK    6  A    between atoms: C13_16  and  N3_17 
REMARK    7  A    between atoms: N3_17  and  C14_18 
REMARK    8  A    between atoms: N3_17  and  C16_20 
ROOT
HETATM    1 CL     D T1001      11.084   5.793 -13.424  1.00 22.69    -0.082 Cl
HETATM    2  N1    D T1001      12.527  10.727 -13.166  1.00 34.43    -0.244 NA
HETATM    3  C1    D T1001      13.069  11.803 -12.559  1.00 35.26     0.101 A 
HETATM    4  C2    D T1001      13.566  11.736 -11.264  1.00 34.24     0.039 A 
HETATM    5  C3    D T1001      13.498  10.501 -10.486  1.00 31.96     0.079 A 
HETATM    6  C4    D T1001      12.896   9.317 -11.136  1.00 33.68     0.035 A 
HETATM    7  C5    D T1001      12.758   7.996 -10.524  1.00 34.90     0.004 A 
HETATM    8  C6    D T1001      12.190   6.921 -11.222  1.00 32.93     0.012 A 
HETATM    9  C7    D T1001      11.745   7.125 -12.569  1.00 31.88     0.059 A 
HETATM   10  C8    D T1001      11.854   8.370 -13.209  1.00 32.37     0.031 A 
HETATM   11  C9    D T1001      12.425   9.471 -12.514  1.00 35.42     0.084 A 
ENDROOT
BRANCH   5  12
HETATM   12  N2    D T1001      13.977  10.406  -9.207  1.00 30.60    -0.273 NA
BRANCH  12  13
HETATM   13  C10   D T1001      15.407  10.477  -8.754  1.00 29.84     0.103 C 
HETATM   14  C18   D T1001      16.171   9.247  -9.221  1.00 30.59     0.026 C 
BRANCH  13  15
HETATM   15  C11   D T1001      15.454  10.674  -7.231  1.00 31.56     0.026 C 
BRANCH  15  16
HETATM   16  C12   D T1001      14.733   9.640  -6.387  1.00 32.62     0.037 C 
BRANCH  16  17
HETATM   17  C13   D T1001      15.726   8.590  -5.910  1.00 31.65     0.250 C 
BRANCH  17  18
HETATM   18  N3    D T1001      15.328   7.182  -6.254  1.00 36.76     0.137 N 
BRANCH  18  19
HETATM   19  C14   D T1001      14.019   7.119  -7.072  1.00 36.54     0.250 C 
HETATM   20  C15   D T1001      13.639   5.789  -7.713  1.00 37.02     0.037 C 
ENDBRANCH  18  19
BRANCH  18  21
HETATM   21  C16   D T1001      16.476   6.340  -6.735  1.00 33.74     0.250 C 
HETATM   22  C17   D T1001      16.634   5.027  -6.041  1.00 35.69     0.037 C 
ENDBRANCH  18  21
ENDBRANCH  17  18
ENDBRANCH  16  17
ENDBRANCH  15  16
ENDBRANCH  13  15
ENDBRANCH  12  13
ENDBRANCH   5  12
TORSDOF 8
ENDMDL
MODEL 6
REMARK VINA RESULT:    -4.740      2.900      5.283
REMARK INTER + INTRA:          -8.165
REMARK INTER:                  -6.788
REMARK INTRA:                  -1.377
REMARK UNBOUND:                -1.208
REMARK  8 active torsions:
REMARK  status: ('A' for Active; 'I' for Inactive)
REMARK    1  A    between atoms: C3_5  and  N2_12 
REMARK    2  A    between atoms: N2_12  and  C10_13 
REMARK    3  A    between atoms: C10_13  and  C11_14 
REMARK    4  A    between atoms: C11_14  and  C12_15 
REMARK    5  A    between atoms: C12_15  and  C13_16 
REMARK    6  A    between atoms: C13_16  and  N3_17 
REMARK    7  A    between atoms: N3_17  and  C14_18 
REMARK    8  A    between atoms: N3_17  and  C16_20 
ROOT
HETATM    1 CL     D T1001      12.580   4.512 -11.744  1.00 22.69    -0.082 Cl
HETATM    2  N1    D T1001      12.896   9.497 -10.502  1.00 34.43    -0.244 NA
HETATM    3  C1    D T1001      13.294  10.534  -9.737  1.00 35.26     0.101 A 
HETATM    4  C2    D T1001      14.046  10.345  -8.585  1.00 34.24     0.039 A 
HETATM    5  C3    D T1001      14.417   9.006  -8.130  1.00 31.96     0.079 A 
HETATM    6  C4    D T1001      13.978   7.859  -8.954  1.00 33.68     0.035 A 
HETATM    7  C5    D T1001      14.268   6.455  -8.670  1.00 34.90     0.004 A 
HETATM    8  C6    D T1001      13.827   5.429  -9.519  1.00 32.93     0.012 A 
HETATM    9  C7    D T1001      13.084   5.774 -10.695  1.00 31.88     0.059 A 
HETATM   10  C8    D T1001      12.777   7.104 -11.021  1.00 32.37     0.031 A 
HETATM   11  C9    D T1001      13.214   8.155 -10.169  1.00 35.42     0.084 A 
ENDROOT
BRANCH   5  12
HETATM   12  N2    D T1001      15.154   8.787  -6.997  1.00 30.60    -0.273 NA
BRANCH  12  13
HETATM   13  C10   D T1001      15.480   9.771  -5.910  1.00 29.84     0.103 C 
HETATM   14  C18   D T1001      16.944   9.653  -5.512  1.00 30.59     0.026 C 
BRANCH  13  15
HETATM   15  C11   D T1001      14.516   9.569  -4.731  1.00 31.56     0.026 C 
BRANCH  15  16
HETATM   16  C12   D T1001      15.094   8.941  -3.476  1.00 32.62     0.037 C 
BRANCH  16  17
HETATM   17  C13   D T1001      14.433   7.594  -3.229  1.00 31.65     0.250 C 
BRANCH  17  18
HETATM   18  N3    D T1001      14.558   6.639  -4.382  1.00 36.76     0.137 N 
BRANCH  18  19
HETATM   19  C14   D T1001      16.009   6.150  -4.592  1.00 36.54     0.250 C 
HETATM   20  C15   D T1001      16.302   5.281  -5.811  1.00 37.02     0.037 C 
ENDBRANCH  18  19
BRANCH  18  21
HETATM   21  C16   D T1001      13.474   5.599  -4.414  1.00 33.74     0.250 C 
HETATM   22  C17   D T1001      12.611   5.620  -5.633  1.00 35.69     0.037 C 
ENDBRANCH  18  21
ENDBRANCH  17  18
ENDBRANCH  16  17
ENDBRANCH  15  16
ENDBRANCH  13  15
ENDBRANCH  12  13
ENDBRANCH   5  12
TORSDOF 8
ENDMDL
MODEL 7
REMARK VINA RESULT:    -4.727      2.994      5.287
REMARK INTER + INTRA:          -8.147
REMARK INTER:                  -6.698
REMARK INTRA:                  -1.448
REMARK UNBOUND:                -1.208
REMARK  8 active torsions:
REMARK  status: ('A' for Active; 'I' for Inactive)
REMARK    1  A    between atoms: C3_5  and  N2_12 
REMARK    2  A    between atoms: N2_12  and  C10_13 
REMARK    3  A    between atoms: C10_13  and  C11_14 
REMARK    4  A    between atoms: C11_14  and  C12_15 
REMARK    5  A    between atoms: C12_15  and  C13_16 
REMARK    6  A    between atoms: C13_16  and  N3_17 
REMARK    7  A    between atoms: N3_17  and  C14_18 
REMARK    8  A    between atoms: N3_17  and  C16_20 
ROOT
HETATM    1 CL     D T1001      11.933   7.006 -12.350  1.00 22.69    -0.082 Cl
HETATM    2  N1    D T1001      13.447  10.141  -8.560  1.00 34.43    -0.244 NA
HETATM    3  C1    D T1001      14.075  10.430  -7.401  1.00 35.26     0.101 A 
HETATM    4  C2    D T1001      14.736   9.454  -6.667  1.00 34.24     0.039 A 
HETATM    5  C3    D T1001      14.757   8.059  -7.102  1.00 31.96     0.079 A 
HETATM    6  C4    D T1001      14.064   7.727  -8.365  1.00 33.68     0.035 A 
HETATM    7  C5    D T1001      13.992   6.396  -8.965  1.00 34.90     0.004 A 
HETATM    8  C6    D T1001      13.328   6.174 -10.179  1.00 32.93     0.012 A 
HETATM    9  C7    D T1001      12.714   7.284 -10.847  1.00 31.88     0.059 A 
HETATM   10  C8    D T1001      12.751   8.585 -10.320  1.00 32.37     0.031 A 
HETATM   11  C9    D T1001      13.418   8.826  -9.088  1.00 35.42     0.084 A 
ENDROOT
BRANCH   5  12
HETATM   12  N2    D T1001      15.397   7.074  -6.397  1.00 30.60    -0.273 NA
BRANCH  12  13
HETATM   13  C10   D T1001      16.867   6.769  -6.376  1.00 29.84     0.103 C 
HETATM   14  C18   D T1001      17.103   5.288  -6.632  1.00 30.59     0.026 C 
BRANCH  13  15
HETATM   15  C11   D T1001      17.473   7.256  -5.051  1.00 31.56     0.026 C 
BRANCH  15  16
HETATM   16  C12   D T1001      18.204   8.585  -5.083  1.00 32.62     0.037 C 
BRANCH  16  17
HETATM   17  C13   D T1001      19.082   8.655  -6.323  1.00 31.65     0.250 C 
BRANCH  17  18
HETATM   18  N3    D T1001      19.002   9.970  -7.047  1.00 36.76     0.137 N 
BRANCH  18  19
HETATM   19  C14   D T1001      18.902   9.798  -8.579  1.00 36.54     0.250 C 
HETATM   20  C15   D T1001      17.527   9.523  -9.180  1.00 37.02     0.037 C 
ENDBRANCH  18  19
BRANCH  18  21
HETATM   21  C16   D T1001      18.057  10.946  -6.404  1.00 33.74     0.250 C 
HETATM   22  C17   D T1001      18.682  12.220  -5.938  1.00 35.69     0.037 C 
ENDBRANCH  18  21
ENDBRANCH  17  18
ENDBRANCH  16  17
ENDBRANCH  15  16
ENDBRANCH  13  15
ENDBRANCH  12  13
ENDBRANCH   5  12
TORSDOF 8
ENDMDL
MODEL 8
REMARK VINA RESULT:    -4.643      3.194      6.475
REMARK INTER + INTRA:          -8.022
REMARK INTER:                  -6.513
REMARK INTRA:                  -1.509
REMARK UNBOUND:                -1.208
REMARK  8 active torsions:
REMARK  status: ('A' for Active; 'I' for Inactive)
REMARK    1  A    between atoms: C3_5  and  N2_12 
REMARK    2  A    between atoms: N2_12  and  C10_13 
REMARK    3  A    between atoms: C10_13  and  C11_14 
REMARK    4  A    between atoms: C11_14  and  C12_15 
REMARK    5  A    between atoms: C12_15  and  C13_16 
REMARK    6  A    between atoms: C13_16  and  N3_17 
REMARK    7  A    between atoms: N3_17  and  C14_18 
REMARK    8  A    between atoms: N3_17  and  C16_20 
ROOT
HETATM    1 CL     D T1001      13.596   7.625  -7.908  1.00 22.69    -0.082 Cl
HETATM    2  N1    D T1001      11.700   7.254 -12.678  1.00 34.43    -0.244 NA
HETATM    3  C1    D T1001      11.396   7.728 -13.904  1.00 35.26     0.101 A 
HETATM    4  C2    D T1001      11.664   9.042 -14.264  1.00 34.24     0.039 A 
HETATM    5  C3    D T1001      12.262   9.983 -13.320  1.00 31.96     0.079 A 
HETATM    6  C4    D T1001      12.591   9.479 -11.969  1.00 33.68     0.035 A 
HETATM    7  C5    D T1001      13.207  10.264 -10.901  1.00 34.90     0.004 A 
HETATM    8  C6    D T1001      13.502   9.698  -9.652  1.00 32.93     0.012 A 
HETATM    9  C7    D T1001      13.198   8.315  -9.428  1.00 31.88     0.059 A 
HETATM   10  C8    D T1001      12.609   7.511 -10.416  1.00 32.37     0.031 A 
HETATM   11  C9    D T1001      12.300   8.070 -11.687  1.00 35.42     0.084 A 
ENDROOT
BRANCH   5  12
HETATM   12  N2    D T1001      12.535  11.285 -13.645  1.00 30.60    -0.273 NA
BRANCH  12  13
HETATM   13  C10   D T1001      11.617  12.280 -14.296  1.00 29.84     0.103 C 
HETATM   14  C18   D T1001      12.051  12.537 -15.732  1.00 30.59     0.026 C 
BRANCH  13  15
HETATM   15  C11   D T1001      11.559  13.558 -13.446  1.00 31.56     0.026 C 
BRANCH  15  16
HETATM   16  C12   D T1001      12.554  13.663 -12.304  1.00 32.62     0.037 C 
BRANCH  16  17
HETATM   17  C13   D T1001      13.615  14.698 -12.647  1.00 31.65     0.250 C 
BRANCH  17  18
HETATM   18  N3    D T1001      14.961  14.104 -12.955  1.00 36.76     0.137 N 
BRANCH  18  19
HETATM   19  C14   D T1001      15.293  12.892 -12.056  1.00 36.54     0.250 C 
HETATM   20  C15   D T1001      16.252  13.107 -10.890  1.00 37.02     0.037 C 
ENDBRANCH  18  19
BRANCH  18  21
HETATM   21  C16   D T1001      15.224  13.956 -14.427  1.00 33.74     0.250 C 
HETATM   22  C17   D T1001      15.730  12.616 -14.850  1.00 35.69     0.037 C 
ENDBRANCH  18  21
ENDBRANCH  17  18
ENDBRANCH  16  17
ENDBRANCH  15  16
ENDBRANCH  13  15
ENDBRANCH  12  13
ENDBRANCH   5  12
TORSDOF 8
ENDMDL
MODEL 9
REMARK VINA RESULT:    -4.570      2.466      4.540
REMARK INTER + INTRA:          -7.916
REMARK INTER:                  -7.012
REMARK INTRA:                  -0.904
REMARK UNBOUND:                -1.208
REMARK  8 active torsions:
REMARK  status: ('A' for Active; 'I' for Inactive)
REMARK    1  A    between atoms: C3_5  and  N2_12 
REMARK    2  A    between atoms: N2_12  and  C10_13 
REMARK    3  A    between atoms: C10_13  and  C11_14 
REMARK    4  A    between atoms: C11_14  and  C12_15 
REMARK    5  A    between atoms: C12_15  and  C13_16 
REMARK    6  A    between atoms: C13_16  and  N3_17 
REMARK    7  A    between atoms: N3_17  and  C14_18 
REMARK    8  A    between atoms: N3_17  and  C16_20 
ROOT
HETATM    1 CL     D T1001      11.426   7.946 -14.206  1.00 22.69    -0.082 Cl
HETATM    2  N1    D T1001      13.085   5.423 -10.039  1.00 34.43    -0.244 NA
HETATM    3  C1    D T1001      13.570   5.340  -8.783  1.00 35.26     0.101 A 
HETATM    4  C2    D T1001      13.850   6.476  -8.033  1.00 34.24     0.039 A 
HETATM    5  C3    D T1001      13.661   7.816  -8.584  1.00 31.96     0.079 A 
HETATM    6  C4    D T1001      13.140   7.920  -9.964  1.00 33.68     0.035 A 
HETATM    7  C5    D T1001      12.871   9.170 -10.673  1.00 34.90     0.004 A 
HETATM    8  C6    D T1001      12.358   9.176 -11.978  1.00 32.93     0.012 A 
HETATM    9  C7    D T1001      12.086   7.926 -12.622  1.00 31.88     0.059 A 
HETATM   10  C8    D T1001      12.322   6.694 -11.991  1.00 32.37     0.031 A 
HETATM   11  C9    D T1001      12.845   6.670 -10.669  1.00 35.42     0.084 A 
ENDROOT
BRANCH   5  12
HETATM   12  N2    D T1001      13.931   8.954  -7.870  1.00 30.60    -0.273 NA
BRANCH  12  13
HETATM   13  C10   D T1001      15.036   9.173  -6.876  1.00 29.84     0.103 C 
HETATM   14  C18   D T1001      14.944  10.572  -6.285  1.00 30.59     0.026 C 
BRANCH  13  15
HETATM   15  C11   D T1001      16.390   8.887  -7.543  1.00 31.56     0.026 C 
BRANCH  15  16
HETATM   16  C12   D T1001      17.456   8.245  -6.675  1.00 32.62     0.037 C 
BRANCH  16  17
HETATM   17  C13   D T1001      16.907   6.973  -6.050  1.00 31.65     0.250 C 
BRANCH  17  18
HETATM   18  N3    D T1001      16.864   7.007  -4.548  1.00 36.76     0.137 N 
BRANCH  18  19
HETATM   19  C14   D T1001      15.442   7.264  -4.001  1.00 36.54     0.250 C 
HETATM   20  C15   D T1001      14.517   6.064  -3.820  1.00 37.02     0.037 C 
ENDBRANCH  18  19
BRANCH  18  21
HETATM   21  C16   D T1001      17.655   5.903  -3.905  1.00 33.74     0.250 C 
HETATM   22  C17   D T1001      18.244   4.909  -4.852  1.00 35.69     0.037 C 
ENDBRANCH  18  21
ENDBRANCH  17  18
ENDBRANCH  16  17
ENDBRANCH  15  16
ENDBRANCH  13  15
ENDBRANCH  12  13
ENDBRANCH   5  12
TORSDOF 8
ENDMDL
