MODEL 1
REMARK VINA RESULT:      -5.3      0.000      0.000
REMARK  8 active torsions:
REMARK  status: ('A' for Active; 'I' for Inactive)
REMARK    1  A    between atoms: C3_5  and  N2_12 
REMARK    2  A    between atoms: N2_12  and  C10_13 
REMARK    3  A    between atoms: C10_13  and  C11_14 
REMARK    4  A    between atoms: C11_14  and  C12_15 
REMARK    5  A    between atoms: C12_15  and  C13_16 
REMARK    6  A    between atoms: C13_16  and  N3_17 
REMARK    7  A    between atoms: N3_17  and  C14_18 
REMARK    8  A    between atoms: N3_17  and  C16_20 
ROOT
HETATM    1 CL     D T1001      11.532   4.201  -2.570  1.00 22.69    -0.082 Cl
HETATM    2  N1    D T1001      13.001   5.683  -7.276  1.00 34.43    -0.244 NA
HETATM    3  C1    D T1001      13.666   6.466  -8.150  1.00 35.26     0.101 A 
HETATM    4  C2    D T1001      14.442   7.536  -7.724  1.00 34.24     0.039 A 
HETATM    5  C3    D T1001      14.551   7.882  -6.307  1.00 31.96     0.079 A 
HETATM    6  C4    D T1001      13.817   7.038  -5.342  1.00 33.68     0.035 A 
HETATM    7  C5    D T1001      13.819   7.219  -3.890  1.00 34.90     0.004 A 
HETATM    8  C6    D T1001      13.107   6.357  -3.044  1.00 32.93     0.012 A 
HETATM    9  C7    D T1001      12.371   5.270  -3.619  1.00 31.88     0.059 A 
HETATM   10  C8    D T1001      12.334   5.046  -5.005  1.00 32.37     0.031 A 
HETATM   11  C9    D T1001      13.047   5.913  -5.877  1.00 35.42     0.084 A 
ENDROOT
BRANCH   5  12
HETATM   12  N2    D T1001      15.304   8.934  -5.859  1.00 30.60    -0.273 NA
BRANCH  12  13
HETATM   13  C10   D T1001      14.968  10.396  -5.918  1.00 29.84     0.103 C 
HETATM   14  C18   D T1001      14.556  10.899  -4.542  1.00 30.59     0.026 C 
BRANCH  13  15
HETATM   15  C11   D T1001      13.898  10.633  -6.994  1.00 31.56     0.026 C 
BRANCH  15  16
HETATM   16  C12   D T1001      14.392  11.082  -8.358  1.00 32.62     0.037 C 
BRANCH  16  17
HETATM   17  C13   D T1001      15.809  11.621  -8.234  1.00 31.65     0.250 C 
BRANCH  17  18
HETATM   18  N3    D T1001      16.586  11.577  -9.520  1.00 36.76     0.137 N 
BRANCH  18  19
HETATM   19  C14   D T1001      16.716  12.966 -10.183  1.00 36.54     0.250 C 
HETATM   20  C15   D T1001      15.916  13.231 -11.454  1.00 37.02     0.037 C 
ENDBRANCH  18  19
BRANCH  18  21
HETATM   21  C16   D T1001      17.832  10.741  -9.433  1.00 33.74     0.250 C 
HETATM   22  C17   D T1001      18.146  10.209  -8.074  1.00 35.69     0.037 C 
ENDBRANCH  18  21
ENDBRANCH  17  18
ENDBRANCH  16  17
ENDBRANCH  15  16
ENDBRANCH  13  15
ENDBRANCH  12  13
ENDBRANCH   5  12
TORSDOF 8
ENDMDL
MODEL 2
REMARK VINA RESULT:      -5.3      2.578      4.704
REMARK  8 active torsions:
REMARK  status: ('A' for Active; 'I' for Inactive)
REMARK    1  A    between atoms: C3_5  and  N2_12 
REMARK    2  A    between atoms: N2_12  and  C10_13 
REMARK    3  A    between atoms: C10_13  and  C11_14 
REMARK    4  A    between atoms: C11_14  and  C12_15 
REMARK    5  A    between atoms: C12_15  and  C13_16 
REMARK    6  A    between atoms: C13_16  and  N3_17 
REMARK    7  A    between atoms: N3_17  and  C14_18 
REMARK    8  A    between atoms: N3_17  and  C16_20 
ROOT
HETATM    1 CL     D T1001      18.649   5.196  -4.350  1.00 22.69    -0.082 Cl
HETATM    2  N1    D T1001      13.997   5.735  -6.489  1.00 34.43    -0.244 NA
HETATM    3  C1    D T1001      13.084   6.347  -7.269  1.00 35.26     0.101 A 
HETATM    4  C2    D T1001      13.383   7.512  -7.964  1.00 34.24     0.039 A 
HETATM    5  C3    D T1001      14.697   8.145  -7.859  1.00 31.96     0.079 A 
HETATM    6  C4    D T1001      15.702   7.490  -6.998  1.00 33.68     0.035 A 
HETATM    7  C5    D T1001      17.069   7.965  -6.782  1.00 34.90     0.004 A 
HETATM    8  C6    D T1001      17.965   7.268  -5.960  1.00 32.93     0.012 A 
HETATM    9  C7    D T1001      17.531   6.058  -5.327  1.00 31.88     0.059 A 
HETATM   10  C8    D T1001      16.231   5.553  -5.497  1.00 32.37     0.031 A 
HETATM   11  C9    D T1001      15.309   6.249  -6.325  1.00 35.42     0.084 A 
ENDROOT
BRANCH   5  12
HETATM   12  N2    D T1001      15.019   9.295  -8.529  1.00 30.60    -0.273 NA
BRANCH  12  13
HETATM   13  C10   D T1001      14.596  10.699  -8.202  1.00 29.84     0.103 C 
HETATM   14  C18   D T1001      15.609  11.696  -8.743  1.00 30.59     0.026 C 
BRANCH  13  15
HETATM   15  C11   D T1001      14.370  10.826  -6.688  1.00 31.56     0.026 C 
BRANCH  15  16
HETATM   16  C12   D T1001      15.476  11.490  -5.888  1.00 32.62     0.037 C 
BRANCH  16  17
HETATM   17  C13   D T1001      15.992  10.524  -4.834  1.00 31.65     0.250 C 
BRANCH  17  18
HETATM   18  N3    D T1001      15.485  10.813  -3.448  1.00 36.76     0.137 N 
BRANCH  18  19
HETATM   19  C14   D T1001      15.468  12.324  -3.125  1.00 36.54     0.250 C 
HETATM   20  C15   D T1001      14.163  12.935  -2.625  1.00 37.02     0.037 C 
ENDBRANCH  18  19
BRANCH  18  21
HETATM   21  C16   D T1001      14.259  10.022  -3.087  1.00 33.74     0.250 C 
HETATM   22  C17   D T1001      14.206   8.641  -3.650  1.00 35.69     0.037 C 
ENDBRANCH  18  21
ENDBRANCH  17  18
ENDBRANCH  16  17
ENDBRANCH  15  16
ENDBRANCH  13  15
ENDBRANCH  12  13
ENDBRANCH   5  12
TORSDOF 8
ENDMDL
MODEL 3
REMARK VINA RESULT:      -5.0      3.146      5.287
REMARK  8 active torsions:
REMARK  status: ('A' for Active; 'I' for Inactive)
REMARK    1  A    between atoms: C3_5  and  N2_12 
REMARK    2  A    between atoms: N2_12  and  C10_13 
REMARK    3  A    between atoms: C10_13  and  C11_14 
REMARK    4  A    between atoms: C11_14  and  C12_15 
REMARK    5  A    between atoms: C12_15  and  C13_16 
REMARK    6  A    between atoms: C13_16  and  N3_17 
REMARK    7  A    between atoms: N3_17  and  C14_18 
REMARK    8  A    between atoms: N3_17  and  C16_20 
ROOT
HETATM    1 CL     D T1001      16.298  13.037  -4.595  1.00 22.69    -0.082 Cl
HETATM    2  N1    D T1001      18.085   8.320  -5.622  1.00 34.43    -0.244 NA
HETATM    3  C1    D T1001      18.005   6.975  -5.667  1.00 35.26     0.101 A 
HETATM    4  C2    D T1001      16.881   6.297  -5.214  1.00 34.24     0.039 A 
HETATM    5  C3    D T1001      15.740   7.011  -4.641  1.00 31.96     0.079 A 
HETATM    6  C4    D T1001      15.822   8.485  -4.576  1.00 33.68     0.035 A 
HETATM    7  C5    D T1001      14.778   9.366  -4.053  1.00 34.90     0.004 A 
HETATM    8  C6    D T1001      14.932  10.760  -4.047  1.00 32.93     0.012 A 
HETATM    9  C7    D T1001      16.137  11.328  -4.576  1.00 31.88     0.059 A 
HETATM   10  C8    D T1001      17.172  10.532  -5.093  1.00 32.37     0.031 A 
HETATM   11  C9    D T1001      17.034   9.118  -5.103  1.00 35.42     0.084 A 
ENDROOT
BRANCH   5  12
HETATM   12  N2    D T1001      14.620   6.369  -4.183  1.00 30.60    -0.273 NA
BRANCH  12  13
HETATM   13  C10   D T1001      13.272   6.295  -4.839  1.00 29.84     0.103 C 
HETATM   14  C18   D T1001      12.210   5.901  -3.823  1.00 30.59     0.026 C 
BRANCH  13  15
HETATM   15  C11   D T1001      13.339   5.345  -6.044  1.00 31.56     0.026 C 
BRANCH  15  16
HETATM   16  C12   D T1001      13.665   5.971  -7.388  1.00 32.62     0.037 C 
BRANCH  16  17
HETATM   17  C13   D T1001      13.059   7.364  -7.461  1.00 31.65     0.250 C 
BRANCH  17  18
HETATM   18  N3    D T1001      14.075   8.456  -7.648  1.00 36.76     0.137 N 
BRANCH  18  19
HETATM   19  C14   D T1001      15.392   7.942  -8.270  1.00 36.54     0.250 C 
HETATM   20  C15   D T1001      16.425   8.973  -8.714  1.00 37.02     0.037 C 
ENDBRANCH  18  19
BRANCH  18  21
HETATM   21  C16   D T1001      13.493   9.717  -8.222  1.00 33.74     0.250 C 
HETATM   22  C17   D T1001      13.754  10.954  -7.430  1.00 35.69     0.037 C 
ENDBRANCH  18  21
ENDBRANCH  17  18
ENDBRANCH  16  17
ENDBRANCH  15  16
ENDBRANCH  13  15
ENDBRANCH  12  13
ENDBRANCH   5  12
TORSDOF 8
ENDMDL
MODEL 4
REMARK VINA RESULT:      -4.9      3.336      6.413
REMARK  8 active torsions:
REMARK  status: ('A' for Active; 'I' for Inactive)
REMARK    1  A    between atoms: C3_5  and  N2_12 
REMARK    2  A    between atoms: N2_12  and  C10_13 
REMARK    3  A    between atoms: C10_13  and  C11_14 
REMARK    4  A    between atoms: C11_14  and  C12_15 
REMARK    5  A    between atoms: C12_15  and  C13_16 
REMARK    6  A    between atoms: C13_16  and  N3_17 
REMARK    7  A    between atoms: N3_17  and  C14_18 
REMARK    8  A    between atoms: N3_17  and  C16_20 
ROOT
HETATM    1 CL     D T1001      15.570  11.985  -9.446  1.00 22.69    -0.082 Cl
HETATM    2  N1    D T1001      13.285   7.795  -7.517  1.00 34.43    -0.244 NA
HETATM    3  C1    D T1001      13.269   6.600  -6.891  1.00 35.26     0.101 A 
HETATM    4  C2    D T1001      14.438   5.994  -6.450  1.00 34.24     0.039 A 
HETATM    5  C3    D T1001      15.746   6.610  -6.670  1.00 31.96     0.079 A 
HETATM    6  C4    D T1001      15.776   7.913  -7.365  1.00 33.68     0.035 A 
HETATM    7  C5    D T1001      16.983   8.686  -7.659  1.00 34.90     0.004 A 
HETATM    8  C6    D T1001      16.919   9.926  -8.309  1.00 32.93     0.012 A 
HETATM    9  C7    D T1001      15.638  10.449  -8.682  1.00 31.88     0.059 A 
HETATM   10  C8    D T1001      14.445   9.754  -8.425  1.00 32.37     0.031 A 
HETATM   11  C9    D T1001      14.493   8.493  -7.770  1.00 35.42     0.084 A 
ENDROOT
BRANCH   5  12
HETATM   12  N2    D T1001      16.915   6.034  -6.250  1.00 30.60    -0.273 NA
BRANCH  12  13
HETATM   13  C10   D T1001      17.802   6.474  -5.121  1.00 29.84     0.103 C 
HETATM   14  C18   D T1001      19.244   6.579  -5.592  1.00 30.59     0.026 C 
BRANCH  13  15
HETATM   15  C11   D T1001      17.623   5.523  -3.928  1.00 31.56     0.026 C 
BRANCH  15  16
HETATM   16  C12   D T1001      16.719   6.002  -2.805  1.00 32.62     0.037 C 
BRANCH  16  17
HETATM   17  C13   D T1001      16.341   7.456  -3.041  1.00 31.65     0.250 C 
BRANCH  17  18
HETATM   18  N3    D T1001      14.869   7.727  -2.905  1.00 36.76     0.137 N 
BRANCH  18  19
HETATM   19  C14   D T1001      14.361   8.774  -3.922  1.00 36.54     0.250 C 
HETATM   20  C15   D T1001      15.331   9.861  -4.375  1.00 37.02     0.037 C 
ENDBRANCH  18  19
BRANCH  18  21
HETATM   21  C16   D T1001      14.047   6.479  -2.741  1.00 33.74     0.250 C 
HETATM   22  C17   D T1001      12.632   6.586  -3.204  1.00 35.69     0.037 C 
ENDBRANCH  18  21
ENDBRANCH  17  18
ENDBRANCH  16  17
ENDBRANCH  15  16
ENDBRANCH  13  15
ENDBRANCH  12  13
ENDBRANCH   5  12
TORSDOF 8
ENDMDL
MODEL 5
REMARK VINA RESULT:      -4.9     12.670     15.663
REMARK  8 active torsions:
REMARK  status: ('A' for Active; 'I' for Inactive)
REMARK    1  A    between atoms: C3_5  and  N2_12 
REMARK    2  A    between atoms: N2_12  and  C10_13 
REMARK    3  A    between atoms: C10_13  and  C11_14 
REMARK    4  A    between atoms: C11_14  and  C12_15 
REMARK    5  A    between atoms: C12_15  and  C13_16 
REMARK    6  A    between atoms: C13_16  and  N3_17 
REMARK    7  A    between atoms: N3_17  and  C14_18 
REMARK    8  A    between atoms: N3_17  and  C16_20 
ROOT
HETATM    1 CL     D T1001       5.654  14.157 -18.549  1.00 22.69    -0.082 Cl
HETATM    2  N1    D T1001       5.919  10.059 -21.652  1.00 34.43    -0.244 NA
HETATM    3  C1    D T1001       6.567   9.141 -22.399  1.00 35.26     0.101 A 
HETATM    4  C2    D T1001       7.949   9.154 -22.531  1.00 34.24     0.039 A 
HETATM    5  C3    D T1001       8.766  10.184 -21.889  1.00 31.96     0.079 A 
HETATM    6  C4    D T1001       8.066  11.201 -21.078  1.00 33.68     0.035 A 
HETATM    7  C5    D T1001       8.713  12.293 -20.351  1.00 34.90     0.004 A 
HETATM    8  C6    D T1001       7.971  13.206 -19.588  1.00 32.93     0.012 A 
HETATM    9  C7    D T1001       6.548  13.054 -19.514  1.00 31.88     0.059 A 
HETATM   10  C8    D T1001       5.872  12.025 -20.189  1.00 32.37     0.031 A 
HETATM   11  C9    D T1001       6.609  11.093 -20.970  1.00 35.42     0.084 A 
ENDROOT
BRANCH   5  12
HETATM   12  N2    D T1001      10.130  10.224 -22.006  1.00 30.60    -0.273 NA
BRANCH  12  13
HETATM   13  C10   D T1001      11.147   9.574 -21.113  1.00 29.84     0.103 C 
HETATM   14  C18   D T1001      12.152  10.604 -20.619  1.00 30.59     0.026 C 
BRANCH  13  15
HETATM   15  C11   D T1001      11.802   8.398 -21.853  1.00 31.56     0.026 C 
BRANCH  15  16
HETATM   16  C12   D T1001      12.111   7.162 -21.027  1.00 32.62     0.037 C 
BRANCH  16  17
HETATM   17  C13   D T1001      13.613   7.059 -20.808  1.00 31.65     0.250 C 
BRANCH  17  18
HETATM   18  N3    D T1001      14.006   6.946 -19.361  1.00 36.76     0.137 N 
BRANCH  18  19
HETATM   19  C14   D T1001      14.905   5.720 -19.085  1.00 36.54     0.250 C 
HETATM   20  C15   D T1001      15.018   5.224 -17.647  1.00 37.02     0.037 C 
ENDBRANCH  18  19
BRANCH  18  21
HETATM   21  C16   D T1001      14.428   8.255 -18.755  1.00 33.74     0.250 C 
HETATM   22  C17   D T1001      15.771   8.748 -19.183  1.00 35.69     0.037 C 
ENDBRANCH  18  21
ENDBRANCH  17  18
ENDBRANCH  16  17
ENDBRANCH  15  16
ENDBRANCH  13  15
ENDBRANCH  12  13
ENDBRANCH   5  12
TORSDOF 8
ENDMDL
MODEL 6
REMARK VINA RESULT:      -4.8      3.332      6.872
REMARK  8 active torsions:
REMARK  status: ('A' for Active; 'I' for Inactive)
REMARK    1  A    between atoms: C3_5  and  N2_12 
REMARK    2  A    between atoms: N2_12  and  C10_13 
REMARK    3  A    between atoms: C10_13  and  C11_14 
REMARK    4  A    between atoms: C11_14  and  C12_15 
REMARK    5  A    between atoms: C12_15  and  C13_16 
REMARK    6  A    between atoms: C13_16  and  N3_17 
REMARK    7  A    between atoms: N3_17  and  C14_18 
REMARK    8  A    between atoms: N3_17  and  C16_20 
ROOT
HETATM    1 CL     D T1001      16.212  12.220 -10.647  1.00 22.69    -0.082 Cl
HETATM    2  N1    D T1001      14.627  10.974  -5.911  1.00 34.43    -0.244 NA
HETATM    3  C1    D T1001      14.743  10.367  -4.712  1.00 35.26     0.101 A 
HETATM    4  C2    D T1001      15.845   9.582  -4.398  1.00 34.24     0.039 A 
HETATM    5  C3    D T1001      16.919   9.354  -5.364  1.00 31.96     0.079 A 
HETATM    6  C4    D T1001      16.797  10.005  -6.684  1.00 33.68     0.035 A 
HETATM    7  C5    D T1001      17.774   9.907  -7.768  1.00 34.90     0.004 A 
HETATM    8  C6    D T1001      17.586  10.575  -8.987  1.00 32.93     0.012 A 
HETATM    9  C7    D T1001      16.413  11.379  -9.164  1.00 31.88     0.059 A 
HETATM   10  C8    D T1001      15.441  11.512  -8.159  1.00 32.37     0.031 A 
HETATM   11  C9    D T1001      15.615  10.838  -6.920  1.00 35.42     0.084 A 
ENDROOT
BRANCH   5  12
HETATM   12  N2    D T1001      18.015   8.582  -5.083  1.00 30.60    -0.273 NA
BRANCH  12  13
HETATM   13  C10   D T1001      18.081   7.086  -4.973  1.00 29.84     0.103 C 
HETATM   14  C18   D T1001      19.522   6.632  -4.796  1.00 30.59     0.026 C 
BRANCH  13  15
HETATM   15  C11   D T1001      17.392   6.451  -6.190  1.00 31.56     0.026 C 
BRANCH  15  16
HETATM   16  C12   D T1001      16.187   5.571  -5.908  1.00 32.62     0.037 C 
BRANCH  16  17
HETATM   17  C13   D T1001      14.921   6.412  -5.955  1.00 31.65     0.250 C 
BRANCH  17  18
HETATM   18  N3    D T1001      13.822   5.805  -6.783  1.00 36.76     0.137 N 
BRANCH  18  19
HETATM   19  C14   D T1001      12.675   5.234  -5.919  1.00 36.54     0.250 C 
HETATM   20  C15   D T1001      12.502   5.780  -4.506  1.00 37.02     0.037 C 
ENDBRANCH  18  19
BRANCH  18  21
HETATM   21  C16   D T1001      13.434   6.647  -7.966  1.00 33.74     0.250 C 
HETATM   22  C17   D T1001      14.518   7.519  -8.506  1.00 35.69     0.037 C 
ENDBRANCH  18  21
ENDBRANCH  17  18
ENDBRANCH  16  17
ENDBRANCH  15  16
ENDBRANCH  13  15
ENDBRANCH  12  13
ENDBRANCH   5  12
TORSDOF 8
ENDMDL
MODEL 7
REMARK VINA RESULT:      -4.8      2.256      3.558
REMARK  8 active torsions:
REMARK  status: ('A' for Active; 'I' for Inactive)
REMARK    1  A    between atoms: C3_5  and  N2_12 
REMARK    2  A    between atoms: N2_12  and  C10_13 
REMARK    3  A    between atoms: C10_13  and  C11_14 
REMARK    4  A    between atoms: C11_14  and  C12_15 
REMARK    5  A    between atoms: C12_15  and  C13_16 
REMARK    6  A    between atoms: C13_16  and  N3_17 
REMARK    7  A    between atoms: N3_17  and  C14_18 
REMARK    8  A    between atoms: N3_17  and  C16_20 
ROOT
HETATM    1 CL     D T1001      11.248   3.968  -2.791  1.00 22.69    -0.082 Cl
HETATM    2  N1    D T1001      12.904   5.641  -7.369  1.00 34.43    -0.244 NA
HETATM    3  C1    D T1001      13.629   6.438  -8.181  1.00 35.26     0.101 A 
HETATM    4  C2    D T1001      14.447   7.440  -7.677  1.00 34.24     0.039 A 
HETATM    5  C3    D T1001      14.539   7.697  -6.240  1.00 31.96     0.079 A 
HETATM    6  C4    D T1001      13.741   6.838  -5.342  1.00 33.68     0.035 A 
HETATM    7  C5    D T1001      13.716   6.934  -3.882  1.00 34.90     0.004 A 
HETATM    8  C6    D T1001      12.941   6.063  -3.104  1.00 32.93     0.012 A 
HETATM    9  C7    D T1001      12.165   5.051  -3.758  1.00 31.88     0.059 A 
HETATM   10  C8    D T1001      12.150   4.909  -5.155  1.00 32.37     0.031 A 
HETATM   11  C9    D T1001      12.927   5.787  -5.959  1.00 35.42     0.084 A 
ENDROOT
BRANCH   5  12
HETATM   12  N2    D T1001      15.334   8.680  -5.715  1.00 30.60    -0.273 NA
BRANCH  12  13
HETATM   13  C10   D T1001      16.832   8.692  -5.609  1.00 29.84     0.103 C 
HETATM   14  C18   D T1001      17.259   8.649  -4.149  1.00 30.59     0.026 C 
BRANCH  13  15
HETATM   15  C11   D T1001      17.391   9.904  -6.367  1.00 31.56     0.026 C 
BRANCH  15  16
HETATM   16  C12   D T1001      16.528  11.153  -6.385  1.00 32.62     0.037 C 
BRANCH  16  17
HETATM   17  C13   D T1001      17.138  12.207  -5.474  1.00 31.65     0.250 C 
BRANCH  17  18
HETATM   18  N3    D T1001      16.144  12.863  -4.557  1.00 36.76     0.137 N 
BRANCH  18  19
HETATM   19  C14   D T1001      15.687  11.932  -3.412  1.00 36.54     0.250 C 
HETATM   20  C15   D T1001      14.289  11.329  -3.494  1.00 37.02     0.037 C 
ENDBRANCH  18  19
BRANCH  18  21
HETATM   21  C16   D T1001      16.516  14.272  -4.187  1.00 33.74     0.250 C 
HETATM   22  C17   D T1001      17.625  14.395  -3.195  1.00 35.69     0.037 C 
ENDBRANCH  18  21
ENDBRANCH  17  18
ENDBRANCH  16  17
ENDBRANCH  15  16
ENDBRANCH  13  15
ENDBRANCH  12  13
ENDBRANCH   5  12
TORSDOF 8
ENDMDL
MODEL 8
REMARK VINA RESULT:      -4.7      2.921      7.244
REMARK  8 active torsions:
REMARK  status: ('A' for Active; 'I' for Inactive)
REMARK    1  A    between atoms: C3_5  and  N2_12 
REMARK    2  A    between atoms: N2_12  and  C10_13 
REMARK    3  A    between atoms: C10_13  and  C11_14 
REMARK    4  A    between atoms: C11_14  and  C12_15 
REMARK    5  A    between atoms: C12_15  and  C13_16 
REMARK    6  A    between atoms: C13_16  and  N3_17 
REMARK    7  A    between atoms: N3_17  and  C14_18 
REMARK    8  A    between atoms: N3_17  and  C16_20 
ROOT
HETATM    1 CL     D T1001      16.251  13.894  -3.639  1.00 22.69    -0.082 Cl
HETATM    2  N1    D T1001      17.813  11.426  -7.878  1.00 34.43    -0.244 NA
HETATM    3  C1    D T1001      17.742  10.459  -8.815  1.00 35.26     0.101 A 
HETATM    4  C2    D T1001      16.763   9.475  -8.773  1.00 34.24     0.039 A 
HETATM    5  C3    D T1001      15.778   9.425  -7.693  1.00 31.96     0.079 A 
HETATM    6  C4    D T1001      15.853  10.474  -6.655  1.00 33.68     0.035 A 
HETATM    7  C5    D T1001      14.948  10.597  -5.512  1.00 34.90     0.004 A 
HETATM    8  C6    D T1001      15.080  11.637  -4.582  1.00 32.93     0.012 A 
HETATM    9  C7    D T1001      16.121  12.605  -4.765  1.00 31.88     0.059 A 
HETATM   10  C8    D T1001      17.019  12.540  -5.844  1.00 32.37     0.031 A 
HETATM   11  C9    D T1001      16.900  11.489  -6.794  1.00 35.42     0.084 A 
ENDROOT
BRANCH   5  12
HETATM   12  N2    D T1001      14.804   8.465  -7.624  1.00 30.60    -0.273 NA
BRANCH  12  13
HETATM   13  C10   D T1001      14.740   7.288  -6.694  1.00 29.84     0.103 C 
HETATM   14  C18   D T1001      16.069   6.547  -6.686  1.00 30.59     0.026 C 
BRANCH  13  15
HETATM   15  C11   D T1001      13.552   6.394  -7.081  1.00 31.56     0.026 C 
BRANCH  15  16
HETATM   16  C12   D T1001      12.421   6.290  -6.072  1.00 32.62     0.037 C 
BRANCH  16  17
HETATM   17  C13   D T1001      12.890   5.497  -4.863  1.00 31.65     0.250 C 
BRANCH  17  18
HETATM   18  N3    D T1001      12.610   6.174  -3.550  1.00 36.76     0.137 N 
BRANCH  18  19
HETATM   19  C14   D T1001      11.628   5.373  -2.666  1.00 36.54     0.250 C 
HETATM   20  C15   D T1001      11.478   3.879  -2.934  1.00 37.02     0.037 C 
ENDBRANCH  18  19
BRANCH  18  21
HETATM   21  C16   D T1001      13.844   6.715  -2.885  1.00 33.74     0.250 C 
HETATM   22  C17   D T1001      14.032   8.191  -3.002  1.00 35.69     0.037 C 
ENDBRANCH  18  21
ENDBRANCH  17  18
ENDBRANCH  16  17
ENDBRANCH  15  16
ENDBRANCH  13  15
ENDBRANCH  12  13
ENDBRANCH   5  12
TORSDOF 8
ENDMDL
MODEL 9
REMARK VINA RESULT:      -4.7      3.349      5.613
REMARK  8 active torsions:
REMARK  status: ('A' for Active; 'I' for Inactive)
REMARK    1  A    between atoms: C3_5  and  N2_12 
REMARK    2  A    between atoms: N2_12  and  C10_13 
REMARK    3  A    between atoms: C10_13  and  C11_14 
REMARK    4  A    between atoms: C11_14  and  C12_15 
REMARK    5  A    between atoms: C12_15  and  C13_16 
REMARK    6  A    between atoms: C13_16  and  N3_17 
REMARK    7  A    between atoms: N3_17  and  C14_18 
REMARK    8  A    between atoms: N3_17  and  C16_20 
ROOT
HETATM    1 CL     D T1001      15.451  11.607  -9.180  1.00 22.69    -0.082 Cl
HETATM    2  N1    D T1001      12.957   7.411  -7.546  1.00 34.43    -0.244 NA
HETATM    3  C1    D T1001      12.865   6.221  -6.918  1.00 35.26     0.101 A 
HETATM    4  C2    D T1001      13.968   5.627  -6.319  1.00 34.24     0.039 A 
HETATM    5  C3    D T1001      15.289   6.252  -6.365  1.00 31.96     0.079 A 
HETATM    6  C4    D T1001      15.404   7.551  -7.060  1.00 33.68     0.035 A 
HETATM    7  C5    D T1001      16.634   8.331  -7.194  1.00 34.90     0.004 A 
HETATM    8  C6    D T1001      16.649   9.567  -7.856  1.00 32.93     0.012 A 
HETATM    9  C7    D T1001      15.426  10.077  -8.402  1.00 31.88     0.059 A 
HETATM   10  C8    D T1001      14.214   9.374  -8.303  1.00 32.37     0.031 A 
HETATM   11  C9    D T1001      14.183   8.118  -7.638  1.00 35.42     0.084 A 
ENDROOT
BRANCH   5  12
HETATM   12  N2    D T1001      16.394   5.688  -5.787  1.00 30.60    -0.273 NA
BRANCH  12  13
HETATM   13  C10   D T1001      17.083   6.107  -4.520  1.00 29.84     0.103 C 
HETATM   14  C18   D T1001      18.091   5.051  -4.091  1.00 30.59     0.026 C 
BRANCH  13  15
HETATM   15  C11   D T1001      16.033   6.413  -3.442  1.00 31.56     0.026 C 
BRANCH  15  16
HETATM   16  C12   D T1001      16.195   7.720  -2.686  1.00 32.62     0.037 C 
BRANCH  16  17
HETATM   17  C13   D T1001      15.501   8.838  -3.449  1.00 31.65     0.250 C 
BRANCH  17  18
HETATM   18  N3    D T1001      16.305  10.106  -3.528  1.00 36.76     0.137 N 
BRANCH  18  19
HETATM   19  C14   D T1001      17.738   9.867  -4.055  1.00 36.54     0.250 C 
HETATM   20  C15   D T1001      18.404  10.986  -4.850  1.00 37.02     0.037 C 
ENDBRANCH  18  19
BRANCH  18  21
HETATM   21  C16   D T1001      15.542  11.259  -4.118  1.00 33.74     0.250 C 
HETATM   22  C17   D T1001      14.365  10.879  -4.953  1.00 35.69     0.037 C 
ENDBRANCH  18  21
ENDBRANCH  17  18
ENDBRANCH  16  17
ENDBRANCH  15  16
ENDBRANCH  13  15
ENDBRANCH  12  13
ENDBRANCH   5  12
TORSDOF 8
ENDMDL
