MODEL 1
REMARK VINA RESULT:      -5.2      0.000      0.000
REMARK  8 active torsions:
REMARK  status: ('A' for Active; 'I' for Inactive)
REMARK    1  A    between atoms: C3_5  and  N2_12 
REMARK    2  A    between atoms: N2_12  and  C10_13 
REMARK    3  A    between atoms: C10_13  and  C11_14 
REMARK    4  A    between atoms: C11_14  and  C12_15 
REMARK    5  A    between atoms: C12_15  and  C13_16 
REMARK    6  A    between atoms: C13_16  and  N3_17 
REMARK    7  A    between atoms: N3_17  and  C14_18 
REMARK    8  A    between atoms: N3_17  and  C16_20 
ROOT
HETATM    1 CL     D T1001      11.493   3.942  -3.081  1.00 22.69    -0.082 Cl
HETATM    2  N1    D T1001      13.153   5.273  -7.768  1.00 34.43    -0.244 NA
HETATM    3  C1    D T1001      13.861   6.021  -8.637  1.00 35.26     0.101 A 
HETATM    4  C2    D T1001      14.637   7.093  -8.213  1.00 34.24     0.039 A 
HETATM    5  C3    D T1001      14.699   7.476  -6.803  1.00 31.96     0.079 A 
HETATM    6  C4    D T1001      13.919   6.669  -5.842  1.00 33.68     0.035 A 
HETATM    7  C5    D T1001      13.871   6.889  -4.397  1.00 34.90     0.004 A 
HETATM    8  C6    D T1001      13.116   6.061  -3.555  1.00 32.93     0.012 A 
HETATM    9  C7    D T1001      12.386   4.969  -4.127  1.00 31.88     0.059 A 
HETATM   10  C8    D T1001      12.395   4.708  -5.507  1.00 32.37     0.031 A 
HETATM   11  C9    D T1001      13.152   5.540  -6.376  1.00 35.42     0.084 A 
ENDROOT
BRANCH   5  12
HETATM   12  N2    D T1001      15.452   8.529  -6.356  1.00 30.60    -0.273 NA
BRANCH  12  13
HETATM   13  C10   D T1001      15.159   9.994  -6.502  1.00 29.84     0.103 C 
HETATM   14  C18   D T1001      14.607  10.555  -5.199  1.00 30.59     0.026 C 
BRANCH  13  15
HETATM   15  C11   D T1001      14.222  10.213  -7.699  1.00 31.56     0.026 C 
BRANCH  15  16
HETATM   16  C12   D T1001      14.830  10.851  -8.935  1.00 32.62     0.037 C 
BRANCH  16  17
HETATM   17  C13   D T1001      16.239  10.320  -9.141  1.00 31.65     0.250 C 
BRANCH  17  18
HETATM   18  N3    D T1001      17.244  11.387  -9.480  1.00 36.76     0.137 N 
BRANCH  18  19
HETATM   19  C14   D T1001      17.291  11.700 -10.992  1.00 36.54     0.250 C 
HETATM   20  C15   D T1001      18.546  11.309 -11.765  1.00 37.02     0.037 C 
ENDBRANCH  18  19
BRANCH  18  21
HETATM   21  C16   D T1001      17.204  12.560  -8.540  1.00 33.74     0.250 C 
HETATM   22  C17   D T1001      17.932  12.365  -7.251  1.00 35.69     0.037 C 
ENDBRANCH  18  21
ENDBRANCH  17  18
ENDBRANCH  16  17
ENDBRANCH  15  16
ENDBRANCH  13  15
ENDBRANCH  12  13
ENDBRANCH   5  12
TORSDOF 8
ENDMDL
MODEL 2
REMARK VINA RESULT:      -5.1      1.207      1.975
REMARK  8 active torsions:
REMARK  status: ('A' for Active; 'I' for Inactive)
REMARK    1  A    between atoms: C3_5  and  N2_12 
REMARK    2  A    between atoms: N2_12  and  C10_13 
REMARK    3  A    between atoms: C10_13  and  C11_14 
REMARK    4  A    between atoms: C11_14  and  C12_15 
REMARK    5  A    between atoms: C12_15  and  C13_16 
REMARK    6  A    between atoms: C13_16  and  N3_17 
REMARK    7  A    between atoms: N3_17  and  C14_18 
REMARK    8  A    between atoms: N3_17  and  C16_20 
ROOT
HETATM    1 CL     D T1001      11.786   4.123  -3.893  1.00 22.69    -0.082 Cl
HETATM    2  N1    D T1001      13.594   5.629  -8.470  1.00 34.43    -0.244 NA
HETATM    3  C1    D T1001      14.323   6.414  -9.289  1.00 35.26     0.101 A 
HETATM    4  C2    D T1001      15.069   7.480  -8.802  1.00 34.24     0.039 A 
HETATM    5  C3    D T1001      15.077   7.816  -7.379  1.00 31.96     0.079 A 
HETATM    6  C4    D T1001      14.273   6.969  -6.474  1.00 33.68     0.035 A 
HETATM    7  C5    D T1001      14.171   7.140  -5.025  1.00 34.90     0.004 A 
HETATM    8  C6    D T1001      13.397   6.276  -4.238  1.00 32.93     0.012 A 
HETATM    9  C7    D T1001      12.702   5.195  -4.872  1.00 31.88     0.059 A 
HETATM   10  C8    D T1001      12.764   4.980  -6.258  1.00 32.37     0.031 A 
HETATM   11  C9    D T1001      13.540   5.849  -7.072  1.00 35.42     0.084 A 
ENDROOT
BRANCH   5  12
HETATM   12  N2    D T1001      15.800   8.863  -6.871  1.00 30.60    -0.273 NA
BRANCH  12  13
HETATM   13  C10   D T1001      15.512  10.330  -7.008  1.00 29.84     0.103 C 
HETATM   14  C18   D T1001      14.029  10.556  -7.263  1.00 30.59     0.026 C 
BRANCH  13  15
HETATM   15  C11   D T1001      16.411  10.927  -8.102  1.00 31.56     0.026 C 
BRANCH  15  16
HETATM   16  C12   D T1001      15.756  11.219  -9.440  1.00 32.62     0.037 C 
BRANCH  16  17
HETATM   17  C13   D T1001      16.561  12.274 -10.182  1.00 31.65     0.250 C 
BRANCH  17  18
HETATM   18  N3    D T1001      17.200  11.768 -11.446  1.00 36.76     0.137 N 
BRANCH  18  19
HETATM   19  C14   D T1001      16.998  12.729 -12.638  1.00 36.54     0.250 C 
HETATM   20  C15   D T1001      16.041  12.304 -13.747  1.00 37.02     0.037 C 
ENDBRANCH  18  19
BRANCH  18  21
HETATM   21  C16   D T1001      18.584  11.222 -11.234  1.00 33.74     0.250 C 
HETATM   22  C17   D T1001      19.047  10.248 -12.267  1.00 35.69     0.037 C 
ENDBRANCH  18  21
ENDBRANCH  17  18
ENDBRANCH  16  17
ENDBRANCH  15  16
ENDBRANCH  13  15
ENDBRANCH  12  13
ENDBRANCH   5  12
TORSDOF 8
ENDMDL
MODEL 3
REMARK VINA RESULT:      -4.9      2.055      3.675
REMARK  8 active torsions:
REMARK  status: ('A' for Active; 'I' for Inactive)
REMARK    1  A    between atoms: C3_5  and  N2_12 
REMARK    2  A    between atoms: N2_12  and  C10_13 
REMARK    3  A    between atoms: C10_13  and  C11_14 
REMARK    4  A    between atoms: C11_14  and  C12_15 
REMARK    5  A    between atoms: C12_15  and  C13_16 
REMARK    6  A    between atoms: C13_16  and  N3_17 
REMARK    7  A    between atoms: N3_17  and  C14_18 
REMARK    8  A    between atoms: N3_17  and  C16_20 
ROOT
HETATM    1 CL     D T1001      11.479   4.822  -3.403  1.00 22.69    -0.082 Cl
HETATM    2  N1    D T1001      16.165   6.881  -3.937  1.00 34.43    -0.244 NA
HETATM    3  C1    D T1001      17.174   7.438  -4.638  1.00 35.26     0.101 A 
HETATM    4  C2    D T1001      17.082   7.644  -6.008  1.00 34.24     0.039 A 
HETATM    5  C3    D T1001      15.895   7.240  -6.760  1.00 31.96     0.079 A 
HETATM    6  C4    D T1001      14.787   6.619  -6.004  1.00 33.68     0.035 A 
HETATM    7  C5    D T1001      13.520   6.169  -6.579  1.00 34.90     0.004 A 
HETATM    8  C6    D T1001      12.514   5.605  -5.783  1.00 32.93     0.012 A 
HETATM    9  C7    D T1001      12.733   5.481  -4.372  1.00 31.88     0.059 A 
HETATM   10  C8    D T1001      13.928   5.897  -3.764  1.00 32.37     0.031 A 
HETATM   11  C9    D T1001      14.960   6.467  -4.557  1.00 35.42     0.084 A 
ENDROOT
BRANCH   5  12
HETATM   12  N2    D T1001      15.777   7.428  -8.112  1.00 30.60    -0.273 NA
BRANCH  12  13
HETATM   13  C10   D T1001      15.450   8.701  -8.837  1.00 29.84     0.103 C 
HETATM   14  C18   D T1001      16.693   9.569  -8.966  1.00 30.59     0.026 C 
BRANCH  13  15
HETATM   15  C11   D T1001      14.288   9.412  -8.126  1.00 31.56     0.026 C 
BRANCH  15  16
HETATM   16  C12   D T1001      14.642  10.630  -7.292  1.00 32.62     0.037 C 
BRANCH  16  17
HETATM   17  C13   D T1001      14.368  10.342  -5.825  1.00 31.65     0.250 C 
BRANCH  17  18
HETATM   18  N3    D T1001      15.520  10.673  -4.918  1.00 36.76     0.137 N 
BRANCH  18  19
HETATM   19  C14   D T1001      16.489  11.703  -5.540  1.00 36.54     0.250 C 
HETATM   20  C15   D T1001      17.959  11.319  -5.667  1.00 37.02     0.037 C 
ENDBRANCH  18  19
BRANCH  18  21
HETATM   21  C16   D T1001      15.106  10.898  -3.490  1.00 33.74     0.250 C 
HETATM   22  C17   D T1001      14.582  12.263  -3.190  1.00 35.69     0.037 C 
ENDBRANCH  18  21
ENDBRANCH  17  18
ENDBRANCH  16  17
ENDBRANCH  15  16
ENDBRANCH  13  15
ENDBRANCH  12  13
ENDBRANCH   5  12
TORSDOF 8
ENDMDL
MODEL 4
REMARK VINA RESULT:      -4.9      3.491      7.232
REMARK  8 active torsions:
REMARK  status: ('A' for Active; 'I' for Inactive)
REMARK    1  A    between atoms: C3_5  and  N2_12 
REMARK    2  A    between atoms: N2_12  and  C10_13 
REMARK    3  A    between atoms: C10_13  and  C11_14 
REMARK    4  A    between atoms: C11_14  and  C12_15 
REMARK    5  A    between atoms: C12_15  and  C13_16 
REMARK    6  A    between atoms: C13_16  and  N3_17 
REMARK    7  A    between atoms: N3_17  and  C14_18 
REMARK    8  A    between atoms: N3_17  and  C16_20 
ROOT
HETATM    1 CL     D T1001      16.885  12.196 -12.013  1.00 22.69    -0.082 Cl
HETATM    2  N1    D T1001      14.788  10.764  -7.536  1.00 34.43    -0.244 NA
HETATM    3  C1    D T1001      14.776  10.117  -6.352  1.00 35.26     0.101 A 
HETATM    4  C2    D T1001      15.848   9.337  -5.938  1.00 34.24     0.039 A 
HETATM    5  C3    D T1001      17.029   9.158  -6.781  1.00 31.96     0.079 A 
HETATM    6  C4    D T1001      17.049   9.853  -8.085  1.00 33.68     0.035 A 
HETATM    7  C5    D T1001      18.146   9.807  -9.051  1.00 34.90     0.004 A 
HETATM    8  C6    D T1001      18.088  10.513 -10.260  1.00 32.93     0.012 A 
HETATM    9  C7    D T1001      16.929  11.307 -10.545  1.00 31.88     0.059 A 
HETATM   10  C8    D T1001      15.846  11.391  -9.655  1.00 32.37     0.031 A 
HETATM   11  C9    D T1001      15.886  10.678  -8.427  1.00 35.42     0.084 A 
ENDROOT
BRANCH   5  12
HETATM   12  N2    D T1001      18.100   8.392  -6.400  1.00 30.60    -0.273 NA
BRANCH  12  13
HETATM   13  C10   D T1001      18.078   7.004  -5.830  1.00 29.84     0.103 C 
HETATM   14  C18   D T1001      19.493   6.538  -5.519  1.00 30.59     0.026 C 
BRANCH  13  15
HETATM   15  C11   D T1001      17.331   6.066  -6.791  1.00 31.56     0.026 C 
BRANCH  15  16
HETATM   16  C12   D T1001      16.254   5.185  -6.185  1.00 32.62     0.037 C 
BRANCH  16  17
HETATM   17  C13   D T1001      14.967   5.981  -6.039  1.00 31.65     0.250 C 
BRANCH  17  18
HETATM   18  N3    D T1001      13.882   5.557  -6.991  1.00 36.76     0.137 N 
BRANCH  18  19
HETATM   19  C14   D T1001      12.749   4.776  -6.290  1.00 36.54     0.250 C 
HETATM   20  C15   D T1001      12.529   5.016  -4.800  1.00 37.02     0.037 C 
ENDBRANCH  18  19
BRANCH  18  21
HETATM   21  C16   D T1001      13.474   6.643  -7.948  1.00 33.74     0.250 C 
HETATM   22  C17   D T1001      14.567   7.157  -8.826  1.00 35.69     0.037 C 
ENDBRANCH  18  21
ENDBRANCH  17  18
ENDBRANCH  16  17
ENDBRANCH  15  16
ENDBRANCH  13  15
ENDBRANCH  12  13
ENDBRANCH   5  12
TORSDOF 8
ENDMDL
MODEL 5
REMARK VINA RESULT:      -4.8     12.688     14.871
REMARK  8 active torsions:
REMARK  status: ('A' for Active; 'I' for Inactive)
REMARK    1  A    between atoms: C3_5  and  N2_12 
REMARK    2  A    between atoms: N2_12  and  C10_13 
REMARK    3  A    between atoms: C10_13  and  C11_14 
REMARK    4  A    between atoms: C11_14  and  C12_15 
REMARK    5  A    between atoms: C12_15  and  C13_16 
REMARK    6  A    between atoms: C13_16  and  N3_17 
REMARK    7  A    between atoms: N3_17  and  C14_18 
REMARK    8  A    between atoms: N3_17  and  C16_20 
ROOT
HETATM    1 CL     D T1001      16.811   4.955 -17.294  1.00 22.69    -0.082 Cl
HETATM    2  N1    D T1001      13.815   4.645 -21.467  1.00 34.43    -0.244 NA
HETATM    3  C1    D T1001      12.893   5.106 -22.336  1.00 35.26     0.101 A 
HETATM    4  C2    D T1001      12.287   6.345 -22.167  1.00 34.24     0.039 A 
HETATM    5  C3    D T1001      12.605   7.197 -21.022  1.00 31.96     0.079 A 
HETATM    6  C4    D T1001      13.607   6.697 -20.058  1.00 33.68     0.035 A 
HETATM    7  C5    D T1001      14.063   7.413 -18.867  1.00 34.90     0.004 A 
HETATM    8  C6    D T1001      15.034   6.871 -18.013  1.00 32.93     0.012 A 
HETATM    9  C7    D T1001      15.597   5.592 -18.327  1.00 31.88     0.059 A 
HETATM   10  C8    D T1001      15.201   4.859 -19.458  1.00 32.37     0.031 A 
HETATM   11  C9    D T1001      14.214   5.392 -20.331  1.00 35.42     0.084 A 
ENDROOT
BRANCH   5  12
HETATM   12  N2    D T1001      12.022   8.421 -20.828  1.00 30.60    -0.273 NA
BRANCH  12  13
HETATM   13  C10   D T1001      11.616   9.420 -21.872  1.00 29.84     0.103 C 
HETATM   14  C18   D T1001      12.393  10.717 -21.693  1.00 30.59     0.026 C 
BRANCH  13  15
HETATM   15  C11   D T1001      10.093   9.617 -21.828  1.00 31.56     0.026 C 
BRANCH  15  16
HETATM   16  C12   D T1001       9.590  10.900 -21.191  1.00 32.62     0.037 C 
BRANCH  16  17
HETATM   17  C13   D T1001       8.172  11.181 -21.663  1.00 31.65     0.250 C 
BRANCH  17  18
HETATM   18  N3    D T1001       7.173  11.291 -20.545  1.00 36.76     0.137 N 
BRANCH  18  19
HETATM   19  C14   D T1001       7.614  12.286 -19.449  1.00 36.54     0.250 C 
HETATM   20  C15   D T1001       6.608  13.334 -18.985  1.00 37.02     0.037 C 
ENDBRANCH  18  19
BRANCH  18  21
HETATM   21  C16   D T1001       5.751  11.390 -21.026  1.00 33.74     0.250 C 
HETATM   22  C17   D T1001       5.156  10.109 -21.510  1.00 35.69     0.037 C 
ENDBRANCH  18  21
ENDBRANCH  17  18
ENDBRANCH  16  17
ENDBRANCH  15  16
ENDBRANCH  13  15
ENDBRANCH  12  13
ENDBRANCH   5  12
TORSDOF 8
ENDMDL
MODEL 6
REMARK VINA RESULT:      -4.8      3.117      6.015
REMARK  8 active torsions:
REMARK  status: ('A' for Active; 'I' for Inactive)
REMARK    1  A    between atoms: C3_5  and  N2_12 
REMARK    2  A    between atoms: N2_12  and  C10_13 
REMARK    3  A    between atoms: C10_13  and  C11_14 
REMARK    4  A    between atoms: C11_14  and  C12_15 
REMARK    5  A    between atoms: C12_15  and  C13_16 
REMARK    6  A    between atoms: C13_16  and  N3_17 
REMARK    7  A    between atoms: N3_17  and  C14_18 
REMARK    8  A    between atoms: N3_17  and  C16_20 
ROOT
HETATM    1 CL     D T1001      20.393   7.042  -4.108  1.00 22.69    -0.082 Cl
HETATM    2  N1    D T1001      15.741   9.164  -3.520  1.00 34.43    -0.244 NA
HETATM    3  C1    D T1001      14.676   9.885  -3.925  1.00 35.26     0.101 A 
HETATM    4  C2    D T1001      14.632  10.479  -5.180  1.00 34.24     0.039 A 
HETATM    5  C3    D T1001      15.754  10.371  -6.112  1.00 31.96     0.079 A 
HETATM    6  C4    D T1001      16.931   9.592  -5.675  1.00 33.68     0.035 A 
HETATM    7  C5    D T1001      18.134   9.361  -6.473  1.00 34.90     0.004 A 
HETATM    8  C6    D T1001      19.200   8.592  -5.986  1.00 32.93     0.012 A 
HETATM    9  C7    D T1001      19.097   8.011  -4.680  1.00 31.88     0.059 A 
HETATM   10  C8    D T1001      17.965   8.197  -3.869  1.00 32.37     0.031 A 
HETATM   11  C9    D T1001      16.878   8.977  -4.346  1.00 35.42     0.084 A 
ENDROOT
BRANCH   5  12
HETATM   12  N2    D T1001      15.740  10.948  -7.354  1.00 30.60    -0.273 NA
BRANCH  12  13
HETATM   13  C10   D T1001      15.039  10.456  -8.587  1.00 29.84     0.103 C 
HETATM   14  C18   D T1001      13.538  10.383  -8.348  1.00 30.59     0.026 C 
BRANCH  13  15
HETATM   15  C11   D T1001      15.647   9.113  -9.021  1.00 31.56     0.026 C 
BRANCH  15  16
HETATM   16  C12   D T1001      14.814   7.871  -8.759  1.00 32.62     0.037 C 
BRANCH  16  17
HETATM   17  C13   D T1001      15.595   6.910  -7.877  1.00 31.65     0.250 C 
BRANCH  17  18
HETATM   18  N3    D T1001      14.786   6.330  -6.750  1.00 36.76     0.137 N 
BRANCH  18  19
HETATM   19  C14   D T1001      13.593   5.486  -7.248  1.00 36.54     0.250 C 
HETATM   20  C15   D T1001      12.703   4.818  -6.205  1.00 37.02     0.037 C 
ENDBRANCH  18  19
BRANCH  18  21
HETATM   21  C16   D T1001      15.632   5.742  -5.654  1.00 33.74     0.250 C 
HETATM   22  C17   D T1001      17.001   5.316  -6.070  1.00 35.69     0.037 C 
ENDBRANCH  18  21
ENDBRANCH  17  18
ENDBRANCH  16  17
ENDBRANCH  15  16
ENDBRANCH  13  15
ENDBRANCH  12  13
ENDBRANCH   5  12
TORSDOF 8
ENDMDL
MODEL 7
REMARK VINA RESULT:      -4.8      2.237      4.316
REMARK  8 active torsions:
REMARK  status: ('A' for Active; 'I' for Inactive)
REMARK    1  A    between atoms: C3_5  and  N2_12 
REMARK    2  A    between atoms: N2_12  and  C10_13 
REMARK    3  A    between atoms: C10_13  and  C11_14 
REMARK    4  A    between atoms: C11_14  and  C12_15 
REMARK    5  A    between atoms: C12_15  and  C13_16 
REMARK    6  A    between atoms: C13_16  and  N3_17 
REMARK    7  A    between atoms: N3_17  and  C14_18 
REMARK    8  A    between atoms: N3_17  and  C16_20 
ROOT
HETATM    1 CL     D T1001      12.391   4.263  -6.005  1.00 22.69    -0.082 Cl
HETATM    2  N1    D T1001      17.033   6.487  -5.941  1.00 34.43    -0.244 NA
HETATM    3  C1    D T1001      17.954   7.385  -6.344  1.00 35.26     0.101 A 
HETATM    4  C2    D T1001      17.679   8.314  -7.340  1.00 34.24     0.039 A 
HETATM    5  C3    D T1001      16.383   8.341  -8.018  1.00 31.96     0.079 A 
HETATM    6  C4    D T1001      15.369   7.354  -7.592  1.00 33.68     0.035 A 
HETATM    7  C5    D T1001      14.018   7.241  -8.139  1.00 34.90     0.004 A 
HETATM    8  C6    D T1001      13.112   6.284  -7.662  1.00 32.93     0.012 A 
HETATM    9  C7    D T1001      13.522   5.407  -6.605  1.00 31.88     0.059 A 
HETATM   10  C8    D T1001      14.805   5.470  -6.039  1.00 32.37     0.031 A 
HETATM   11  C9    D T1001      15.738   6.432  -6.514  1.00 35.42     0.084 A 
ENDROOT
BRANCH   5  12
HETATM   12  N2    D T1001      16.085   9.243  -9.005  1.00 30.60    -0.273 NA
BRANCH  12  13
HETATM   13  C10   D T1001      15.559  10.640  -8.844  1.00 29.84     0.103 C 
HETATM   14  C18   D T1001      16.531  11.643  -9.448  1.00 30.59     0.026 C 
BRANCH  13  15
HETATM   15  C11   D T1001      15.260  10.907  -7.361  1.00 31.56     0.026 C 
BRANCH  15  16
HETATM   16  C12   D T1001      16.319  11.660  -6.576  1.00 32.62     0.037 C 
BRANCH  16  17
HETATM   17  C13   D T1001      16.399  11.103  -5.164  1.00 31.65     0.250 C 
BRANCH  17  18
HETATM   18  N3    D T1001      15.282  11.563  -4.268  1.00 36.76     0.137 N 
BRANCH  18  19
HETATM   19  C14   D T1001      14.388  10.399  -3.789  1.00 36.54     0.250 C 
HETATM   20  C15   D T1001      14.807   8.978  -4.149  1.00 37.02     0.037 C 
ENDBRANCH  18  19
BRANCH  18  21
HETATM   21  C16   D T1001      15.725  12.558  -3.231  1.00 33.74     0.250 C 
HETATM   22  C17   D T1001      16.249  13.847  -3.772  1.00 35.69     0.037 C 
ENDBRANCH  18  21
ENDBRANCH  17  18
ENDBRANCH  16  17
ENDBRANCH  15  16
ENDBRANCH  13  15
ENDBRANCH  12  13
ENDBRANCH   5  12
TORSDOF 8
ENDMDL
MODEL 8
REMARK VINA RESULT:      -4.7     10.638     13.193
REMARK  8 active torsions:
REMARK  status: ('A' for Active; 'I' for Inactive)
REMARK    1  A    between atoms: C3_5  and  N2_12 
REMARK    2  A    between atoms: N2_12  and  C10_13 
REMARK    3  A    between atoms: C10_13  and  C11_14 
REMARK    4  A    between atoms: C11_14  and  C12_15 
REMARK    5  A    between atoms: C12_15  and  C13_16 
REMARK    6  A    between atoms: C13_16  and  N3_17 
REMARK    7  A    between atoms: N3_17  and  C14_18 
REMARK    8  A    between atoms: N3_17  and  C16_20 
ROOT
HETATM    1 CL     D T1001      10.797   9.715 -21.417  1.00 22.69    -0.082 Cl
HETATM    2  N1    D T1001      12.646   4.960 -22.100  1.00 34.43    -0.244 NA
HETATM    3  C1    D T1001      13.533   3.963 -21.906  1.00 35.26     0.101 A 
HETATM    4  C2    D T1001      14.655   4.132 -21.104  1.00 34.24     0.039 A 
HETATM    5  C3    D T1001      14.941   5.411 -20.454  1.00 31.96     0.079 A 
HETATM    6  C4    D T1001      13.981   6.514 -20.669  1.00 33.68     0.035 A 
HETATM    7  C5    D T1001      14.089   7.852 -20.090  1.00 34.90     0.004 A 
HETATM    8  C6    D T1001      13.121   8.836 -20.332  1.00 32.93     0.012 A 
HETATM    9  C7    D T1001      11.995   8.513 -21.157  1.00 31.88     0.059 A 
HETATM   10  C8    D T1001      11.836   7.244 -21.739  1.00 32.37     0.031 A 
HETATM   11  C9    D T1001      12.811   6.236 -21.507  1.00 35.42     0.084 A 
ENDROOT
BRANCH   5  12
HETATM   12  N2    D T1001      16.040   5.607 -19.661  1.00 30.60    -0.273 NA
BRANCH  12  13
HETATM   13  C10   D T1001      16.308   5.026 -18.303  1.00 29.84     0.103 C 
HETATM   14  C18   D T1001      14.999   4.670 -17.614  1.00 30.59     0.026 C 
BRANCH  13  15
HETATM   15  C11   D T1001      17.173   6.001 -17.490  1.00 31.56     0.026 C 
BRANCH  15  16
HETATM   16  C12   D T1001      16.863   7.480 -17.644  1.00 32.62     0.037 C 
BRANCH  16  17
HETATM   17  C13   D T1001      18.090   8.206 -18.171  1.00 31.65     0.250 C 
BRANCH  17  18
HETATM   18  N3    D T1001      18.799   9.029 -17.131  1.00 36.76     0.137 N 
BRANCH  18  19
HETATM   19  C14   D T1001      19.373  10.343 -17.704  1.00 36.54     0.250 C 
HETATM   20  C15   D T1001      19.181  10.620 -19.192  1.00 37.02     0.037 C 
ENDBRANCH  18  19
BRANCH  18  21
HETATM   21  C16   D T1001      18.047   9.120 -15.832  1.00 33.74     0.250 C 
HETATM   22  C17   D T1001      18.894   9.068 -14.604  1.00 35.69     0.037 C 
ENDBRANCH  18  21
ENDBRANCH  17  18
ENDBRANCH  16  17
ENDBRANCH  15  16
ENDBRANCH  13  15
ENDBRANCH  12  13
ENDBRANCH   5  12
TORSDOF 8
ENDMDL
MODEL 9
REMARK VINA RESULT:      -4.7      3.912      8.303
REMARK  8 active torsions:
REMARK  status: ('A' for Active; 'I' for Inactive)
REMARK    1  A    between atoms: C3_5  and  N2_12 
REMARK    2  A    between atoms: N2_12  and  C10_13 
REMARK    3  A    between atoms: C10_13  and  C11_14 
REMARK    4  A    between atoms: C11_14  and  C12_15 
REMARK    5  A    between atoms: C12_15  and  C13_16 
REMARK    6  A    between atoms: C13_16  and  N3_17 
REMARK    7  A    between atoms: N3_17  and  C14_18 
REMARK    8  A    between atoms: N3_17  and  C16_20 
ROOT
HETATM    1 CL     D T1001      15.019  14.542 -14.686  1.00 22.69    -0.082 Cl
HETATM    2  N1    D T1001      18.428  11.300 -12.597  1.00 34.43    -0.244 NA
HETATM    3  C1    D T1001      18.916  10.523 -11.610  1.00 35.26     0.101 A 
HETATM    4  C2    D T1001      18.277  10.419 -10.380  1.00 34.24     0.039 A 
HETATM    5  C3    D T1001      17.057  11.172 -10.092  1.00 31.96     0.079 A 
HETATM    6  C4    D T1001      16.518  12.035 -11.163  1.00 33.68     0.035 A 
HETATM    7  C5    D T1001      15.305  12.846 -11.065  1.00 34.90     0.004 A 
HETATM    8  C6    D T1001      14.855  13.624 -12.140  1.00 32.93     0.012 A 
HETATM    9  C7    D T1001      15.600  13.613 -13.365  1.00 31.88     0.059 A 
HETATM   10  C8    D T1001      16.771  12.852 -13.518  1.00 32.37     0.031 A 
HETATM   11  C9    D T1001      17.243  12.061 -12.437  1.00 35.42     0.084 A 
ENDROOT
BRANCH   5  12
HETATM   12  N2    D T1001      16.407  11.092  -8.889  1.00 30.60    -0.273 NA
BRANCH  12  13
HETATM   13  C10   D T1001      15.183  10.288  -8.558  1.00 29.84     0.103 C 
HETATM   14  C18   D T1001      14.728  10.580  -7.135  1.00 30.59     0.026 C 
BRANCH  13  15
HETATM   15  C11   D T1001      15.464   8.799  -8.810  1.00 31.56     0.026 C 
BRANCH  15  16
HETATM   16  C12   D T1001      16.295   8.076  -7.765  1.00 32.62     0.037 C 
BRANCH  16  17
HETATM   17  C13   D T1001      15.926   6.602  -7.751  1.00 31.65     0.250 C 
BRANCH  17  18
HETATM   18  N3    D T1001      15.169   6.180  -6.522  1.00 36.76     0.137 N 
BRANCH  18  19
HETATM   19  C14   D T1001      15.519   7.037  -5.286  1.00 36.54     0.250 C 
HETATM   20  C15   D T1001      14.373   7.688  -4.518  1.00 37.02     0.037 C 
ENDBRANCH  18  19
BRANCH  18  21
HETATM   21  C16   D T1001      13.711   5.918  -6.783  1.00 33.74     0.250 C 
HETATM   22  C17   D T1001      13.353   5.701  -8.216  1.00 35.69     0.037 C 
ENDBRANCH  18  21
ENDBRANCH  17  18
ENDBRANCH  16  17
ENDBRANCH  15  16
ENDBRANCH  13  15
ENDBRANCH  12  13
ENDBRANCH   5  12
TORSDOF 8
ENDMDL
