MODEL 1
REMARK VINA RESULT:    -5.678      0.000      0.000
REMARK INTER + INTRA:          -8.790
REMARK INTER:                  -7.338
REMARK INTRA:                  -1.453
REMARK UNBOUND:                -1.453
REMARK  5 active torsions:
REMARK  status: ('A' for Active; 'I' for Inactive)
REMARK    1  A    between atoms: C1_1  and  C21_25 
REMARK    2  A    between atoms: N1_14  and  C13_15 
REMARK    3  A    between atoms: C13_15  and  C14_16 
REMARK    4  A    between atoms: C14_16  and  C15_17 
REMARK    5  A    between atoms: C15_17  and  N2_18 
ROOT
HETATM    1  C1    D T 153     -29.879  -5.642   7.186  1.00 26.21     0.073 A 
HETATM    2  C2    D T 153     -29.009  -5.150   8.151  1.00 21.83     0.004 A 
HETATM    3  C3    D T 153     -29.034  -5.684   9.418  1.00 19.56     0.008 A 
HETATM    4  C4    D T 153     -29.906  -6.711   9.736  1.00 21.19     0.045 A 
HETATM    5  C5    D T 153     -30.714  -7.278   8.754  1.00 23.95     0.066 A 
HETATM    6  C6    D T 153     -30.740  -6.694   7.477  1.00 23.48     0.022 A 
HETATM    7  S     D T 153     -29.977  -7.255  11.426  1.00 23.13    -0.084 SA
HETATM    8  C7    D T 153     -31.615  -7.797  11.588  1.00 22.23     0.045 A 
HETATM    9  C8    D T 153     -32.168  -7.812  12.872  1.00 19.63     0.008 A 
HETATM   10  C9    D T 153     -33.446  -8.270  13.091  1.00 14.46     0.001 A 
HETATM   11  C10   D T 153     -34.162  -8.743  12.030  1.00 16.71     0.002 A 
HETATM   12  C11   D T 153     -33.608  -8.723  10.745  1.00 22.55     0.018 A 
HETATM   13  C12   D T 153     -32.333  -8.197  10.462  1.00 24.03     0.066 A 
HETATM   14  N1    D T 153     -31.685  -8.273   9.112  1.00 27.67    -0.327 N 
ENDROOT
BRANCH  14  15
HETATM   15  C13   D T 153     -32.462  -8.771   7.977  1.00 25.39     0.108 C 
BRANCH  15  16
HETATM   16  C14   D T 153     -32.117 -10.227   7.630  1.00 23.98     0.049 C 
BRANCH  16  17
HETATM   17  C15   D T 153     -31.614 -10.387   6.192  1.00 23.67     0.108 C 
BRANCH  17  18
HETATM   18  N2    D T 153     -30.347  -9.766   5.927  1.00 22.79    -0.323 N 
HETATM   19  C16   D T 153     -30.211  -8.968   4.761  1.00 24.85     0.095 A 
HETATM   20  C17   D T 153     -28.968  -8.331   4.443  1.00 24.41     0.095 A 
HETATM   21  N3    D T 153     -27.840  -8.496   5.299  1.00 24.18    -0.321 N 
HETATM   22  C18   D T 153     -27.952  -9.303   6.468  1.00 23.65     0.095 A 
HETATM   23  C20   D T 153     -26.616  -7.849   4.976  1.00 22.39     0.131 C 
HETATM   24  C19   D T 153     -29.212  -9.937   6.780  1.00 24.93     0.095 A 
ENDBRANCH  17  18
ENDBRANCH  16  17
ENDBRANCH  15  16
ENDBRANCH  14  15
BRANCH   1  25
HETATM   25  C21   D T 153     -29.948  -4.982   5.886  1.00 26.87     0.419 C 
HETATM   26  F1    D T 153     -30.343  -3.738   5.937  1.00 26.36    -0.166 F 
HETATM   27  F2    D T 153     -30.734  -5.609   5.063  1.00 25.74    -0.166 F 
HETATM   28  F3    D T 153     -28.865  -4.887   5.187  1.00 29.44    -0.166 F 
ENDBRANCH   1  25
TORSDOF 5
ENDMDL
MODEL 2
REMARK VINA RESULT:    -5.615      2.759      4.959
REMARK INTER + INTRA:          -8.708
REMARK INTER:                  -7.350
REMARK INTRA:                  -1.358
REMARK UNBOUND:                -1.453
REMARK  5 active torsions:
REMARK  status: ('A' for Active; 'I' for Inactive)
REMARK    1  A    between atoms: C1_1  and  C21_25 
REMARK    2  A    between atoms: N1_14  and  C13_15 
REMARK    3  A    between atoms: C13_15  and  C14_16 
REMARK    4  A    between atoms: C14_16  and  C15_17 
REMARK    5  A    between atoms: C15_17  and  N2_18 
ROOT
HETATM    1  C1    D T 153     -31.953  -7.728   8.046  1.00 26.21     0.073 A 
HETATM    2  C2    D T 153     -32.516  -7.849   9.310  1.00 21.83     0.004 A 
HETATM    3  C3    D T 153     -31.853  -8.565  10.279  1.00 19.56     0.008 A 
HETATM    4  C4    D T 153     -30.629  -9.153  10.012  1.00 21.19     0.045 A 
HETATM    5  C5    D T 153     -30.008  -8.957   8.781  1.00 23.95     0.066 A 
HETATM    6  C6    D T 153     -30.709  -8.283   7.767  1.00 23.48     0.022 A 
HETATM    7  S     D T 153     -29.899 -10.174  11.268  1.00 23.13    -0.084 SA
HETATM    8  C7    D T 153     -28.989 -11.327  10.348  1.00 22.23     0.045 A 
HETATM    9  C8    D T 153     -28.709 -12.558  10.949  1.00 19.63     0.008 A 
HETATM   10  C9    D T 153     -27.956 -13.510  10.302  1.00 14.46     0.001 A 
HETATM   11  C10   D T 153     -27.456 -13.219   9.067  1.00 16.71     0.002 A 
HETATM   12  C11   D T 153     -27.740 -11.989   8.466  1.00 22.55     0.018 A 
HETATM   13  C12   D T 153     -28.566 -11.013   9.057  1.00 24.03     0.066 A 
HETATM   14  N1    D T 153     -28.788  -9.648   8.476  1.00 27.67    -0.327 N 
ENDROOT
BRANCH  14  15
HETATM   15  C13   D T 153     -28.257  -9.348   7.146  1.00 25.39     0.108 C 
BRANCH  15  16
HETATM   16  C14   D T 153     -27.169  -8.265   7.185  1.00 23.98     0.049 C 
BRANCH  16  17
HETATM   17  C15   D T 153     -27.340  -7.218   6.079  1.00 23.67     0.108 C 
BRANCH  17  18
HETATM   18  N2    D T 153     -28.241  -6.148   6.400  1.00 22.79    -0.323 N 
HETATM   19  C16   D T 153     -28.220  -5.613   7.715  1.00 24.85     0.095 A 
HETATM   20  C17   D T 153     -29.103  -4.550   8.094  1.00 24.41     0.095 A 
HETATM   21  N3    D T 153     -30.025  -4.014   7.147  1.00 24.18    -0.321 N 
HETATM   22  C18   D T 153     -30.069  -4.545   5.826  1.00 23.65     0.095 A 
HETATM   23  C20   D T 153     -30.887  -2.952   7.534  1.00 22.39     0.131 C 
HETATM   24  C19   D T 153     -29.172  -5.614   5.455  1.00 24.93     0.095 A 
ENDBRANCH  17  18
ENDBRANCH  16  17
ENDBRANCH  15  16
ENDBRANCH  14  15
BRANCH   1  25
HETATM   25  C21   D T 153     -32.720  -7.088   6.982  1.00 26.87     0.419 C 
HETATM   26  F1    D T 153     -33.957  -7.501   6.892  1.00 26.36    -0.166 F 
HETATM   27  F2    D T 153     -32.168  -7.252   5.818  1.00 25.74    -0.166 F 
HETATM   28  F3    D T 153     -32.872  -5.805   7.019  1.00 29.44    -0.166 F 
ENDBRANCH   1  25
TORSDOF 5
ENDMDL
MODEL 3
REMARK VINA RESULT:    -5.426      2.872      5.609
REMARK INTER + INTRA:          -8.465
REMARK INTER:                  -7.264
REMARK INTRA:                  -1.201
REMARK UNBOUND:                -1.453
REMARK  5 active torsions:
REMARK  status: ('A' for Active; 'I' for Inactive)
REMARK    1  A    between atoms: C1_1  and  C21_25 
REMARK    2  A    between atoms: N1_14  and  C13_15 
REMARK    3  A    between atoms: C13_15  and  C14_16 
REMARK    4  A    between atoms: C14_16  and  C15_17 
REMARK    5  A    between atoms: C15_17  and  N2_18 
ROOT
HETATM    1  C1    D T 153     -27.861  -7.940   5.284  1.00 26.21     0.073 A 
HETATM    2  C2    D T 153     -28.249  -8.671   4.168  1.00 21.83     0.004 A 
HETATM    3  C3    D T 153     -28.774  -9.931   4.336  1.00 19.56     0.008 A 
HETATM    4  C4    D T 153     -28.930 -10.471   5.601  1.00 21.19     0.045 A 
HETATM    5  C5    D T 153     -28.636  -9.712   6.731  1.00 23.95     0.066 A 
HETATM    6  C6    D T 153     -28.040  -8.451   6.565  1.00 23.48     0.022 A 
HETATM    7  S     D T 153     -29.485 -12.153   5.730  1.00 23.13    -0.084 SA
HETATM    8  C7    D T 153     -28.746 -12.691   7.202  1.00 22.23     0.045 A 
HETATM    9  C8    D T 153     -28.540 -14.065   7.358  1.00 19.63     0.008 A 
HETATM   10  C9    D T 153     -27.999 -14.577   8.514  1.00 14.46     0.001 A 
HETATM   11  C10   D T 153     -27.693 -13.718   9.529  1.00 16.71     0.002 A 
HETATM   12  C11   D T 153     -27.896 -12.343   9.370  1.00 22.55     0.018 A 
HETATM   13  C12   D T 153     -28.379 -11.766   8.178  1.00 24.03     0.066 A 
HETATM   14  N1    D T 153     -28.707 -10.310   8.034  1.00 27.67    -0.327 N 
ENDROOT
BRANCH  14  15
HETATM   15  C13   D T 153     -28.366  -9.393   9.122  1.00 25.39     0.108 C 
BRANCH  15  16
HETATM   16  C14   D T 153     -29.544  -9.164  10.080  1.00 23.98     0.049 C 
BRANCH  16  17
HETATM   17  C15   D T 153     -29.712  -7.691  10.466  1.00 23.67     0.108 C 
BRANCH  17  18
HETATM   18  N2    D T 153     -29.939  -6.803   9.361  1.00 22.79    -0.323 N 
HETATM   19  C16   D T 153     -29.156  -5.623   9.266  1.00 24.85     0.095 A 
HETATM   20  C17   D T 153     -29.345  -4.697   8.189  1.00 24.41     0.095 A 
HETATM   21  N3    D T 153     -30.334  -4.950   7.193  1.00 24.18    -0.321 N 
HETATM   22  C18   D T 153     -31.138  -6.124   7.277  1.00 23.65     0.095 A 
HETATM   23  C20   D T 153     -30.502  -4.027   6.124  1.00 22.39     0.131 C 
HETATM   24  C19   D T 153     -30.935  -7.051   8.366  1.00 24.93     0.095 A 
ENDBRANCH  17  18
ENDBRANCH  16  17
ENDBRANCH  15  16
ENDBRANCH  14  15
BRANCH   1  25
HETATM   25  C21   D T 153     -27.178  -6.664   5.098  1.00 26.87     0.419 C 
HETATM   26  F1    D T 153     -25.890  -6.770   4.900  1.00 26.36    -0.166 F 
HETATM   27  F2    D T 153     -27.353  -5.865   6.108  1.00 25.74    -0.166 F 
HETATM   28  F3    D T 153     -27.536  -5.913   4.109  1.00 29.44    -0.166 F 
ENDBRANCH   1  25
TORSDOF 5
ENDMDL
MODEL 4
REMARK VINA RESULT:    -5.364      2.269      5.933
REMARK INTER + INTRA:          -8.385
REMARK INTER:                  -7.384
REMARK INTRA:                  -1.001
REMARK UNBOUND:                -1.453
REMARK  5 active torsions:
REMARK  status: ('A' for Active; 'I' for Inactive)
REMARK    1  A    between atoms: C1_1  and  C21_25 
REMARK    2  A    between atoms: N1_14  and  C13_15 
REMARK    3  A    between atoms: C13_15  and  C14_16 
REMARK    4  A    between atoms: C14_16  and  C15_17 
REMARK    5  A    between atoms: C15_17  and  N2_18 
ROOT
HETATM    1  C1    D T 153     -31.069  -5.252   6.825  1.00 26.21     0.073 A 
HETATM    2  C2    D T 153     -32.381  -5.696   6.722  1.00 21.83     0.004 A 
HETATM    3  C3    D T 153     -32.626  -7.031   6.500  1.00 19.56     0.008 A 
HETATM    4  C4    D T 153     -31.583  -7.934   6.392  1.00 21.19     0.045 A 
HETATM    5  C5    D T 153     -30.269  -7.519   6.590  1.00 23.95     0.066 A 
HETATM    6  C6    D T 153     -30.008  -6.148   6.752  1.00 23.48     0.022 A 
HETATM    7  S     D T 153     -31.973  -9.615   5.970  1.00 23.13    -0.084 SA
HETATM    8  C7    D T 153     -30.559 -10.135   5.113  1.00 22.23     0.045 A 
HETATM    9  C8    D T 153     -30.701 -11.195   4.212  1.00 19.63     0.008 A 
HETATM   10  C9    D T 153     -29.620 -11.695   3.525  1.00 14.46     0.001 A 
HETATM   11  C10   D T 153     -28.389 -11.156   3.762  1.00 16.71     0.002 A 
HETATM   12  C11   D T 153     -28.249 -10.094   4.661  1.00 22.55     0.018 A 
HETATM   13  C12   D T 153     -29.337  -9.501   5.332  1.00 24.03     0.066 A 
HETATM   14  N1    D T 153     -29.188  -8.439   6.380  1.00 27.67    -0.327 N 
ENDROOT
BRANCH  14  15
HETATM   15  C13   D T 153     -27.866  -7.859   6.621  1.00 25.39     0.108 C 
BRANCH  15  16
HETATM   16  C14   D T 153     -27.427  -8.002   8.085  1.00 23.98     0.049 C 
BRANCH  16  17
HETATM   17  C15   D T 153     -28.129  -9.160   8.801  1.00 23.67     0.108 C 
BRANCH  17  18
HETATM   18  N2    D T 153     -29.038  -8.762   9.838  1.00 22.79    -0.323 N 
HETATM   19  C16   D T 153     -29.804  -9.763  10.490  1.00 24.85     0.095 A 
HETATM   20  C17   D T 153     -30.733  -9.423  11.527  1.00 24.41     0.095 A 
HETATM   21  N3    D T 153     -30.904  -8.062  11.916  1.00 24.18    -0.321 N 
HETATM   22  C18   D T 153     -30.152  -7.041  11.265  1.00 23.65     0.095 A 
HETATM   23  C20   D T 153     -31.822  -7.741  12.954  1.00 22.39     0.131 C 
HETATM   24  C19   D T 153     -29.217  -7.397  10.224  1.00 24.93     0.095 A 
ENDBRANCH  17  18
ENDBRANCH  16  17
ENDBRANCH  15  16
ENDBRANCH  14  15
BRANCH   1  25
HETATM   25  C21   D T 153     -30.806  -3.819   6.921  1.00 26.87     0.419 C 
HETATM   26  F1    D T 153     -30.247  -3.305   5.858  1.00 26.36    -0.166 F 
HETATM   27  F2    D T 153     -30.052  -3.529   7.938  1.00 25.74    -0.166 F 
HETATM   28  F3    D T 153     -31.807  -3.022   7.105  1.00 29.44    -0.166 F 
ENDBRANCH   1  25
TORSDOF 5
ENDMDL
MODEL 5
REMARK VINA RESULT:    -5.351      2.057      2.495
REMARK INTER + INTRA:          -8.368
REMARK INTER:                  -7.169
REMARK INTRA:                  -1.199
REMARK UNBOUND:                -1.453
REMARK  5 active torsions:
REMARK  status: ('A' for Active; 'I' for Inactive)
REMARK    1  A    between atoms: C1_1  and  C21_25 
REMARK    2  A    between atoms: N1_14  and  C13_15 
REMARK    3  A    between atoms: C13_15  and  C14_16 
REMARK    4  A    between atoms: C14_16  and  C15_17 
REMARK    5  A    between atoms: C15_17  and  N2_18 
ROOT
HETATM    1  C1    D T 153     -30.284  -4.613   7.503  1.00 26.21     0.073 A 
HETATM    2  C2    D T 153     -29.223  -4.623   8.399  1.00 21.83     0.004 A 
HETATM    3  C3    D T 153     -28.839  -5.810   8.977  1.00 19.56     0.008 A 
HETATM    4  C4    D T 153     -29.488  -6.992   8.665  1.00 21.19     0.045 A 
HETATM    5  C5    D T 153     -30.488  -7.011   7.696  1.00 23.95     0.066 A 
HETATM    6  C6    D T 153     -30.928  -5.794   7.151  1.00 23.48     0.022 A 
HETATM    7  S     D T 153     -29.026  -8.460   9.553  1.00 23.13    -0.084 SA
HETATM    8  C7    D T 153     -30.494  -9.380   9.566  1.00 22.23     0.045 A 
HETATM    9  C8    D T 153     -30.656 -10.327  10.583  1.00 19.63     0.008 A 
HETATM   10  C9    D T 153     -31.772 -11.128  10.639  1.00 14.46     0.001 A 
HETATM   11  C10   D T 153     -32.714 -11.005   9.660  1.00 16.71     0.002 A 
HETATM   12  C11   D T 153     -32.553 -10.055   8.646  1.00 22.55     0.018 A 
HETATM   13  C12   D T 153     -31.464  -9.164   8.588  1.00 24.03     0.066 A 
HETATM   14  N1    D T 153     -31.223  -8.219   7.449  1.00 27.67    -0.327 N 
ENDROOT
BRANCH  14  15
HETATM   15  C13   D T 153     -32.242  -8.085   6.408  1.00 25.39     0.108 C 
BRANCH  15  16
HETATM   16  C14   D T 153     -31.862  -8.831   5.121  1.00 23.98     0.049 C 
BRANCH  16  17
HETATM   17  C15   D T 153     -31.070  -7.956   4.144  1.00 23.67     0.108 C 
BRANCH  17  18
HETATM   18  N2    D T 153     -29.664  -7.869   4.421  1.00 22.79    -0.323 N 
HETATM   19  C16   D T 153     -28.974  -9.049   4.804  1.00 24.85     0.095 A 
HETATM   20  C17   D T 153     -27.572  -9.020   5.100  1.00 24.41     0.095 A 
HETATM   21  N3    D T 153     -26.848  -7.794   5.016  1.00 24.18    -0.321 N 
HETATM   22  C18   D T 153     -27.526  -6.597   4.644  1.00 23.65     0.095 A 
HETATM   23  C20   D T 153     -25.455  -7.784   5.302  1.00 22.39     0.131 C 
HETATM   24  C19   D T 153     -28.938  -6.640   4.346  1.00 24.93     0.095 A 
ENDBRANCH  17  18
ENDBRANCH  16  17
ENDBRANCH  15  16
ENDBRANCH  14  15
BRANCH   1  25
HETATM   25  C21   D T 153     -30.779  -3.335   6.998  1.00 26.87     0.419 C 
HETATM   26  F1    D T 153     -32.066  -3.311   6.774  1.00 26.36    -0.166 F 
HETATM   27  F2    D T 153     -30.184  -2.982   5.899  1.00 25.74    -0.166 F 
HETATM   28  F3    D T 153     -30.618  -2.282   7.730  1.00 29.44    -0.166 F 
ENDBRANCH   1  25
TORSDOF 5
ENDMDL
MODEL 6
REMARK VINA RESULT:    -5.321      1.795      2.418
REMARK INTER + INTRA:          -8.329
REMARK INTER:                  -7.113
REMARK INTRA:                  -1.217
REMARK UNBOUND:                -1.453
REMARK  5 active torsions:
REMARK  status: ('A' for Active; 'I' for Inactive)
REMARK    1  A    between atoms: C1_1  and  C21_25 
REMARK    2  A    between atoms: N1_14  and  C13_15 
REMARK    3  A    between atoms: C13_15  and  C14_16 
REMARK    4  A    between atoms: C14_16  and  C15_17 
REMARK    5  A    between atoms: C15_17  and  N2_18 
ROOT
HETATM    1  C1    D T 153     -29.638  -6.005   8.516  1.00 26.21     0.073 A 
HETATM    2  C2    D T 153     -29.397  -6.328   9.845  1.00 21.83     0.004 A 
HETATM    3  C3    D T 153     -30.241  -7.202  10.491  1.00 19.56     0.008 A 
HETATM    4  C4    D T 153     -31.316  -7.768   9.828  1.00 21.19     0.045 A 
HETATM    5  C5    D T 153     -31.512  -7.528   8.471  1.00 23.95     0.066 A 
HETATM    6  C6    D T 153     -30.693  -6.588   7.823  1.00 23.48     0.022 A 
HETATM    7  S     D T 153     -32.438  -8.778  10.764  1.00 23.13    -0.084 SA
HETATM    8  C7    D T 153     -33.944  -8.549   9.937  1.00 22.23     0.045 A 
HETATM    9  C8    D T 153     -35.120  -8.765  10.662  1.00 19.63     0.008 A 
HETATM   10  C9    D T 153     -36.354  -8.647  10.068  1.00 14.46     0.001 A 
HETATM   11  C10   D T 153     -36.413  -8.343   8.740  1.00 16.71     0.002 A 
HETATM   12  C11   D T 153     -35.236  -8.122   8.016  1.00 22.55     0.018 A 
HETATM   13  C12   D T 153     -33.954  -8.161   8.598  1.00 24.03     0.066 A 
HETATM   14  N1    D T 153     -32.681  -8.038   7.814  1.00 27.67    -0.327 N 
ENDROOT
BRANCH  14  15
HETATM   15  C13   D T 153     -32.752  -7.701   6.392  1.00 25.39     0.108 C 
BRANCH  15  16
HETATM   16  C14   D T 153     -32.567  -8.932   5.493  1.00 23.98     0.049 C 
BRANCH  16  17
HETATM   17  C15   D T 153     -31.718  -8.634   4.253  1.00 23.67     0.108 C 
BRANCH  17  18
HETATM   18  N2    D T 153     -30.322  -8.429   4.518  1.00 22.79    -0.323 N 
HETATM   19  C16   D T 153     -29.651  -7.374   3.846  1.00 24.85     0.095 A 
HETATM   20  C17   D T 153     -28.257  -7.128   4.065  1.00 24.41     0.095 A 
HETATM   21  N3    D T 153     -27.518  -7.950   4.966  1.00 24.18    -0.321 N 
HETATM   22  C18   D T 153     -28.171  -9.022   5.641  1.00 23.65     0.095 A 
HETATM   23  C20   D T 153     -26.137  -7.687   5.181  1.00 22.39     0.131 C 
HETATM   24  C19   D T 153     -29.577  -9.258   5.414  1.00 24.93     0.095 A 
ENDBRANCH  17  18
ENDBRANCH  16  17
ENDBRANCH  15  16
ENDBRANCH  14  15
BRANCH   1  25
HETATM   25  C21   D T 153     -28.826  -4.974   7.875  1.00 26.87     0.419 C 
HETATM   26  F1    D T 153     -27.836  -4.540   8.608  1.00 26.36    -0.166 F 
HETATM   27  F2    D T 153     -29.536  -3.943   7.526  1.00 25.74    -0.166 F 
HETATM   28  F3    D T 153     -28.228  -5.264   6.767  1.00 29.44    -0.166 F 
ENDBRANCH   1  25
TORSDOF 5
ENDMDL
MODEL 7
REMARK VINA RESULT:    -5.262      3.419      6.955
REMARK INTER + INTRA:          -8.253
REMARK INTER:                  -7.552
REMARK INTRA:                  -0.702
REMARK UNBOUND:                -1.453
REMARK  5 active torsions:
REMARK  status: ('A' for Active; 'I' for Inactive)
REMARK    1  A    between atoms: C1_1  and  C21_25 
REMARK    2  A    between atoms: N1_14  and  C13_15 
REMARK    3  A    between atoms: C13_15  and  C14_16 
REMARK    4  A    between atoms: C14_16  and  C15_17 
REMARK    5  A    between atoms: C15_17  and  N2_18 
ROOT
HETATM    1  C1    D T 153     -29.134  -6.105   8.434  1.00 26.21     0.073 A 
HETATM    2  C2    D T 153     -28.833  -6.824   7.286  1.00 21.83     0.004 A 
HETATM    3  C3    D T 153     -28.958  -8.194   7.295  1.00 19.56     0.008 A 
HETATM    4  C4    D T 153     -29.392  -8.858   8.429  1.00 21.19     0.045 A 
HETATM    5  C5    D T 153     -29.790  -8.141   9.555  1.00 23.95     0.066 A 
HETATM    6  C6    D T 153     -29.603  -6.749   9.574  1.00 23.48     0.022 A 
HETATM    7  S     D T 153     -29.398 -10.634   8.409  1.00 23.13    -0.084 SA
HETATM    8  C7    D T 153     -29.126 -11.040  10.071  1.00 22.23     0.045 A 
HETATM    9  C8    D T 153     -28.572 -12.293  10.349  1.00 19.63     0.008 A 
HETATM   10  C9    D T 153     -28.365 -12.708  11.644  1.00 14.46     0.001 A 
HETATM   11  C10   D T 153     -28.741 -11.883  12.663  1.00 16.71     0.002 A 
HETATM   12  C11   D T 153     -29.292 -10.628  12.383  1.00 22.55     0.018 A 
HETATM   13  C12   D T 153     -29.455 -10.130  11.075  1.00 24.03     0.066 A 
HETATM   14  N1    D T 153     -30.146  -8.837  10.759  1.00 27.67    -0.327 N 
ENDROOT
BRANCH  14  15
HETATM   15  C13   D T 153     -30.537  -7.953  11.856  1.00 25.39     0.108 C 
BRANCH  15  16
HETATM   16  C14   D T 153     -32.054  -7.953  12.091  1.00 23.98     0.049 C 
BRANCH  16  17
HETATM   17  C15   D T 153     -32.442  -8.573  13.437  1.00 23.67     0.108 C 
BRANCH  17  18
HETATM   18  N2    D T 153     -33.504  -7.895  14.126  1.00 22.79    -0.323 N 
HETATM   19  C16   D T 153     -34.777  -7.819  13.504  1.00 24.85     0.095 A 
HETATM   20  C17   D T 153     -35.871  -7.148  14.141  1.00 24.41     0.095 A 
HETATM   21  N3    D T 153     -35.691  -6.540  15.418  1.00 24.18    -0.321 N 
HETATM   22  C18   D T 153     -34.417  -6.596  16.054  1.00 23.65     0.095 A 
HETATM   23  C20   D T 153     -36.789  -5.887  16.043  1.00 22.39     0.131 C 
HETATM   24  C19   D T 153     -33.323  -7.277  15.403  1.00 24.93     0.095 A 
ENDBRANCH  17  18
ENDBRANCH  16  17
ENDBRANCH  15  16
ENDBRANCH  14  15
BRANCH   1  25
HETATM   25  C21   D T 153     -28.868  -4.670   8.467  1.00 26.87     0.419 C 
HETATM   26  F1    D T 153     -29.406  -4.003   7.480  1.00 26.36    -0.166 F 
HETATM   27  F2    D T 153     -27.595  -4.411   8.465  1.00 25.74    -0.166 F 
HETATM   28  F3    D T 153     -29.269  -3.993   9.493  1.00 29.44    -0.166 F 
ENDBRANCH   1  25
TORSDOF 5
ENDMDL
MODEL 8
REMARK VINA RESULT:    -5.242      3.493      6.030
REMARK INTER + INTRA:          -8.227
REMARK INTER:                  -7.356
REMARK INTRA:                  -0.871
REMARK UNBOUND:                -1.453
REMARK  5 active torsions:
REMARK  status: ('A' for Active; 'I' for Inactive)
REMARK    1  A    between atoms: C1_1  and  C21_25 
REMARK    2  A    between atoms: N1_14  and  C13_15 
REMARK    3  A    between atoms: C13_15  and  C14_16 
REMARK    4  A    between atoms: C14_16  and  C15_17 
REMARK    5  A    between atoms: C15_17  and  N2_18 
ROOT
HETATM    1  C1    D T 153     -30.037  -8.719  11.106  1.00 26.21     0.073 A 
HETATM    2  C2    D T 153     -29.867  -9.764  12.006  1.00 21.83     0.004 A 
HETATM    3  C3    D T 153     -29.299 -10.940  11.575  1.00 19.56     0.008 A 
HETATM    4  C4    D T 153     -28.884 -11.087  10.262  1.00 21.19     0.045 A 
HETATM    5  C5    D T 153     -28.959 -10.015   9.377  1.00 23.95     0.066 A 
HETATM    6  C6    D T 153     -29.597  -8.835   9.792  1.00 23.48     0.022 A 
HETATM    7  S     D T 153     -28.286 -12.678   9.747  1.00 23.13    -0.084 SA
HETATM    8  C7    D T 153     -28.707 -12.723   8.067  1.00 22.23     0.045 A 
HETATM    9  C8    D T 153     -28.856 -13.978   7.470  1.00 19.63     0.008 A 
HETATM   10  C9    D T 153     -29.146 -14.100   6.131  1.00 14.46     0.001 A 
HETATM   11  C10   D T 153     -29.257 -12.966   5.381  1.00 16.71     0.002 A 
HETATM   12  C11   D T 153     -29.113 -11.710   5.981  1.00 22.55     0.018 A 
HETATM   13  C12   D T 153     -28.888 -11.534   7.360  1.00 24.03     0.066 A 
HETATM   14  N1    D T 153     -28.619 -10.203   7.995  1.00 27.67    -0.327 N 
ENDROOT
BRANCH  14  15
HETATM   15  C13   D T 153     -28.751  -8.990   7.186  1.00 25.39     0.108 C 
BRANCH  15  16
HETATM   16  C14   D T 153     -27.402  -8.294   6.957  1.00 23.98     0.049 C 
BRANCH  16  17
HETATM   17  C15   D T 153     -27.503  -7.119   5.980  1.00 23.67     0.108 C 
BRANCH  17  18
HETATM   18  N2    D T 153     -28.361  -6.052   6.411  1.00 22.79    -0.323 N 
HETATM   19  C16   D T 153     -29.283  -5.504   5.481  1.00 24.85     0.095 A 
HETATM   20  C17   D T 153     -30.158  -4.432   5.854  1.00 24.41     0.095 A 
HETATM   21  N3    D T 153     -30.111  -3.897   7.175  1.00 24.18    -0.321 N 
HETATM   22  C18   D T 153     -29.185  -4.426   8.120  1.00 23.65     0.095 A 
HETATM   23  C20   D T 153     -30.993  -2.841   7.534  1.00 22.39     0.131 C 
HETATM   24  C19   D T 153     -28.310  -5.508   7.732  1.00 24.93     0.095 A 
ENDBRANCH  17  18
ENDBRANCH  16  17
ENDBRANCH  15  16
ENDBRANCH  14  15
BRANCH   1  25
HETATM   25  C21   D T 153     -30.765  -7.526  11.529  1.00 26.87     0.419 C 
HETATM   26  F1    D T 153     -31.981  -7.447  11.058  1.00 26.36    -0.166 F 
HETATM   27  F2    D T 153     -30.145  -6.434  11.195  1.00 25.74    -0.166 F 
HETATM   28  F3    D T 153     -30.958  -7.339  12.793  1.00 29.44    -0.166 F 
ENDBRANCH   1  25
TORSDOF 5
ENDMDL
MODEL 9
REMARK VINA RESULT:    -4.941      1.995      2.922
REMARK INTER + INTRA:          -7.837
REMARK INTER:                  -6.625
REMARK INTRA:                  -1.212
REMARK UNBOUND:                -1.453
REMARK  5 active torsions:
REMARK  status: ('A' for Active; 'I' for Inactive)
REMARK    1  A    between atoms: C1_1  and  C21_25 
REMARK    2  A    between atoms: N1_14  and  C13_15 
REMARK    3  A    between atoms: C13_15  and  C14_16 
REMARK    4  A    between atoms: C14_16  and  C15_17 
REMARK    5  A    between atoms: C15_17  and  N2_18 
ROOT
HETATM    1  C1    D T 153     -29.658  -5.962   8.559  1.00 26.21     0.073 A 
HETATM    2  C2    D T 153     -29.486  -6.253   9.906  1.00 21.83     0.004 A 
HETATM    3  C3    D T 153     -30.354  -7.122  10.526  1.00 19.56     0.008 A 
HETATM    4  C4    D T 153     -31.385  -7.716   9.819  1.00 21.19     0.045 A 
HETATM    5  C5    D T 153     -31.510  -7.509   8.448  1.00 23.95     0.066 A 
HETATM    6  C6    D T 153     -30.668  -6.574   7.824  1.00 23.48     0.022 A 
HETATM    7  S     D T 153     -32.545  -8.718  10.717  1.00 23.13    -0.084 SA
HETATM    8  C7    D T 153     -34.006  -8.527   9.805  1.00 22.23     0.045 A 
HETATM    9  C8    D T 153     -35.217  -8.742  10.470  1.00 19.63     0.008 A 
HETATM   10  C9    D T 153     -36.419  -8.653   9.807  1.00 14.46     0.001 A 
HETATM   11  C10   D T 153     -36.409  -8.380   8.471  1.00 16.71     0.002 A 
HETATM   12  C11   D T 153     -35.197  -8.161   7.807  1.00 22.55     0.018 A 
HETATM   13  C12   D T 153     -33.948  -8.170   8.458  1.00 24.03     0.066 A 
HETATM   14  N1    D T 153     -32.636  -8.049   7.741  1.00 27.67    -0.327 N 
ENDROOT
BRANCH  14  15
HETATM   15  C13   D T 153     -32.634  -7.746   6.310  1.00 25.39     0.108 C 
BRANCH  15  16
HETATM   16  C14   D T 153     -32.370  -8.992   5.452  1.00 23.98     0.049 C 
BRANCH  16  17
HETATM   17  C15   D T 153     -30.901  -9.122   5.037  1.00 23.67     0.108 C 
BRANCH  17  18
HETATM   18  N2    D T 153     -30.098  -9.921   5.919  1.00 22.79    -0.323 N 
HETATM   19  C16   D T 153     -30.503 -11.255   6.185  1.00 24.85     0.095 A 
HETATM   20  C17   D T 153     -29.744 -12.096   7.063  1.00 24.41     0.095 A 
HETATM   21  N3    D T 153     -28.564 -11.596   7.689  1.00 24.18    -0.321 N 
HETATM   22  C18   D T 153     -28.148 -10.255   7.444  1.00 23.65     0.095 A 
HETATM   23  C20   D T 153     -27.815 -12.445   8.549  1.00 22.39     0.131 C 
HETATM   24  C19   D T 153     -28.919  -9.419   6.554  1.00 24.93     0.095 A 
ENDBRANCH  17  18
ENDBRANCH  16  17
ENDBRANCH  15  16
ENDBRANCH  14  15
BRANCH   1  25
HETATM   25  C21   D T 153     -28.825  -4.937   7.939  1.00 26.87     0.419 C 
HETATM   26  F1    D T 153     -27.841  -4.520   8.690  1.00 26.36    -0.166 F 
HETATM   27  F2    D T 153     -29.517  -3.895   7.587  1.00 25.74    -0.166 F 
HETATM   28  F3    D T 153     -28.213  -5.225   6.837  1.00 29.44    -0.166 F 
ENDBRANCH   1  25
TORSDOF 5
ENDMDL
