MODEL 1
REMARK VINA RESULT:    -5.584      0.000      0.000
REMARK INTER + INTRA:          -8.001
REMARK INTER:                  -7.216
REMARK INTRA:                  -0.785
REMARK UNBOUND:                -0.785
REMARK  5 active torsions:
REMARK  status: ('A' for Active; 'I' for Inactive)
REMARK    1  A    between atoms: C1_1  and  C21_25 
REMARK    2  A    between atoms: N1_14  and  C13_15 
REMARK    3  A    between atoms: C13_15  and  C14_16 
REMARK    4  A    between atoms: C14_16  and  C15_17 
REMARK    5  A    between atoms: C15_17  and  N2_18 
ROOT
HETATM    1  C1    D T 153       3.636   7.044  -1.462  1.00 26.21     0.073 A 
HETATM    2  C2    D T 153       4.893   6.890  -0.894  1.00 21.83     0.004 A 
HETATM    3  C3    D T 153       5.616   8.005  -0.539  1.00 19.56     0.008 A 
HETATM    4  C4    D T 153       5.099   9.274  -0.733  1.00 21.19     0.045 A 
HETATM    5  C5    D T 153       3.802   9.440  -1.212  1.00 23.95     0.066 A 
HETATM    6  C6    D T 153       3.085   8.309  -1.636  1.00 23.48     0.022 A 
HETATM    7  S     D T 153       6.143  10.666  -0.379  1.00 23.13    -0.084 SA
HETATM    8  C7    D T 153       5.571  11.869  -1.487  1.00 22.23     0.045 A 
HETATM    9  C8    D T 153       6.458  12.889  -1.848  1.00 19.63     0.008 A 
HETATM   10  C9    D T 153       6.068  13.906  -2.689  1.00 14.46     0.001 A 
HETATM   11  C10   D T 153       4.782  13.920  -3.145  1.00 16.71     0.002 A 
HETATM   12  C11   D T 153       3.899  12.897  -2.784  1.00 22.55     0.018 A 
HETATM   13  C12   D T 153       4.273  11.798  -1.987  1.00 24.03     0.066 A 
HETATM   14  N1    D T 153       3.308  10.757  -1.503  1.00 27.67    -0.327 N 
ENDROOT
BRANCH  14  15
HETATM   15  C13   D T 153       1.934  10.772  -2.003  1.00 25.39     0.108 C 
BRANCH  15  16
HETATM   16  C14   D T 153       0.929  11.220  -0.932  1.00 23.98     0.049 C 
BRANCH  16  17
HETATM   17  C15   D T 153      -0.518  10.879  -1.301  1.00 23.67     0.108 C 
BRANCH  17  18
HETATM   18  N2    D T 153      -1.323  10.417  -0.207  1.00 22.79    -0.323 N 
HETATM   19  C16   D T 153      -2.710  10.207  -0.425  1.00 24.85     0.095 A 
HETATM   20  C17   D T 153      -3.565   9.755   0.632  1.00 24.41     0.095 A 
HETATM   21  N3    D T 153      -3.027   9.510   1.931  1.00 24.18    -0.321 N 
HETATM   22  C18   D T 153      -1.639   9.724   2.172  1.00 23.65     0.095 A 
HETATM   23  C20   D T 153      -3.884   9.050   2.967  1.00 22.39     0.131 C 
HETATM   24  C19   D T 153      -0.788  10.178   1.098  1.00 24.93     0.095 A 
ENDBRANCH  17  18
ENDBRANCH  16  17
ENDBRANCH  15  16
ENDBRANCH  14  15
BRANCH   1  25
HETATM   25  C21   D T 153       2.932   5.868  -1.964  1.00 26.87     0.419 C 
HETATM   26  F1    D T 153       3.598   4.750  -1.840  1.00 26.36    -0.166 F 
HETATM   27  F2    D T 153       2.607   5.992  -3.215  1.00 25.74    -0.166 F 
HETATM   28  F3    D T 153       1.796   5.558  -1.431  1.00 29.44    -0.166 F 
ENDBRANCH   1  25
TORSDOF 5
ENDMDL
MODEL 2
REMARK VINA RESULT:    -5.550      1.956      2.544
REMARK INTER + INTRA:          -7.957
REMARK INTER:                  -6.644
REMARK INTRA:                  -1.314
REMARK UNBOUND:                -0.785
REMARK  5 active torsions:
REMARK  status: ('A' for Active; 'I' for Inactive)
REMARK    1  A    between atoms: C1_1  and  C21_25 
REMARK    2  A    between atoms: N1_14  and  C13_15 
REMARK    3  A    between atoms: C13_15  and  C14_16 
REMARK    4  A    between atoms: C14_16  and  C15_17 
REMARK    5  A    between atoms: C15_17  and  N2_18 
ROOT
HETATM    1  C1    D T 153       3.771   6.998  -1.551  1.00 26.21     0.073 A 
HETATM    2  C2    D T 153       5.080   6.829  -1.121  1.00 21.83     0.004 A 
HETATM    3  C3    D T 153       5.835   7.933  -0.803  1.00 19.56     0.008 A 
HETATM    4  C4    D T 153       5.300   9.207  -0.896  1.00 21.19     0.045 A 
HETATM    5  C5    D T 153       3.959   9.384  -1.232  1.00 23.95     0.066 A 
HETATM    6  C6    D T 153       3.204   8.266  -1.620  1.00 23.48     0.022 A 
HETATM    7  S     D T 153       6.374  10.590  -0.601  1.00 23.13    -0.084 SA
HETATM    8  C7    D T 153       5.689  11.829  -1.600  1.00 22.23     0.045 A 
HETATM    9  C8    D T 153       6.533  12.866  -2.013  1.00 19.63     0.008 A 
HETATM   10  C9    D T 153       6.057  13.910  -2.771  1.00 14.46     0.001 A 
HETATM   11  C10   D T 153       4.731  13.935  -3.091  1.00 16.71     0.002 A 
HETATM   12  C11   D T 153       3.891  12.896  -2.679  1.00 22.55     0.018 A 
HETATM   13  C12   D T 153       4.346  11.771  -1.965  1.00 24.03     0.066 A 
HETATM   14  N1    D T 153       3.437  10.708  -1.422  1.00 27.67    -0.327 N 
ENDROOT
BRANCH  14  15
HETATM   15  C13   D T 153       2.018  10.735  -1.777  1.00 25.39     0.108 C 
BRANCH  15  16
HETATM   16  C14   D T 153       1.151  11.337  -0.662  1.00 23.98     0.049 C 
BRANCH  16  17
HETATM   17  C15   D T 153       0.299  10.285   0.056  1.00 23.67     0.108 C 
BRANCH  17  18
HETATM   18  N2    D T 153       1.031   9.414   0.929  1.00 22.79    -0.323 N 
HETATM   19  C16   D T 153       0.830   8.014   0.817  1.00 24.85     0.095 A 
HETATM   20  C17   D T 153       1.528   7.096   1.668  1.00 24.41     0.095 A 
HETATM   21  N3    D T 153       2.439   7.584   2.651  1.00 24.18    -0.321 N 
HETATM   22  C18   D T 153       2.645   8.987   2.787  1.00 23.65     0.095 A 
HETATM   23  C20   D T 153       3.132   6.661   3.481  1.00 22.39     0.131 C 
HETATM   24  C19   D T 153       1.939   9.901   1.921  1.00 24.93     0.095 A 
ENDBRANCH  17  18
ENDBRANCH  16  17
ENDBRANCH  15  16
ENDBRANCH  14  15
BRANCH   1  25
HETATM   25  C21   D T 153       3.019   5.837  -2.020  1.00 26.87     0.419 C 
HETATM   26  F1    D T 153       3.657   4.702  -1.904  1.00 26.36    -0.166 F 
HETATM   27  F2    D T 153       2.660   5.959  -3.262  1.00 25.74    -0.166 F 
HETATM   28  F3    D T 153       1.891   5.565  -1.450  1.00 29.44    -0.166 F 
ENDBRANCH   1  25
TORSDOF 5
ENDMDL
MODEL 3
REMARK VINA RESULT:    -5.518      1.735      2.447
REMARK INTER + INTRA:          -7.916
REMARK INTER:                  -7.197
REMARK INTRA:                  -0.720
REMARK UNBOUND:                -0.785
REMARK  5 active torsions:
REMARK  status: ('A' for Active; 'I' for Inactive)
REMARK    1  A    between atoms: C1_1  and  C21_25 
REMARK    2  A    between atoms: N1_14  and  C13_15 
REMARK    3  A    between atoms: C13_15  and  C14_16 
REMARK    4  A    between atoms: C14_16  and  C15_17 
REMARK    5  A    between atoms: C15_17  and  N2_18 
ROOT
HETATM    1  C1    D T 153       3.763   6.992  -1.596  1.00 26.21     0.073 A 
HETATM    2  C2    D T 153       5.106   6.826  -1.286  1.00 21.83     0.004 A 
HETATM    3  C3    D T 153       5.876   7.929  -1.002  1.00 19.56     0.008 A 
HETATM    4  C4    D T 153       5.323   9.198  -1.010  1.00 21.19     0.045 A 
HETATM    5  C5    D T 153       3.958   9.370  -1.224  1.00 23.95     0.066 A 
HETATM    6  C6    D T 153       3.181   8.256  -1.578  1.00 23.48     0.022 A 
HETATM    7  S     D T 153       6.407  10.585  -0.769  1.00 23.13    -0.084 SA
HETATM    8  C7    D T 153       5.628  11.845  -1.667  1.00 22.23     0.045 A 
HETATM    9  C8    D T 153       6.423  12.902  -2.121  1.00 19.63     0.008 A 
HETATM   10  C9    D T 153       5.874  13.962  -2.804  1.00 14.46     0.001 A 
HETATM   11  C10   D T 153       4.526  13.982  -3.007  1.00 16.71     0.002 A 
HETATM   12  C11   D T 153       3.733  12.922  -2.554  1.00 22.55     0.018 A 
HETATM   13  C12   D T 153       4.258  11.781  -1.916  1.00 24.03     0.066 A 
HETATM   14  N1    D T 153       3.410  10.694  -1.329  1.00 27.67    -0.327 N 
ENDROOT
BRANCH  14  15
HETATM   15  C13   D T 153       1.965  10.715  -1.559  1.00 25.39     0.108 C 
BRANCH  15  16
HETATM   16  C14   D T 153       1.175  10.978  -0.269  1.00 23.98     0.049 C 
BRANCH  16  17
HETATM   17  C15   D T 153      -0.318  10.663  -0.417  1.00 23.67     0.108 C 
BRANCH  17  18
HETATM   18  N2    D T 153      -1.171  11.815  -0.480  1.00 22.79    -0.323 N 
HETATM   19  C16   D T 153      -0.982  12.852   0.469  1.00 24.85     0.095 A 
HETATM   20  C17   D T 153      -1.810  14.023   0.460  1.00 24.41     0.095 A 
HETATM   21  N3    D T 153      -2.845  14.158  -0.512  1.00 24.18    -0.321 N 
HETATM   22  C18   D T 153      -3.057  13.122  -1.467  1.00 23.65     0.095 A 
HETATM   23  C20   D T 153      -3.651  15.329  -0.517  1.00 22.39     0.131 C 
HETATM   24  C19   D T 153      -2.215  11.949  -1.449  1.00 24.93     0.095 A 
ENDBRANCH  17  18
ENDBRANCH  16  17
ENDBRANCH  15  16
ENDBRANCH  14  15
BRANCH   1  25
HETATM   25  C21   D T 153       2.983   5.838  -2.032  1.00 26.87     0.419 C 
HETATM   26  F1    D T 153       1.831   5.709  -1.429  1.00 26.36    -0.166 F 
HETATM   27  F2    D T 153       3.633   4.724  -1.875  1.00 25.74    -0.166 F 
HETATM   28  F3    D T 153       2.639   5.764  -3.276  1.00 29.44    -0.166 F 
ENDBRANCH   1  25
TORSDOF 5
ENDMDL
MODEL 4
REMARK VINA RESULT:    -5.203      7.324      9.824
REMARK INTER + INTRA:          -7.508
REMARK INTER:                  -6.959
REMARK INTRA:                  -0.549
REMARK UNBOUND:                -0.785
REMARK  5 active torsions:
REMARK  status: ('A' for Active; 'I' for Inactive)
REMARK    1  A    between atoms: C1_1  and  C21_25 
REMARK    2  A    between atoms: N1_14  and  C13_15 
REMARK    3  A    between atoms: C13_15  and  C14_16 
REMARK    4  A    between atoms: C14_16  and  C15_17 
REMARK    5  A    between atoms: C15_17  and  N2_18 
ROOT
HETATM    1  C1    D T 153      -4.634  13.242  -1.706  1.00 26.21     0.073 A 
HETATM    2  C2    D T 153      -3.332  13.603  -1.391  1.00 21.83     0.004 A 
HETATM    3  C3    D T 153      -2.532  12.719  -0.706  1.00 19.56     0.008 A 
HETATM    4  C4    D T 153      -3.008  11.472  -0.339  1.00 21.19     0.045 A 
HETATM    5  C5    D T 153      -4.280  11.061  -0.732  1.00 23.95     0.066 A 
HETATM    6  C6    D T 153      -5.123  11.982  -1.374  1.00 23.48     0.022 A 
HETATM    7  S     D T 153      -1.967  10.439   0.661  1.00 23.13    -0.084 SA
HETATM    8  C7    D T 153      -3.108   9.510   1.577  1.00 22.23     0.045 A 
HETATM    9  C8    D T 153      -2.679   8.979   2.797  1.00 19.63     0.008 A 
HETATM   10  C9    D T 153      -3.509   8.195   3.562  1.00 14.46     0.001 A 
HETATM   11  C10   D T 153      -4.760   7.917   3.095  1.00 16.71     0.002 A 
HETATM   12  C11   D T 153      -5.188   8.452   1.876  1.00 22.55     0.018 A 
HETATM   13  C12   D T 153      -4.401   9.318   1.093  1.00 24.03     0.066 A 
HETATM   14  N1    D T 153      -4.804   9.808  -0.266  1.00 27.67    -0.327 N 
ENDROOT
BRANCH  14  15
HETATM   15  C13   D T 153      -6.151   9.515  -0.757  1.00 25.39     0.108 C 
BRANCH  15  16
HETATM   16  C14   D T 153      -6.290   8.064  -1.239  1.00 23.98     0.049 C 
BRANCH  16  17
HETATM   17  C15   D T 153      -7.009   7.957  -2.589  1.00 23.67     0.108 C 
BRANCH  17  18
HETATM   18  N2    D T 153      -6.458   6.983  -3.486  1.00 22.79    -0.323 N 
HETATM   19  C16   D T 153      -6.453   7.267  -4.877  1.00 24.85     0.095 A 
HETATM   20  C17   D T 153      -5.923   6.328  -5.821  1.00 24.41     0.095 A 
HETATM   21  N3    D T 153      -5.393   5.082  -5.370  1.00 24.18    -0.321 N 
HETATM   22  C18   D T 153      -5.399   4.775  -3.979  1.00 23.65     0.095 A 
HETATM   23  C20   D T 153      -4.860   4.166  -6.317  1.00 22.39     0.131 C 
HETATM   24  C19   D T 153      -5.933   5.731  -3.037  1.00 24.93     0.095 A 
ENDBRANCH  17  18
ENDBRANCH  16  17
ENDBRANCH  15  16
ENDBRANCH  14  15
BRANCH   1  25
HETATM   25  C21   D T 153      -5.523  14.232  -2.308  1.00 26.87     0.419 C 
HETATM   26  F1    D T 153      -4.975  14.934  -3.264  1.00 26.36    -0.166 F 
HETATM   27  F2    D T 153      -5.989  15.067  -1.429  1.00 25.74    -0.166 F 
HETATM   28  F3    D T 153      -6.609  13.819  -2.874  1.00 29.44    -0.166 F 
ENDBRANCH   1  25
TORSDOF 5
ENDMDL
MODEL 5
REMARK VINA RESULT:    -5.176      3.987      6.999
REMARK INTER + INTRA:          -7.474
REMARK INTER:                  -6.135
REMARK INTRA:                  -1.339
REMARK UNBOUND:                -0.785
REMARK  5 active torsions:
REMARK  status: ('A' for Active; 'I' for Inactive)
REMARK    1  A    between atoms: C1_1  and  C21_25 
REMARK    2  A    between atoms: N1_14  and  C13_15 
REMARK    3  A    between atoms: C13_15  and  C14_16 
REMARK    4  A    between atoms: C14_16  and  C15_17 
REMARK    5  A    between atoms: C15_17  and  N2_18 
ROOT
HETATM    1  C1    D T 153       2.496   9.939  -1.353  1.00 26.21     0.073 A 
HETATM    2  C2    D T 153       1.644   9.081  -0.670  1.00 21.83     0.004 A 
HETATM    3  C3    D T 153       2.120   7.874  -0.216  1.00 19.56     0.008 A 
HETATM    4  C4    D T 153       3.440   7.512  -0.422  1.00 21.19     0.045 A 
HETATM    5  C5    D T 153       4.329   8.403  -1.019  1.00 23.95     0.066 A 
HETATM    6  C6    D T 153       3.834   9.608  -1.542  1.00 23.48     0.022 A 
HETATM    7  S     D T 153       3.949   5.883   0.070  1.00 23.13    -0.084 SA
HETATM    8  C7    D T 153       5.217   5.519  -1.053  1.00 22.23     0.045 A 
HETATM    9  C8    D T 153       5.495   4.170  -1.298  1.00 19.63     0.008 A 
HETATM   10  C9    D T 153       6.514   3.797  -2.142  1.00 14.46     0.001 A 
HETATM   11  C10   D T 153       7.275   4.770  -2.719  1.00 16.71     0.002 A 
HETATM   12  C11   D T 153       6.993   6.118  -2.475  1.00 22.55     0.018 A 
HETATM   13  C12   D T 153       5.915   6.550  -1.677  1.00 24.03     0.066 A 
HETATM   14  N1    D T 153       5.670   7.985  -1.318  1.00 27.67    -0.327 N 
ENDROOT
BRANCH  14  15
HETATM   15  C13   D T 153       6.484   9.025  -1.948  1.00 25.39     0.108 C 
BRANCH  15  16
HETATM   16  C14   D T 153       7.480   9.659  -0.967  1.00 23.98     0.049 C 
BRANCH  16  17
HETATM   17  C15   D T 153       7.893  11.076  -1.378  1.00 23.67     0.108 C 
BRANCH  17  18
HETATM   18  N2    D T 153       6.825  12.034  -1.385  1.00 22.79    -0.323 N 
HETATM   19  C16   D T 153       6.058  12.205  -0.204  1.00 24.85     0.095 A 
HETATM   20  C17   D T 153       4.974  13.141  -0.155  1.00 24.41     0.095 A 
HETATM   21  N3    D T 153       4.647  13.917  -1.307  1.00 24.18    -0.321 N 
HETATM   22  C18   D T 153       5.398  13.751  -2.506  1.00 23.65     0.095 A 
HETATM   23  C20   D T 153       3.577  14.850  -1.241  1.00 22.39     0.131 C 
HETATM   24  C19   D T 153       6.490  12.807  -2.541  1.00 24.93     0.095 A 
ENDBRANCH  17  18
ENDBRANCH  16  17
ENDBRANCH  15  16
ENDBRANCH  14  15
BRANCH   1  25
HETATM   25  C21   D T 153       1.954  11.154  -1.954  1.00 26.87     0.419 C 
HETATM   26  F1    D T 153       2.742  11.717  -2.831  1.00 26.36    -0.166 F 
HETATM   27  F2    D T 153       1.660  12.050  -1.061  1.00 25.74    -0.166 F 
HETATM   28  F3    D T 153       0.844  11.071  -2.612  1.00 29.44    -0.166 F 
ENDBRANCH   1  25
TORSDOF 5
ENDMDL
MODEL 6
REMARK VINA RESULT:    -5.073      3.314      6.928
REMARK INTER + INTRA:          -7.341
REMARK INTER:                  -6.533
REMARK INTRA:                  -0.808
REMARK UNBOUND:                -0.785
REMARK  5 active torsions:
REMARK  status: ('A' for Active; 'I' for Inactive)
REMARK    1  A    between atoms: C1_1  and  C21_25 
REMARK    2  A    between atoms: N1_14  and  C13_15 
REMARK    3  A    between atoms: C13_15  and  C14_16 
REMARK    4  A    between atoms: C14_16  and  C15_17 
REMARK    5  A    between atoms: C15_17  and  N2_18 
ROOT
HETATM    1  C1    D T 153      -0.686  10.712  -0.800  1.00 26.21     0.073 A 
HETATM    2  C2    D T 153      -1.103  10.337   0.470  1.00 21.83     0.004 A 
HETATM    3  C3    D T 153      -0.238   9.652   1.291  1.00 19.56     0.008 A 
HETATM    4  C4    D T 153       1.044   9.345   0.869  1.00 21.19     0.045 A 
HETATM    5  C5    D T 153       1.506   9.799  -0.364  1.00 23.95     0.066 A 
HETATM    6  C6    D T 153       0.608  10.441  -1.231  1.00 23.48     0.022 A 
HETATM    7  S     D T 153       2.056   8.341   1.928  1.00 23.13    -0.084 SA
HETATM    8  C7    D T 153       3.074   7.500   0.805  1.00 22.23     0.045 A 
HETATM    9  C8    D T 153       3.626   6.283   1.219  1.00 19.63     0.008 A 
HETATM   10  C9    D T 153       4.478   5.576   0.404  1.00 14.46     0.001 A 
HETATM   11  C10   D T 153       4.804   6.099  -0.813  1.00 16.71     0.002 A 
HETATM   12  C11   D T 153       4.249   7.315  -1.225  1.00 22.55     0.018 A 
HETATM   13  C12   D T 153       3.316   8.038  -0.457  1.00 24.03     0.066 A 
HETATM   14  N1    D T 153       2.801   9.394  -0.837  1.00 27.67    -0.327 N 
ENDROOT
BRANCH  14  15
HETATM   15  C13   D T 153       3.146   9.945  -2.148  1.00 25.39     0.108 C 
BRANCH  15  16
HETATM   16  C14   D T 153       4.456  10.745  -2.116  1.00 23.98     0.049 C 
BRANCH  16  17
HETATM   17  C15   D T 153       4.482  11.876  -3.150  1.00 23.67     0.108 C 
BRANCH  17  18
HETATM   18  N2    D T 153       4.296  13.190  -2.606  1.00 22.79    -0.323 N 
HETATM   19  C16   D T 153       5.026  14.268  -3.170  1.00 24.85     0.095 A 
HETATM   20  C17   D T 153       4.888  15.601  -2.662  1.00 24.41     0.095 A 
HETATM   21  N3    D T 153       4.007  15.862  -1.571  1.00 24.18    -0.321 N 
HETATM   22  C18   D T 153       3.273  14.791  -0.984  1.00 23.65     0.095 A 
HETATM   23  C20   D T 153       3.870  17.191  -1.085  1.00 22.39     0.131 C 
HETATM   24  C19   D T 153       3.420  13.453  -1.506  1.00 24.93     0.095 A 
ENDBRANCH  17  18
ENDBRANCH  16  17
ENDBRANCH  15  16
ENDBRANCH  14  15
BRANCH   1  25
HETATM   25  C21   D T 153      -1.649  11.313  -1.717  1.00 26.87     0.419 C 
HETATM   26  F1    D T 153      -2.801  10.698  -1.765  1.00 26.36    -0.166 F 
HETATM   27  F2    D T 153      -1.191  11.379  -2.931  1.00 25.74    -0.166 F 
HETATM   28  F3    D T 153      -2.012  12.537  -1.512  1.00 29.44    -0.166 F 
ENDBRANCH   1  25
TORSDOF 5
ENDMDL
MODEL 7
REMARK VINA RESULT:    -5.051      3.566      6.863
REMARK INTER + INTRA:          -7.313
REMARK INTER:                  -6.559
REMARK INTRA:                  -0.754
REMARK UNBOUND:                -0.785
REMARK  5 active torsions:
REMARK  status: ('A' for Active; 'I' for Inactive)
REMARK    1  A    between atoms: C1_1  and  C21_25 
REMARK    2  A    between atoms: N1_14  and  C13_15 
REMARK    3  A    between atoms: C13_15  and  C14_16 
REMARK    4  A    between atoms: C14_16  and  C15_17 
REMARK    5  A    between atoms: C15_17  and  N2_18 
ROOT
HETATM    1  C1    D T 153       3.826  13.014  -2.087  1.00 26.21     0.073 A 
HETATM    2  C2    D T 153       3.892  14.296  -1.560  1.00 21.83     0.004 A 
HETATM    3  C3    D T 153       3.054  14.647  -0.527  1.00 19.56     0.008 A 
HETATM    4  C4    D T 153       2.157  13.732  -0.002  1.00 21.19     0.045 A 
HETATM    5  C5    D T 153       2.148  12.415  -0.456  1.00 23.95     0.066 A 
HETATM    6  C6    D T 153       2.954  12.070  -1.553  1.00 23.48     0.022 A 
HETATM    7  S     D T 153       1.015  14.295   1.235  1.00 23.13    -0.084 SA
HETATM    8  C7    D T 153      -0.362  13.273   0.984  1.00 22.23     0.045 A 
HETATM    9  C8    D T 153      -1.606  13.747   1.411  1.00 19.63     0.008 A 
HETATM   10  C9    D T 153      -2.740  12.979   1.287  1.00 14.46     0.001 A 
HETATM   11  C10   D T 153      -2.627  11.725   0.764  1.00 16.71     0.002 A 
HETATM   12  C11   D T 153      -1.381  11.254   0.335  1.00 22.55     0.018 A 
HETATM   13  C12   D T 153      -0.207  12.030   0.374  1.00 24.03     0.066 A 
HETATM   14  N1    D T 153       1.151  11.499   0.022  1.00 27.67    -0.327 N 
ENDROOT
BRANCH  14  15
HETATM   15  C13   D T 153       1.265  10.156  -0.548  1.00 25.39     0.108 C 
BRANCH  15  16
HETATM   16  C14   D T 153       1.855   9.149   0.449  1.00 23.98     0.049 C 
BRANCH  16  17
HETATM   17  C15   D T 153       1.409   7.710   0.168  1.00 23.67     0.108 C 
BRANCH  17  18
HETATM   18  N2    D T 153       2.465   6.822  -0.225  1.00 22.79    -0.323 N 
HETATM   19  C16   D T 153       2.539   6.414  -1.583  1.00 24.85     0.095 A 
HETATM   20  C17   D T 153       3.566   5.521  -2.032  1.00 24.41     0.095 A 
HETATM   21  N3    D T 153       4.534   5.023  -1.109  1.00 24.18    -0.321 N 
HETATM   22  C18   D T 153       4.469   5.412   0.260  1.00 23.65     0.095 A 
HETATM   23  C20   D T 153       5.554   4.148  -1.571  1.00 22.39     0.131 C 
HETATM   24  C19   D T 153       3.431   6.315   0.699  1.00 24.93     0.095 A 
ENDBRANCH  17  18
ENDBRANCH  16  17
ENDBRANCH  15  16
ENDBRANCH  14  15
BRANCH   1  25
HETATM   25  C21   D T 153       4.615  12.688  -3.271  1.00 26.87     0.419 C 
HETATM   26  F1    D T 153       5.307  11.584  -3.168  1.00 26.36    -0.166 F 
HETATM   27  F2    D T 153       5.442  13.640  -3.582  1.00 25.74    -0.166 F 
HETATM   28  F3    D T 153       3.996  12.508  -4.391  1.00 29.44    -0.166 F 
ENDBRANCH   1  25
TORSDOF 5
ENDMDL
MODEL 8
REMARK VINA RESULT:    -5.024      3.010      6.656
REMARK INTER + INTRA:          -7.277
REMARK INTER:                  -5.903
REMARK INTRA:                  -1.374
REMARK UNBOUND:                -0.785
REMARK  5 active torsions:
REMARK  status: ('A' for Active; 'I' for Inactive)
REMARK    1  A    between atoms: C1_1  and  C21_25 
REMARK    2  A    between atoms: N1_14  and  C13_15 
REMARK    3  A    between atoms: C13_15  and  C14_16 
REMARK    4  A    between atoms: C14_16  and  C15_17 
REMARK    5  A    between atoms: C15_17  and  N2_18 
ROOT
HETATM    1  C1    D T 153       2.611   7.506  -1.530  1.00 26.21     0.073 A 
HETATM    2  C2    D T 153       2.616   8.688  -2.259  1.00 21.83     0.004 A 
HETATM    3  C3    D T 153       2.106   9.833  -1.695  1.00 19.56     0.008 A 
HETATM    4  C4    D T 153       1.598   9.821  -0.407  1.00 21.19     0.045 A 
HETATM    5  C5    D T 153       1.674   8.667   0.369  1.00 23.95     0.066 A 
HETATM    6  C6    D T 153       2.134   7.480  -0.223  1.00 23.48     0.022 A 
HETATM    7  S     D T 153       0.831  11.302   0.204  1.00 23.13    -0.084 SA
HETATM    8  C7    D T 153      -0.352  10.694   1.314  1.00 22.23     0.045 A 
HETATM    9  C8    D T 153      -1.457  11.506   1.590  1.00 19.63     0.008 A 
HETATM   10  C9    D T 153      -2.419  11.115   2.492  1.00 14.46     0.001 A 
HETATM   11  C10   D T 153      -2.262   9.927   3.142  1.00 16.71     0.002 A 
HETATM   12  C11   D T 153      -1.157   9.116   2.862  1.00 22.55     0.018 A 
HETATM   13  C12   D T 153      -0.186   9.438   1.895  1.00 24.03     0.066 A 
HETATM   14  N1    D T 153       1.059   8.634   1.666  1.00 27.67    -0.327 N 
ENDROOT
BRANCH  14  15
HETATM   15  C13   D T 153       1.217   7.355   2.359  1.00 25.39     0.108 C 
BRANCH  15  16
HETATM   16  C14   D T 153       2.172   7.456   3.556  1.00 23.98     0.049 C 
BRANCH  16  17
HETATM   17  C15   D T 153       3.298   6.418   3.502  1.00 23.67     0.108 C 
BRANCH  17  18
HETATM   18  N2    D T 153       4.287   6.658   2.491  1.00 22.79    -0.323 N 
HETATM   19  C16   D T 153       4.778   7.978   2.320  1.00 24.85     0.095 A 
HETATM   20  C17   D T 153       5.760   8.278   1.320  1.00 24.41     0.095 A 
HETATM   21  N3    D T 153       6.257   7.243   0.473  1.00 24.18    -0.321 N 
HETATM   22  C18   D T 153       5.768   5.913   0.622  1.00 23.65     0.095 A 
HETATM   23  C20   D T 153       7.239   7.553  -0.507  1.00 22.39     0.131 C 
HETATM   24  C19   D T 153       4.781   5.623   1.635  1.00 24.93     0.095 A 
ENDBRANCH  17  18
ENDBRANCH  16  17
ENDBRANCH  15  16
ENDBRANCH  14  15
BRANCH   1  25
HETATM   25  C21   D T 153       3.023   6.266  -2.180  1.00 26.87     0.419 C 
HETATM   26  F1    D T 153       4.317   6.081  -2.211  1.00 26.36    -0.166 F 
HETATM   27  F2    D T 153       2.589   6.187  -3.401  1.00 25.74    -0.166 F 
HETATM   28  F3    D T 153       2.609   5.146  -1.684  1.00 29.44    -0.166 F 
ENDBRANCH   1  25
TORSDOF 5
ENDMDL
MODEL 9
REMARK VINA RESULT:    -4.982      4.300      8.077
REMARK INTER + INTRA:          -7.223
REMARK INTER:                  -6.410
REMARK INTRA:                  -0.814
REMARK UNBOUND:                -0.785
REMARK  5 active torsions:
REMARK  status: ('A' for Active; 'I' for Inactive)
REMARK    1  A    between atoms: C1_1  and  C21_25 
REMARK    2  A    between atoms: N1_14  and  C13_15 
REMARK    3  A    between atoms: C13_15  and  C14_16 
REMARK    4  A    between atoms: C14_16  and  C15_17 
REMARK    5  A    between atoms: C15_17  and  N2_18 
ROOT
HETATM    1  C1    D T 153      -3.457   8.943   2.323  1.00 26.21     0.073 A 
HETATM    2  C2    D T 153      -4.795   8.616   2.155  1.00 21.83     0.004 A 
HETATM    3  C3    D T 153      -5.495   9.152   1.099  1.00 19.56     0.008 A 
HETATM    4  C4    D T 153      -4.876  10.002   0.199  1.00 21.19     0.045 A 
HETATM    5  C5    D T 153      -3.512  10.262   0.301  1.00 23.95     0.066 A 
HETATM    6  C6    D T 153      -2.808   9.770   1.412  1.00 23.48     0.022 A 
HETATM    7  S     D T 153      -5.875  10.763  -1.057  1.00 23.13    -0.084 SA
HETATM    8  C7    D T 153      -5.061  12.266  -1.340  1.00 22.23     0.045 A 
HETATM    9  C8    D T 153      -5.813  13.320  -1.869  1.00 19.63     0.008 A 
HETATM   10  C9    D T 153      -5.232  14.531  -2.163  1.00 14.46     0.001 A 
HETATM   11  C10   D T 153      -3.892  14.681  -1.956  1.00 16.71     0.002 A 
HETATM   12  C11   D T 153      -3.143  13.627  -1.425  1.00 22.55     0.018 A 
HETATM   13  C12   D T 153      -3.706  12.394  -1.040  1.00 24.03     0.066 A 
HETATM   14  N1    D T 153      -2.897  11.220  -0.575  1.00 27.67    -0.327 N 
ENDROOT
BRANCH  14  15
HETATM   15  C13   D T 153      -1.462  11.391  -0.346  1.00 25.39     0.108 C 
BRANCH  15  16
HETATM   16  C14   D T 153      -0.620  10.856  -1.513  1.00 23.98     0.049 C 
BRANCH  16  17
HETATM   17  C15   D T 153       0.886  10.959  -1.249  1.00 23.67     0.108 C 
BRANCH  17  18
HETATM   18  N2    D T 153       1.526   9.714  -0.936  1.00 22.79    -0.323 N 
HETATM   19  C16   D T 153       2.587   9.268  -1.765  1.00 24.85     0.095 A 
HETATM   20  C17   D T 153       3.258   8.028  -1.506  1.00 24.41     0.095 A 
HETATM   21  N3    D T 153       2.860   7.218  -0.401  1.00 24.18    -0.321 N 
HETATM   22  C18   D T 153       1.789   7.643   0.437  1.00 23.65     0.095 A 
HETATM   23  C20   D T 153       3.542   5.996  -0.148  1.00 22.39     0.131 C 
HETATM   24  C19   D T 153       1.123   8.896   0.167  1.00 24.93     0.095 A 
ENDBRANCH  17  18
ENDBRANCH  16  17
ENDBRANCH  15  16
ENDBRANCH  14  15
BRANCH   1  25
HETATM   25  C21   D T 153      -2.756   8.486   3.519  1.00 26.87     0.419 C 
HETATM   26  F1    D T 153      -1.583   9.034   3.696  1.00 26.36    -0.166 F 
HETATM   27  F2    D T 153      -2.590   7.198   3.524  1.00 25.74    -0.166 F 
HETATM   28  F3    D T 153      -3.314   8.679   4.669  1.00 29.44    -0.166 F 
ENDBRANCH   1  25
TORSDOF 5
ENDMDL
