MODEL 1
REMARK VINA RESULT:    -6.516      0.000      0.000
REMARK INTER + INTRA:          -9.517
REMARK INTER:                  -8.421
REMARK INTRA:                  -1.096
REMARK UNBOUND:                -1.096
REMARK  5 active torsions:
REMARK  status: ('A' for Active; 'I' for Inactive)
REMARK    1  A    between atoms: C1_1  and  C21_25 
REMARK    2  A    between atoms: N1_14  and  C13_15 
REMARK    3  A    between atoms: C13_15  and  C14_16 
REMARK    4  A    between atoms: C14_16  and  C15_17 
REMARK    5  A    between atoms: C15_17  and  N2_18 
ROOT
HETATM    1  C1    D T 153      26.382   7.417 -12.125  1.00 26.21     0.073 A 
HETATM    2  C2    D T 153      26.853   6.670 -13.196  1.00 21.83     0.004 A 
HETATM    3  C3    D T 153      28.083   6.060 -13.107  1.00 19.56     0.008 A 
HETATM    4  C4    D T 153      28.846   6.174 -11.958  1.00 21.19     0.045 A 
HETATM    5  C5    D T 153      28.344   6.838 -10.842  1.00 23.95     0.066 A 
HETATM    6  C6    D T 153      27.120   7.517 -10.950  1.00 23.48     0.022 A 
HETATM    7  S     D T 153      30.479   5.476 -11.966  1.00 23.13    -0.084 SA
HETATM    8  C7    D T 153      31.343   6.502 -10.868  1.00 22.23     0.045 A 
HETATM    9  C8    D T 153      32.733   6.576 -11.011  1.00 19.63     0.008 A 
HETATM   10  C9    D T 153      33.495   7.333 -10.153  1.00 14.46     0.001 A 
HETATM   11  C10   D T 153      32.873   7.991  -9.133  1.00 16.71     0.002 A 
HETATM   12  C11   D T 153      31.483   7.918  -8.994  1.00 22.55     0.018 A 
HETATM   13  C12   D T 153      30.654   7.216  -9.890  1.00 24.03     0.066 A 
HETATM   14  N1    D T 153      29.179   7.037  -9.690  1.00 27.67    -0.327 N 
ENDROOT
BRANCH  14  15
HETATM   15  C13   D T 153      28.516   7.755  -8.601  1.00 25.39     0.108 C 
BRANCH  15  16
HETATM   16  C14   D T 153      27.955   6.804  -7.534  1.00 23.98     0.049 C 
BRANCH  16  17
HETATM   17  C15   D T 153      29.034   5.909  -6.916  1.00 23.67     0.108 C 
BRANCH  17  18
HETATM   18  N2    D T 153      29.062   4.566  -7.423  1.00 22.79    -0.323 N 
HETATM   19  C16   D T 153      30.278   4.067  -7.956  1.00 24.85     0.095 A 
HETATM   20  C17   D T 153      30.363   2.737  -8.484  1.00 24.41     0.095 A 
HETATM   21  N3    D T 153      29.214   1.893  -8.483  1.00 24.18    -0.321 N 
HETATM   22  C18   D T 153      27.980   2.380  -7.963  1.00 23.65     0.095 A 
HETATM   23  C20   D T 153      29.316   0.572  -9.001  1.00 22.39     0.131 C 
HETATM   24  C19   D T 153      27.908   3.720  -7.431  1.00 24.93     0.095 A 
ENDBRANCH  17  18
ENDBRANCH  16  17
ENDBRANCH  15  16
ENDBRANCH  14  15
BRANCH   1  25
HETATM   25  C21   D T 153      25.144   8.176 -12.275  1.00 26.87     0.419 C 
HETATM   26  F1    D T 153      24.707   8.713 -11.167  1.00 26.36    -0.166 F 
HETATM   27  F2    D T 153      24.183   7.449 -12.762  1.00 25.74    -0.166 F 
HETATM   28  F3    D T 153      25.137   9.186 -13.080  1.00 29.44    -0.166 F 
ENDBRANCH   1  25
TORSDOF 5
ENDMDL
MODEL 2
REMARK VINA RESULT:    -6.290      1.628      2.213
REMARK INTER + INTRA:          -9.224
REMARK INTER:                  -8.334
REMARK INTRA:                  -0.891
REMARK UNBOUND:                -1.096
REMARK  5 active torsions:
REMARK  status: ('A' for Active; 'I' for Inactive)
REMARK    1  A    between atoms: C1_1  and  C21_25 
REMARK    2  A    between atoms: N1_14  and  C13_15 
REMARK    3  A    between atoms: C13_15  and  C14_16 
REMARK    4  A    between atoms: C14_16  and  C15_17 
REMARK    5  A    between atoms: C15_17  and  N2_18 
ROOT
HETATM    1  C1    D T 153      26.516   6.852 -12.398  1.00 26.21     0.073 A 
HETATM    2  C2    D T 153      27.090   6.548 -13.625  1.00 21.83     0.004 A 
HETATM    3  C3    D T 153      28.240   5.795 -13.666  1.00 19.56     0.008 A 
HETATM    4  C4    D T 153      28.822   5.329 -12.499  1.00 21.19     0.045 A 
HETATM    5  C5    D T 153      28.204   5.544 -11.271  1.00 23.95     0.066 A 
HETATM    6  C6    D T 153      27.067   6.366 -11.217  1.00 23.48     0.022 A 
HETATM    7  S     D T 153      30.377   4.481 -12.622  1.00 23.13    -0.084 SA
HETATM    8  C7    D T 153      31.136   4.846 -11.106  1.00 22.23     0.045 A 
HETATM    9  C8    D T 153      32.532   4.785 -11.051  1.00 19.63     0.008 A 
HETATM   10  C9    D T 153      33.207   5.018  -9.876  1.00 14.46     0.001 A 
HETATM   11  C10   D T 153      32.486   5.282  -8.749  1.00 16.71     0.002 A 
HETATM   12  C11   D T 153      31.090   5.347  -8.807  1.00 22.55     0.018 A 
HETATM   13  C12   D T 153      30.359   5.188 -10.001  1.00 24.03     0.066 A 
HETATM   14  N1    D T 153      28.862   5.144 -10.058  1.00 27.67    -0.327 N 
ENDROOT
BRANCH  14  15
HETATM   15  C13   D T 153      28.094   5.440  -8.848  1.00 25.39     0.108 C 
BRANCH  15  16
HETATM   16  C14   D T 153      27.878   4.194  -7.977  1.00 23.98     0.049 C 
BRANCH  16  17
HETATM   17  C15   D T 153      27.639   2.929  -8.807  1.00 23.67     0.108 C 
BRANCH  17  18
HETATM   18  N2    D T 153      28.495   1.825  -8.478  1.00 22.79    -0.323 N 
HETATM   19  C16   D T 153      28.728   1.531  -7.110  1.00 24.85     0.095 A 
HETATM   20  C17   D T 153      29.581   0.446  -6.723  1.00 24.41     0.095 A 
HETATM   21  N3    D T 153      30.214  -0.357  -7.717  1.00 24.18    -0.321 N 
HETATM   22  C18   D T 153      30.001  -0.070  -9.096  1.00 23.65     0.095 A 
HETATM   23  C20   D T 153      31.048  -1.436  -7.317  1.00 22.39     0.131 C 
HETATM   24  C19   D T 153      29.138   1.023  -9.474  1.00 24.93     0.095 A 
ENDBRANCH  17  18
ENDBRANCH  16  17
ENDBRANCH  15  16
ENDBRANCH  14  15
BRANCH   1  25
HETATM   25  C21   D T 153      25.378   7.766 -12.350  1.00 26.87     0.419 C 
HETATM   26  F1    D T 153      25.127   8.246 -11.161  1.00 26.36    -0.166 F 
HETATM   27  F2    D T 153      24.288   7.209 -12.785  1.00 25.74    -0.166 F 
HETATM   28  F3    D T 153      25.423   8.840 -13.067  1.00 29.44    -0.166 F 
ENDBRANCH   1  25
TORSDOF 5
ENDMDL
MODEL 3
REMARK VINA RESULT:    -6.091      2.272      3.254
REMARK INTER + INTRA:          -8.967
REMARK INTER:                  -7.925
REMARK INTRA:                  -1.043
REMARK UNBOUND:                -1.096
REMARK  5 active torsions:
REMARK  status: ('A' for Active; 'I' for Inactive)
REMARK    1  A    between atoms: C1_1  and  C21_25 
REMARK    2  A    between atoms: N1_14  and  C13_15 
REMARK    3  A    between atoms: C13_15  and  C14_16 
REMARK    4  A    between atoms: C14_16  and  C15_17 
REMARK    5  A    between atoms: C15_17  and  N2_18 
ROOT
HETATM    1  C1    D T 153      27.656   7.310 -11.351  1.00 26.21     0.073 A 
HETATM    2  C2    D T 153      28.913   7.520 -11.901  1.00 21.83     0.004 A 
HETATM    3  C3    D T 153      29.941   7.953 -11.095  1.00 19.56     0.008 A 
HETATM    4  C4    D T 153      29.736   8.169  -9.743  1.00 21.19     0.045 A 
HETATM    5  C5    D T 153      28.507   7.869  -9.161  1.00 23.95     0.066 A 
HETATM    6  C6    D T 153      27.438   7.489  -9.989  1.00 23.48     0.022 A 
HETATM    7  S     D T 153      31.070   8.857  -8.795  1.00 23.13    -0.084 SA
HETATM    8  C7    D T 153      30.244   9.741  -7.553  1.00 22.23     0.045 A 
HETATM    9  C8    D T 153      30.930  10.799  -6.948  1.00 19.63     0.008 A 
HETATM   10  C9    D T 153      30.362  11.522  -5.925  1.00 14.46     0.001 A 
HETATM   11  C10   D T 153      29.121  11.167  -5.486  1.00 16.71     0.002 A 
HETATM   12  C11   D T 153      28.435  10.111  -6.094  1.00 22.55     0.018 A 
HETATM   13  C12   D T 153      28.945   9.389  -7.192  1.00 24.03     0.066 A 
HETATM   14  N1    D T 153      28.272   8.187  -7.780  1.00 27.67    -0.327 N 
ENDROOT
BRANCH  14  15
HETATM   15  C13   D T 153      26.935   7.819  -7.312  1.00 25.39     0.108 C 
BRANCH  15  16
HETATM   16  C14   D T 153      26.966   6.630  -6.340  1.00 23.98     0.049 C 
BRANCH  16  17
HETATM   17  C15   D T 153      28.358   6.002  -6.221  1.00 23.67     0.108 C 
BRANCH  17  18
HETATM   18  N2    D T 153      28.526   4.774  -6.944  1.00 22.79    -0.323 N 
HETATM   19  C16   D T 153      27.820   3.625  -6.504  1.00 24.85     0.095 A 
HETATM   20  C17   D T 153      27.956   2.370  -7.183  1.00 24.41     0.095 A 
HETATM   21  N3    D T 153      28.812   2.259  -8.317  1.00 24.18    -0.321 N 
HETATM   22  C18   D T 153      29.539   3.398  -8.767  1.00 23.65     0.095 A 
HETATM   23  C20   D T 153      28.928   1.009  -8.986  1.00 22.39     0.131 C 
HETATM   24  C19   D T 153      29.392   4.658  -8.078  1.00 24.93     0.095 A 
ENDBRANCH  17  18
ENDBRANCH  16  17
ENDBRANCH  15  16
ENDBRANCH  14  15
BRANCH   1  25
HETATM   25  C21   D T 153      26.538   6.986 -12.231  1.00 26.87     0.419 C 
HETATM   26  F1    D T 153      25.654   7.941 -12.347  1.00 26.36    -0.166 F 
HETATM   27  F2    D T 153      25.909   5.917 -11.847  1.00 25.74    -0.166 F 
HETATM   28  F3    D T 153      26.790   6.707 -13.467  1.00 29.44    -0.166 F 
ENDBRANCH   1  25
TORSDOF 5
ENDMDL
MODEL 4
REMARK VINA RESULT:    -5.988      2.703      4.595
REMARK INTER + INTRA:          -8.834
REMARK INTER:                  -7.666
REMARK INTRA:                  -1.168
REMARK UNBOUND:                -1.096
REMARK  5 active torsions:
REMARK  status: ('A' for Active; 'I' for Inactive)
REMARK    1  A    between atoms: C1_1  and  C21_25 
REMARK    2  A    between atoms: N1_14  and  C13_15 
REMARK    3  A    between atoms: C13_15  and  C14_16 
REMARK    4  A    between atoms: C14_16  and  C15_17 
REMARK    5  A    between atoms: C15_17  and  N2_18 
ROOT
HETATM    1  C1    D T 153      26.674   6.876 -11.445  1.00 26.21     0.073 A 
HETATM    2  C2    D T 153      26.762   7.918 -10.533  1.00 21.83     0.004 A 
HETATM    3  C3    D T 153      27.353   7.699  -9.310  1.00 19.56     0.008 A 
HETATM    4  C4    D T 153      27.870   6.456  -8.988  1.00 21.19     0.045 A 
HETATM    5  C5    D T 153      27.876   5.431  -9.929  1.00 23.95     0.066 A 
HETATM    6  C6    D T 153      27.217   5.629 -11.153  1.00 23.48     0.022 A 
HETATM    7  S     D T 153      28.493   6.211  -7.343  1.00 23.13    -0.084 SA
HETATM    8  C7    D T 153      28.208   4.522  -7.070  1.00 22.23     0.045 A 
HETATM    9  C8    D T 153      28.098   4.091  -5.745  1.00 19.63     0.008 A 
HETATM   10  C9    D T 153      27.915   2.763  -5.442  1.00 14.46     0.001 A 
HETATM   11  C10   D T 153      27.873   1.860  -6.463  1.00 16.71     0.002 A 
HETATM   12  C11   D T 153      27.981   2.293  -7.789  1.00 22.55     0.018 A 
HETATM   13  C12   D T 153      28.096   3.650  -8.151  1.00 24.03     0.066 A 
HETATM   14  N1    D T 153      28.324   4.117  -9.556  1.00 27.67    -0.327 N 
ENDROOT
BRANCH  14  15
HETATM   15  C13   D T 153      28.267   3.145 -10.649  1.00 25.39     0.108 C 
BRANCH  15  16
HETATM   16  C14   D T 153      29.625   2.971 -11.343  1.00 23.98     0.049 C 
BRANCH  16  17
HETATM   17  C15   D T 153      30.137   1.528 -11.284  1.00 23.67     0.108 C 
BRANCH  17  18
HETATM   18  N2    D T 153      30.483   1.068  -9.969  1.00 22.79    -0.323 N 
HETATM   19  C16   D T 153      31.328   1.879  -9.167  1.00 24.85     0.095 A 
HETATM   20  C17   D T 153      31.714   1.467  -7.850  1.00 24.41     0.095 A 
HETATM   21  N3    D T 153      31.252   0.224  -7.325  1.00 24.18    -0.321 N 
HETATM   22  C18   D T 153      30.413  -0.610  -8.119  1.00 23.65     0.095 A 
HETATM   23  C20   D T 153      31.635  -0.166  -6.012  1.00 22.39     0.131 C 
HETATM   24  C19   D T 153      30.028  -0.182  -9.443  1.00 24.93     0.095 A 
ENDBRANCH  17  18
ENDBRANCH  16  17
ENDBRANCH  15  16
ENDBRANCH  14  15
BRANCH   1  25
HETATM   25  C21   D T 153      25.924   7.073 -12.683  1.00 26.87     0.419 C 
HETATM   26  F1    D T 153      26.562   6.700 -13.760  1.00 26.36    -0.166 F 
HETATM   27  F2    D T 153      25.572   8.313 -12.847  1.00 25.74    -0.166 F 
HETATM   28  F3    D T 153      24.793   6.463 -12.818  1.00 29.44    -0.166 F 
ENDBRANCH   1  25
TORSDOF 5
ENDMDL
MODEL 5
REMARK VINA RESULT:    -5.965      2.746      5.042
REMARK INTER + INTRA:          -8.805
REMARK INTER:                  -8.004
REMARK INTRA:                  -0.801
REMARK UNBOUND:                -1.096
REMARK  5 active torsions:
REMARK  status: ('A' for Active; 'I' for Inactive)
REMARK    1  A    between atoms: C1_1  and  C21_25 
REMARK    2  A    between atoms: N1_14  and  C13_15 
REMARK    3  A    between atoms: C13_15  and  C14_16 
REMARK    4  A    between atoms: C14_16  and  C15_17 
REMARK    5  A    between atoms: C15_17  and  N2_18 
ROOT
HETATM    1  C1    D T 153      26.762   6.854 -11.488  1.00 26.21     0.073 A 
HETATM    2  C2    D T 153      26.891   7.841 -10.522  1.00 21.83     0.004 A 
HETATM    3  C3    D T 153      27.520   7.547  -9.333  1.00 19.56     0.008 A 
HETATM    4  C4    D T 153      28.034   6.283  -9.100  1.00 21.19     0.045 A 
HETATM    5  C5    D T 153      27.998   5.314 -10.098  1.00 23.95     0.066 A 
HETATM    6  C6    D T 153      27.302   5.587 -11.286  1.00 23.48     0.022 A 
HETATM    7  S     D T 153      28.709   5.939  -7.494  1.00 23.13    -0.084 SA
HETATM    8  C7    D T 153      28.416   4.241  -7.308  1.00 22.23     0.045 A 
HETATM    9  C8    D T 153      28.344   3.735  -6.006  1.00 19.63     0.008 A 
HETATM   10  C9    D T 153      28.158   2.393  -5.774  1.00 14.46     0.001 A 
HETATM   11  C10   D T 153      28.074   1.550  -6.843  1.00 16.71     0.002 A 
HETATM   12  C11   D T 153      28.142   2.058  -8.145  1.00 22.55     0.018 A 
HETATM   13  C12   D T 153      28.259   3.432  -8.433  1.00 24.03     0.066 A 
HETATM   14  N1    D T 153      28.445   3.978  -9.816  1.00 27.67    -0.327 N 
ENDROOT
BRANCH  14  15
HETATM   15  C13   D T 153      28.342   3.070 -10.959  1.00 25.39     0.108 C 
BRANCH  15  16
HETATM   16  C14   D T 153      29.686   2.888 -11.680  1.00 23.98     0.049 C 
BRANCH  16  17
HETATM   17  C15   D T 153      30.720   2.151 -10.823  1.00 23.67     0.108 C 
BRANCH  17  18
HETATM   18  N2    D T 153      30.910   0.770 -11.169  1.00 22.79    -0.323 N 
HETATM   19  C16   D T 153      30.736  -0.212 -10.160  1.00 24.85     0.095 A 
HETATM   20  C17   D T 153      30.922  -1.604 -10.445  1.00 24.41     0.095 A 
HETATM   21  N3    D T 153      31.289  -2.022 -11.758  1.00 24.18    -0.321 N 
HETATM   22  C18   D T 153      31.480  -1.050 -12.781  1.00 23.65     0.095 A 
HETATM   23  C20   D T 153      31.459  -3.408 -12.028  1.00 22.39     0.131 C 
HETATM   24  C19   D T 153      31.287   0.349 -12.483  1.00 24.93     0.095 A 
ENDBRANCH  17  18
ENDBRANCH  16  17
ENDBRANCH  15  16
ENDBRANCH  14  15
BRANCH   1  25
HETATM   25  C21   D T 153      25.974   7.127 -12.687  1.00 26.87     0.419 C 
HETATM   26  F1    D T 153      24.938   6.345 -12.836  1.00 26.36    -0.166 F 
HETATM   27  F2    D T 153      26.688   7.042 -13.769  1.00 25.74    -0.166 F 
HETATM   28  F3    D T 153      25.445   8.298 -12.818  1.00 29.44    -0.166 F 
ENDBRANCH   1  25
TORSDOF 5
ENDMDL
MODEL 6
REMARK VINA RESULT:    -5.907      3.350      5.283
REMARK INTER + INTRA:          -8.729
REMARK INTER:                  -7.887
REMARK INTRA:                  -0.842
REMARK UNBOUND:                -1.096
REMARK  5 active torsions:
REMARK  status: ('A' for Active; 'I' for Inactive)
REMARK    1  A    between atoms: C1_1  and  C21_25 
REMARK    2  A    between atoms: N1_14  and  C13_15 
REMARK    3  A    between atoms: C13_15  and  C14_16 
REMARK    4  A    between atoms: C14_16  and  C15_17 
REMARK    5  A    between atoms: C15_17  and  N2_18 
ROOT
HETATM    1  C1    D T 153      26.498   7.393 -11.332  1.00 26.21     0.073 A 
HETATM    2  C2    D T 153      26.634   7.973 -10.079  1.00 21.83     0.004 A 
HETATM    3  C3    D T 153      27.431   7.366  -9.136  1.00 19.56     0.008 A 
HETATM    4  C4    D T 153      28.105   6.193  -9.429  1.00 21.19     0.045 A 
HETATM    5  C5    D T 153      28.054   5.654 -10.712  1.00 23.95     0.066 A 
HETATM    6  C6    D T 153      27.192   6.232 -11.657  1.00 23.48     0.022 A 
HETATM    7  S     D T 153      29.003   5.395  -8.122  1.00 23.13    -0.084 SA
HETATM    8  C7    D T 153      28.921   3.721  -8.563  1.00 22.23     0.045 A 
HETATM    9  C8    D T 153      29.064   2.775  -7.542  1.00 19.63     0.008 A 
HETATM   10  C9    D T 153      29.054   1.428  -7.815  1.00 14.46     0.001 A 
HETATM   11  C10   D T 153      28.933   1.025  -9.111  1.00 16.71     0.002 A 
HETATM   12  C11   D T 153      28.787   1.971 -10.131  1.00 22.55     0.018 A 
HETATM   13  C12   D T 153      28.718   3.358  -9.893  1.00 24.03     0.066 A 
HETATM   14  N1    D T 153      28.674   4.386 -10.982  1.00 27.67    -0.327 N 
ENDROOT
BRANCH  14  15
HETATM   15  C13   D T 153      28.532   3.947 -12.371  1.00 25.39     0.108 C 
BRANCH  15  16
HETATM   16  C14   D T 153      29.701   4.414 -13.250  1.00 23.98     0.049 C 
BRANCH  16  17
HETATM   17  C15   D T 153      31.050   3.863 -12.779  1.00 23.67     0.108 C 
BRANCH  17  18
HETATM   18  N2    D T 153      31.414   2.598 -13.351  1.00 22.79    -0.323 N 
HETATM   19  C16   D T 153      31.438   1.455 -12.511  1.00 24.85     0.095 A 
HETATM   20  C17   D T 153      31.802   0.168 -13.026  1.00 24.41     0.095 A 
HETATM   21  N3    D T 153      32.151   0.020 -14.401  1.00 24.18    -0.321 N 
HETATM   22  C18   D T 153      32.145   1.158 -15.257  1.00 23.65     0.095 A 
HETATM   23  C20   D T 153      32.500  -1.266 -14.899  1.00 22.39     0.131 C 
HETATM   24  C19   D T 153      31.774   2.448 -14.728  1.00 24.93     0.095 A 
ENDBRANCH  17  18
ENDBRANCH  16  17
ENDBRANCH  15  16
ENDBRANCH  14  15
BRANCH   1  25
HETATM   25  C21   D T 153      25.545   7.962 -12.281  1.00 26.87     0.419 C 
HETATM   26  F1    D T 153      25.996   8.055 -13.503  1.00 26.36    -0.166 F 
HETATM   27  F2    D T 153      25.146   9.145 -11.921  1.00 25.74    -0.166 F 
HETATM   28  F3    D T 153      24.419   7.354 -12.459  1.00 29.44    -0.166 F 
ENDBRANCH   1  25
TORSDOF 5
ENDMDL
MODEL 7
REMARK VINA RESULT:    -5.823      2.749      5.913
REMARK INTER + INTRA:          -8.621
REMARK INTER:                  -7.693
REMARK INTRA:                  -0.927
REMARK UNBOUND:                -1.096
REMARK  5 active torsions:
REMARK  status: ('A' for Active; 'I' for Inactive)
REMARK    1  A    between atoms: C1_1  and  C21_25 
REMARK    2  A    between atoms: N1_14  and  C13_15 
REMARK    3  A    between atoms: C13_15  and  C14_16 
REMARK    4  A    between atoms: C14_16  and  C15_17 
REMARK    5  A    between atoms: C15_17  and  N2_18 
ROOT
HETATM    1  C1    D T 153      25.713   8.940  -8.056  1.00 26.21     0.073 A 
HETATM    2  C2    D T 153      25.861   8.544  -6.734  1.00 21.83     0.004 A 
HETATM    3  C3    D T 153      26.681   7.481  -6.434  1.00 19.56     0.008 A 
HETATM    4  C4    D T 153      27.367   6.813  -7.434  1.00 21.19     0.045 A 
HETATM    5  C5    D T 153      27.304   7.262  -8.750  1.00 23.95     0.066 A 
HETATM    6  C6    D T 153      26.419   8.303  -9.071  1.00 23.48     0.022 A 
HETATM    7  S     D T 153      28.297   5.368  -6.988  1.00 23.13    -0.084 SA
HETATM    8  C7    D T 153      28.233   4.408  -8.430  1.00 22.23     0.045 A 
HETATM    9  C8    D T 153      28.406   3.027  -8.295  1.00 19.63     0.008 A 
HETATM   10  C9    D T 153      28.411   2.201  -9.394  1.00 14.46     0.001 A 
HETATM   11  C10   D T 153      28.276   2.758 -10.631  1.00 16.71     0.002 A 
HETATM   12  C11   D T 153      28.100   4.139 -10.764  1.00 22.55     0.018 A 
HETATM   13  C12   D T 153      28.014   5.016  -9.665  1.00 24.03     0.066 A 
HETATM   14  N1    D T 153      27.938   6.507  -9.796  1.00 27.67    -0.327 N 
ENDROOT
BRANCH  14  15
HETATM   15  C13   D T 153      27.781   7.098 -11.125  1.00 25.39     0.108 C 
BRANCH  15  16
HETATM   16  C14   D T 153      29.018   7.901 -11.554  1.00 23.98     0.049 C 
BRANCH  16  17
HETATM   17  C15   D T 153      30.228   7.646 -10.651  1.00 23.67     0.108 C 
BRANCH  17  18
HETATM   18  N2    D T 153      30.673   8.791  -9.907  1.00 22.79    -0.323 N 
HETATM   19  C16   D T 153      31.762   9.547 -10.412  1.00 24.85     0.095 A 
HETATM   20  C17   D T 153      32.254  10.694  -9.707  1.00 24.41     0.095 A 
HETATM   21  N3    D T 153      31.652  11.090  -8.477  1.00 24.18    -0.321 N 
HETATM   22  C18   D T 153      30.565  10.337  -7.948  1.00 23.65     0.095 A 
HETATM   23  C20   D T 153      32.144  12.237  -7.795  1.00 22.39     0.131 C 
HETATM   24  C19   D T 153      30.076   9.185  -8.668  1.00 24.93     0.095 A 
ENDBRANCH  17  18
ENDBRANCH  16  17
ENDBRANCH  15  16
ENDBRANCH  14  15
BRANCH   1  25
HETATM   25  C21   D T 153      24.737   9.975  -8.385  1.00 26.87     0.419 C 
HETATM   26  F1    D T 153      25.074  11.174  -7.990  1.00 26.36    -0.166 F 
HETATM   27  F2    D T 153      23.565   9.715  -7.889  1.00 25.74    -0.166 F 
HETATM   28  F3    D T 153      24.452  10.176  -9.630  1.00 29.44    -0.166 F 
ENDBRANCH   1  25
TORSDOF 5
ENDMDL
MODEL 8
REMARK VINA RESULT:    -5.781      3.464      6.515
REMARK INTER + INTRA:          -8.566
REMARK INTER:                  -7.696
REMARK INTRA:                  -0.870
REMARK UNBOUND:                -1.096
REMARK  5 active torsions:
REMARK  status: ('A' for Active; 'I' for Inactive)
REMARK    1  A    between atoms: C1_1  and  C21_25 
REMARK    2  A    between atoms: N1_14  and  C13_15 
REMARK    3  A    between atoms: C13_15  and  C14_16 
REMARK    4  A    between atoms: C14_16  and  C15_17 
REMARK    5  A    between atoms: C15_17  and  N2_18 
ROOT
HETATM    1  C1    D T 153      28.389   3.341  -8.107  1.00 26.21     0.073 A 
HETATM    2  C2    D T 153      28.518   2.593  -9.268  1.00 21.83     0.004 A 
HETATM    3  C3    D T 153      28.396   3.213 -10.491  1.00 19.56     0.008 A 
HETATM    4  C4    D T 153      28.159   4.574 -10.572  1.00 21.19     0.045 A 
HETATM    5  C5    D T 153      28.124   5.352  -9.418  1.00 23.95     0.066 A 
HETATM    6  C6    D T 153      28.182   4.716  -8.168  1.00 23.48     0.022 A 
HETATM    7  S     D T 153      27.877   5.279 -12.177  1.00 23.13    -0.084 SA
HETATM    8  C7    D T 153      26.826   6.614 -11.833  1.00 22.23     0.045 A 
HETATM    9  C8    D T 153      26.005   7.074 -12.868  1.00 19.63     0.008 A 
HETATM   10  C9    D T 153      25.175   8.155 -12.689  1.00 14.46     0.001 A 
HETATM   11  C10   D T 153      25.186   8.796 -11.486  1.00 16.71     0.002 A 
HETATM   12  C11   D T 153      26.005   8.332 -10.450  1.00 22.55     0.018 A 
HETATM   13  C12   D T 153      26.817   7.187 -10.562  1.00 24.03     0.066 A 
HETATM   14  N1    D T 153      27.780   6.745  -9.503  1.00 27.67    -0.327 N 
ENDROOT
BRANCH  14  15
HETATM   15  C13   D T 153      27.779   7.429  -8.209  1.00 25.39     0.108 C 
BRANCH  15  16
HETATM   16  C14   D T 153      28.918   8.453  -8.092  1.00 23.98     0.049 C 
BRANCH  16  17
HETATM   17  C15   D T 153      30.302   7.813  -8.236  1.00 23.67     0.108 C 
BRANCH  17  18
HETATM   18  N2    D T 153      31.201   8.518  -9.105  1.00 22.79    -0.323 N 
HETATM   19  C16   D T 153      31.332   9.922  -8.952  1.00 24.85     0.095 A 
HETATM   20  C17   D T 153      32.208  10.679  -9.797  1.00 24.41     0.095 A 
HETATM   21  N3    D T 153      32.963  10.024 -10.814  1.00 24.18    -0.321 N 
HETATM   22  C18   D T 153      32.837   8.616 -10.991  1.00 23.65     0.095 A 
HETATM   23  C20   D T 153      33.836  10.787 -11.638  1.00 22.39     0.131 C 
HETATM   24  C19   D T 153      31.954   7.864 -10.132  1.00 24.93     0.095 A 
ENDBRANCH  17  18
ENDBRANCH  16  17
ENDBRANCH  15  16
ENDBRANCH  14  15
BRANCH   1  25
HETATM   25  C21   D T 153      28.379   2.659  -6.816  1.00 26.87     0.419 C 
HETATM   26  F1    D T 153      28.445   1.357  -6.898  1.00 26.36    -0.166 F 
HETATM   27  F2    D T 153      27.324   2.954  -6.118  1.00 25.74    -0.166 F 
HETATM   28  F3    D T 153      29.326   2.921  -5.977  1.00 29.44    -0.166 F 
ENDBRANCH   1  25
TORSDOF 5
ENDMDL
MODEL 9
REMARK VINA RESULT:    -5.510      2.787      5.161
REMARK INTER + INTRA:          -8.217
REMARK INTER:                  -7.203
REMARK INTRA:                  -1.014
REMARK UNBOUND:                -1.096
REMARK  5 active torsions:
REMARK  status: ('A' for Active; 'I' for Inactive)
REMARK    1  A    between atoms: C1_1  and  C21_25 
REMARK    2  A    between atoms: N1_14  and  C13_15 
REMARK    3  A    between atoms: C13_15  and  C14_16 
REMARK    4  A    between atoms: C14_16  and  C15_17 
REMARK    5  A    between atoms: C15_17  and  N2_18 
ROOT
HETATM    1  C1    D T 153      25.791   9.310  -8.127  1.00 26.21     0.073 A 
HETATM    2  C2    D T 153      26.324   9.271  -6.846  1.00 21.83     0.004 A 
HETATM    3  C3    D T 153      27.269   8.320  -6.535  1.00 19.56     0.008 A 
HETATM    4  C4    D T 153      27.699   7.413  -7.489  1.00 21.19     0.045 A 
HETATM    5  C5    D T 153      27.244   7.503  -8.801  1.00 23.95     0.066 A 
HETATM    6  C6    D T 153      26.233   8.428  -9.108  1.00 23.48     0.022 A 
HETATM    7  S     D T 153      28.816   6.131  -6.978  1.00 23.13    -0.084 SA
HETATM    8  C7    D T 153      28.426   4.828  -8.053  1.00 22.23     0.045 A 
HETATM    9  C8    D T 153      28.727   3.529  -7.631  1.00 19.63     0.008 A 
HETATM   10  C9    D T 153      28.488   2.445  -8.443  1.00 14.46     0.001 A 
HETATM   11  C10   D T 153      27.978   2.661  -9.689  1.00 16.71     0.002 A 
HETATM   12  C11   D T 153      27.674   3.961 -10.108  1.00 22.55     0.018 A 
HETATM   13  C12   D T 153      27.833   5.094  -9.286  1.00 24.03     0.066 A 
HETATM   14  N1    D T 153      27.618   6.500  -9.759  1.00 27.67    -0.327 N 
ENDROOT
BRANCH  14  15
HETATM   15  C13   D T 153      27.059   6.724 -11.093  1.00 25.39     0.108 C 
BRANCH  15  16
HETATM   16  C14   D T 153      28.136   7.111 -12.117  1.00 23.98     0.049 C 
BRANCH  16  17
HETATM   17  C15   D T 153      28.472   5.967 -13.079  1.00 23.67     0.108 C 
BRANCH  17  18
HETATM   18  N2    D T 153      29.712   5.297 -12.805  1.00 22.79    -0.323 N 
HETATM   19  C16   D T 153      30.125   4.252 -13.671  1.00 24.85     0.095 A 
HETATM   20  C17   D T 153      31.348   3.542 -13.441  1.00 24.41     0.095 A 
HETATM   21  N3    D T 153      32.172   3.879 -12.327  1.00 24.18    -0.321 N 
HETATM   22  C18   D T 153      31.769   4.918 -11.439  1.00 23.65     0.095 A 
HETATM   23  C20   D T 153      33.389   3.173 -12.118  1.00 22.39     0.131 C 
HETATM   24  C19   D T 153      30.536   5.628 -11.683  1.00 24.93     0.095 A 
ENDBRANCH  17  18
ENDBRANCH  16  17
ENDBRANCH  15  16
ENDBRANCH  14  15
BRANCH   1  25
HETATM   25  C21   D T 153      24.691  10.226  -8.414  1.00 26.87     0.419 C 
HETATM   26  F1    D T 153      23.600   9.982  -7.738  1.00 26.36    -0.166 F 
HETATM   27  F2    D T 153      24.376  10.231  -9.674  1.00 25.74    -0.166 F 
HETATM   28  F3    D T 153      24.867  11.486  -8.187  1.00 29.44    -0.166 F 
ENDBRANCH   1  25
TORSDOF 5
ENDMDL
