MODEL 1
REMARK VINA RESULT:    -7.846      0.000      0.000
REMARK INTER + INTRA:          -9.154
REMARK INTER:                  -8.764
REMARK INTRA:                  -0.391
REMARK UNBOUND:                -0.391
REMARK  2 active torsions:
REMARK  status: ('A' for Active; 'I' for Inactive)
REMARK    1  A    between atoms: C5_4  and  O7_13 
REMARK    2  A    between atoms: C8_10  and  O7_13 
ROOT
HETATM    1  O7    D T 502       6.669  17.020  35.388  1.00 28.67    -0.304 OA
ENDROOT
BRANCH   1   2
HETATM    2  C5    D T 502       5.829  18.080  35.358  1.00 33.71     0.125 A 
HETATM    3  C6    D T 502       5.137  18.403  36.547  1.00 25.06     0.154 A 
HETATM    4  C1    D T 502       4.301  19.456  36.548  1.00 17.88     0.041 A 
HETATM    5  O17   D T 502       5.296  17.675  37.638  1.00 23.24    -0.188 OA
HETATM    6  C2    D T 502       4.190  20.185  35.394  1.00 31.97     0.060 A 
HETATM    7  C3    D T 502       4.870  19.886  34.206  1.00 21.44     0.014 A 
HETATM    8 CL14   D T 502       3.140  21.591  35.415  1.00 33.89    -0.082 Cl
HETATM    9  C4    D T 502       5.686  18.815  34.223  1.00 26.23     0.028 A 
ENDBRANCH   1   2
BRANCH   1  10
HETATM   10  C8    D T 502       6.371  15.882  34.635  1.00 57.24     0.111 A 
HETATM   11  C9    D T 502       7.457  15.182  34.060  1.00 45.39     0.081 A 
HETATM   12  C10   D T 502       7.261  14.048  33.315  1.00 19.78     0.025 A 
HETATM   13 CL16   D T 502       9.097  15.745  34.282  1.00 34.00    -0.080 Cl
HETATM   14  C11   D T 502       5.953  13.583  33.136  1.00 50.55     0.059 A 
HETATM   15  C12   D T 502       4.862  14.257  33.704  1.00 64.03     0.013 A 
HETATM   16 CL15   D T 502       5.679  12.174  32.188  1.00 39.89    -0.082 Cl
HETATM   17  C13   D T 502       5.096  15.417  34.453  1.00 34.58     0.026 A 
ENDBRANCH   1  10
TORSDOF 2
ENDMDL
MODEL 2
REMARK VINA RESULT:    -7.773     10.744     12.846
REMARK INTER + INTRA:          -9.073
REMARK INTER:                  -8.833
REMARK INTRA:                  -0.239
REMARK UNBOUND:                -0.391
REMARK  2 active torsions:
REMARK  status: ('A' for Active; 'I' for Inactive)
REMARK    1  A    between atoms: C5_4  and  O7_13 
REMARK    2  A    between atoms: C8_10  and  O7_13 
ROOT
HETATM    1  O7    D T 502       0.345  14.751  44.938  1.00 28.67    -0.304 OA
ENDROOT
BRANCH   1   2
HETATM    2  C5    D T 502       1.353  15.552  44.525  1.00 33.71     0.125 A 
HETATM    3  C6    D T 502       2.675  15.080  44.686  1.00 25.06     0.154 A 
HETATM    4  C1    D T 502       3.697  15.854  44.278  1.00 17.88     0.041 A 
HETATM    5  O17   D T 502       2.908  13.904  45.241  1.00 23.24    -0.188 OA
HETATM    6  C2    D T 502       3.395  17.055  43.692  1.00 31.97     0.060 A 
HETATM    7  C3    D T 502       2.092  17.540  43.519  1.00 21.44     0.014 A 
HETATM    8 CL14   D T 502       4.729  18.036  43.111  1.00 33.89    -0.082 Cl
HETATM    9  C4    D T 502       1.087  16.758  43.953  1.00 26.23     0.028 A 
ENDBRANCH   1   2
BRANCH   1  10
HETATM   10  C8    D T 502      -0.763  15.311  45.578  1.00 57.24     0.111 A 
HETATM   11  C9    D T 502      -0.588  15.749  46.913  1.00 45.39     0.081 A 
HETATM   12  C10   D T 502      -1.616  16.322  47.616  1.00 19.78     0.025 A 
HETATM   13 CL16   D T 502       0.957  15.572  47.712  1.00 34.00    -0.080 Cl
HETATM   14  C11   D T 502      -2.855  16.475  46.983  1.00 50.55     0.059 A 
HETATM   15  C12   D T 502      -3.049  16.055  45.659  1.00 64.03     0.013 A 
HETATM   16 CL15   D T 502      -4.166  17.171  47.853  1.00 39.89    -0.082 Cl
HETATM   17  C13   D T 502      -1.979  15.467  44.971  1.00 34.58     0.026 A 
ENDBRANCH   1  10
TORSDOF 2
ENDMDL
MODEL 3
REMARK VINA RESULT:    -7.686     10.958     12.639
REMARK INTER + INTRA:          -8.976
REMARK INTER:                  -8.868
REMARK INTRA:                  -0.108
REMARK UNBOUND:                -0.391
REMARK  2 active torsions:
REMARK  status: ('A' for Active; 'I' for Inactive)
REMARK    1  A    between atoms: C5_4  and  O7_13 
REMARK    2  A    between atoms: C8_10  and  O7_13 
ROOT
HETATM    1  O7    D T 502       0.084  14.885  45.191  1.00 28.67    -0.304 OA
ENDROOT
BRANCH   1   2
HETATM    2  C5    D T 502      -0.976  15.403  45.854  1.00 33.71     0.125 A 
HETATM    3  C6    D T 502      -0.737  15.995  47.114  1.00 25.06     0.154 A 
HETATM    4  C1    D T 502      -1.772  16.523  47.792  1.00 17.88     0.041 A 
HETATM    5  O17   D T 502       0.480  16.017  47.629  1.00 23.24    -0.188 OA
HETATM    6  C2    D T 502      -3.007  16.488  47.201  1.00 31.97     0.060 A 
HETATM    7  C3    D T 502      -3.265  15.911  45.951  1.00 21.44     0.014 A 
HETATM    8 CL14   D T 502      -4.344  17.228  48.064  1.00 33.89    -0.082 Cl
HETATM    9  C4    D T 502      -2.219  15.370  45.301  1.00 26.23     0.028 A 
ENDBRANCH   1   2
BRANCH   1  10
HETATM   10  C8    D T 502       1.064  15.741  44.683  1.00 57.24     0.111 A 
HETATM   11  C9    D T 502       2.407  15.301  44.751  1.00 45.39     0.081 A 
HETATM   12  C10   D T 502       3.434  16.069  44.266  1.00 19.78     0.025 A 
HETATM   13 CL16   D T 502       2.802  13.754  45.463  1.00 34.00    -0.080 Cl
HETATM   14  C11   D T 502       3.129  17.306  43.688  1.00 50.55     0.059 A 
HETATM   15  C12   D T 502       1.804  17.758  43.602  1.00 64.03     0.013 A 
HETATM   16 CL15   D T 502       4.403  18.296  43.091  1.00 39.89    -0.082 Cl
HETATM   17  C13   D T 502       0.778  16.952  44.114  1.00 34.58     0.026 A 
ENDBRANCH   1  10
TORSDOF 2
ENDMDL
MODEL 4
REMARK VINA RESULT:    -7.643      1.635      5.850
REMARK INTER + INTRA:          -8.927
REMARK INTER:                  -8.849
REMARK INTRA:                  -0.078
REMARK UNBOUND:                -0.391
REMARK  2 active torsions:
REMARK  status: ('A' for Active; 'I' for Inactive)
REMARK    1  A    between atoms: C5_4  and  O7_13 
REMARK    2  A    between atoms: C8_10  and  O7_13 
ROOT
HETATM    1  O7    D T 502       5.318  16.828  35.269  1.00 28.67    -0.304 OA
ENDROOT
BRANCH   1   2
HETATM    2  C5    D T 502       5.404  15.739  34.471  1.00 33.71     0.125 A 
HETATM    3  C6    D T 502       6.689  15.207  34.221  1.00 25.06     0.154 A 
HETATM    4  C1    D T 502       6.802  14.121  33.437  1.00 17.88     0.041 A 
HETATM    5  O17   D T 502       7.765  15.775  34.735  1.00 23.24    -0.188 OA
HETATM    6  C2    D T 502       5.651  13.563  32.946  1.00 31.97     0.060 A 
HETATM    7  C3    D T 502       4.367  14.071  33.186  1.00 21.44     0.014 A 
HETATM    8 CL14   D T 502       5.799  12.113  31.969  1.00 33.89    -0.082 Cl
HETATM    9  C4    D T 502       4.280  15.170  33.957  1.00 26.23     0.028 A 
ENDBRANCH   1   2
BRANCH   1  10
HETATM   10  C8    D T 502       4.559  17.926  34.858  1.00 57.24     0.111 A 
HETATM   11  C9    D T 502       5.260  19.096  34.483  1.00 45.39     0.081 A 
HETATM   12  C10   D T 502       4.599  20.218  34.055  1.00 19.78     0.025 A 
HETATM   13 CL16   D T 502       7.006  19.147  34.553  1.00 34.00    -0.080 Cl
HETATM   14  C11   D T 502       3.202  20.185  33.988  1.00 50.55     0.059 A 
HETATM   15  C12   D T 502       2.486  19.034  34.347  1.00 64.03     0.013 A 
HETATM   16 CL15   D T 502       2.348  21.588  33.475  1.00 39.89    -0.082 Cl
HETATM   17  C13   D T 502       3.192  17.906  34.787  1.00 34.58     0.026 A 
ENDBRANCH   1  10
TORSDOF 2
ENDMDL
MODEL 5
REMARK VINA RESULT:    -7.590     10.646     12.005
REMARK INTER + INTRA:          -8.868
REMARK INTER:                  -8.418
REMARK INTRA:                  -0.449
REMARK UNBOUND:                -0.391
REMARK  2 active torsions:
REMARK  status: ('A' for Active; 'I' for Inactive)
REMARK    1  A    between atoms: C5_4  and  O7_13 
REMARK    2  A    between atoms: C8_10  and  O7_13 
ROOT
HETATM    1  O7    D T 502      -0.384  16.274  44.136  1.00 28.67    -0.304 OA
ENDROOT
BRANCH   1   2
HETATM    2  C5    D T 502      -1.311  16.449  45.106  1.00 33.71     0.125 A 
HETATM    3  C6    D T 502      -1.441  17.740  45.666  1.00 25.06     0.154 A 
HETATM    4  C1    D T 502      -2.360  17.942  46.627  1.00 17.88     0.041 A 
HETATM    5  O17   D T 502      -0.665  18.730  45.264  1.00 23.24    -0.188 OA
HETATM    6  C2    D T 502      -3.149  16.884  46.990  1.00 31.97     0.060 A 
HETATM    7  C3    D T 502      -3.040  15.598  46.445  1.00 21.44     0.014 A 
HETATM    8 CL14   D T 502      -4.384  17.167  48.205  1.00 33.89    -0.082 Cl
HETATM    9  C4    D T 502      -2.101  15.413  45.500  1.00 26.23     0.028 A 
ENDBRANCH   1   2
BRANCH   1  10
HETATM   10  C8    D T 502      -0.781  15.821  42.876  1.00 57.24     0.111 A 
HETATM   11  C9    D T 502      -0.074  14.725  42.329  1.00 45.39     0.081 A 
HETATM   12  C10   D T 502      -0.401  14.204  41.103  1.00 19.78     0.025 A 
HETATM   13 CL16   D T 502       1.251  13.994  43.205  1.00 34.00    -0.080 Cl
HETATM   14  C11   D T 502      -1.465  14.777  40.397  1.00 50.55     0.059 A 
HETATM   15  C12   D T 502      -2.185  15.859  40.923  1.00 64.03     0.013 A 
HETATM   16 CL15   D T 502      -1.880  14.155  38.847  1.00 39.89    -0.082 Cl
HETATM   17  C13   D T 502      -1.820  16.371  42.175  1.00 34.58     0.026 A 
ENDBRANCH   1  10
TORSDOF 2
ENDMDL
MODEL 6
REMARK VINA RESULT:    -7.542      1.818      2.291
REMARK INTER + INTRA:          -8.815
REMARK INTER:                  -8.257
REMARK INTRA:                  -0.557
REMARK UNBOUND:                -0.391
REMARK  2 active torsions:
REMARK  status: ('A' for Active; 'I' for Inactive)
REMARK    1  A    between atoms: C5_4  and  O7_13 
REMARK    2  A    between atoms: C8_10  and  O7_13 
ROOT
HETATM    1  O7    D T 502       5.610  17.378  34.606  1.00 28.67    -0.304 OA
ENDROOT
BRANCH   1   2
HETATM    2  C5    D T 502       5.056  17.793  35.768  1.00 33.71     0.125 A 
HETATM    3  C6    D T 502       4.006  18.736  35.696  1.00 25.06     0.154 A 
HETATM    4  C1    D T 502       3.433  19.160  36.836  1.00 17.88     0.041 A 
HETATM    5  O17   D T 502       3.603  19.208  34.529  1.00 23.24    -0.188 OA
HETATM    6  C2    D T 502       3.879  18.623  38.014  1.00 31.97     0.060 A 
HETATM    7  C3    D T 502       4.914  17.683  38.108  1.00 21.44     0.014 A 
HETATM    8 CL14   D T 502       3.090  19.137  39.495  1.00 33.89    -0.082 Cl
HETATM    9  C4    D T 502       5.487  17.289  36.956  1.00 26.23     0.028 A 
ENDBRANCH   1   2
BRANCH   1  10
HETATM   10  C8    D T 502       5.441  16.054  34.194  1.00 57.24     0.111 A 
HETATM   11  C9    D T 502       6.605  15.256  34.084  1.00 45.39     0.081 A 
HETATM   12  C10   D T 502       6.534  13.942  33.699  1.00 19.78     0.025 A 
HETATM   13 CL16   D T 502       8.180  15.926  34.438  1.00 34.00    -0.080 Cl
HETATM   14  C11   D T 502       5.277  13.394  33.421  1.00 50.55     0.059 A 
HETATM   15  C12   D T 502       4.111  14.163  33.531  1.00 64.03     0.013 A 
HETATM   16 CL15   D T 502       5.166  11.753  32.914  1.00 39.89    -0.082 Cl
HETATM   17  C13   D T 502       4.218  15.506  33.920  1.00 34.58     0.026 A 
ENDBRANCH   1  10
TORSDOF 2
ENDMDL
MODEL 7
REMARK VINA RESULT:    -7.532     10.547     12.860
REMARK INTER + INTRA:          -8.803
REMARK INTER:                  -8.397
REMARK INTRA:                  -0.406
REMARK UNBOUND:                -0.391
REMARK  2 active torsions:
REMARK  status: ('A' for Active; 'I' for Inactive)
REMARK    1  A    between atoms: C5_4  and  O7_13 
REMARK    2  A    between atoms: C8_10  and  O7_13 
ROOT
HETATM    1  O7    D T 502      -0.450  16.294  43.868  1.00 28.67    -0.304 OA
ENDROOT
BRANCH   1   2
HETATM    2  C5    D T 502      -0.823  15.731  42.696  1.00 33.71     0.125 A 
HETATM    3  C6    D T 502      -0.212  14.511  42.330  1.00 25.06     0.154 A 
HETATM    4  C1    D T 502      -0.569  13.926  41.173  1.00 17.88     0.041 A 
HETATM    5  O17   D T 502       0.707  13.959  43.102  1.00 23.24    -0.188 OA
HETATM    6  C2    D T 502      -1.540  14.533  40.422  1.00 31.97     0.060 A 
HETATM    7  C3    D T 502      -2.163  15.739  40.769  1.00 21.44     0.014 A 
HETATM    8 CL14   D T 502      -2.044  13.737  38.941  1.00 33.89    -0.082 Cl
HETATM    9  C4    D T 502      -1.774  16.318  41.920  1.00 26.23     0.028 A 
ENDBRANCH   1   2
BRANCH   1  10
HETATM   10  C8    D T 502      -1.387  16.439  44.893  1.00 57.24     0.111 A 
HETATM   11  C9    D T 502      -1.376  17.657  45.614  1.00 45.39     0.081 A 
HETATM   12  C10   D T 502      -2.267  17.892  46.629  1.00 19.78     0.025 A 
HETATM   13 CL16   D T 502      -0.217  18.907  45.232  1.00 34.00    -0.080 Cl
HETATM   14  C11   D T 502      -3.205  16.901  46.939  1.00 50.55     0.059 A 
HETATM   15  C12   D T 502      -3.240  15.690  46.232  1.00 64.03     0.013 A 
HETATM   16 CL15   D T 502      -4.320  17.165  48.223  1.00 39.89    -0.082 Cl
HETATM   17  C13   D T 502      -2.310  15.478  45.205  1.00 34.58     0.026 A 
ENDBRANCH   1  10
TORSDOF 2
ENDMDL
MODEL 8
REMARK VINA RESULT:    -7.214     10.385     11.944
REMARK INTER + INTRA:          -8.448
REMARK INTER:                  -8.044
REMARK INTRA:                  -0.405
REMARK UNBOUND:                -0.391
REMARK  2 active torsions:
REMARK  status: ('A' for Active; 'I' for Inactive)
REMARK    1  A    between atoms: C5_4  and  O7_13 
REMARK    2  A    between atoms: C8_10  and  O7_13 
ROOT
HETATM    1  O7    D T 502      -0.686  17.041  43.489  1.00 28.67    -0.304 OA
ENDROOT
BRANCH   1   2
HETATM    2  C5    D T 502      -1.502  16.986  44.567  1.00 33.71     0.125 A 
HETATM    3  C6    D T 502      -1.415  18.034  45.511  1.00 25.06     0.154 A 
HETATM    4  C1    D T 502      -2.220  18.007  46.588  1.00 17.88     0.041 A 
HETATM    5  O17   D T 502      -0.547  19.017  45.349  1.00 23.24    -0.188 OA
HETATM    6  C2    D T 502      -3.113  16.974  46.694  1.00 31.97     0.060 A 
HETATM    7  C3    D T 502      -3.220  15.929  45.767  1.00 21.44     0.014 A 
HETATM    8 CL14   D T 502      -4.199  16.974  48.073  1.00 33.89    -0.082 Cl
HETATM    9  C4    D T 502      -2.390  15.965  44.709  1.00 26.23     0.028 A 
ENDBRANCH   1   2
BRANCH   1  10
HETATM   10  C8    D T 502       0.509  16.319  43.492  1.00 57.24     0.111 A 
HETATM   11  C9    D T 502       0.571  15.164  42.677  1.00 45.39     0.081 A 
HETATM   12  C10   D T 502       1.708  14.401  42.607  1.00 19.78     0.025 A 
HETATM   13 CL16   D T 502      -0.810  14.672  41.726  1.00 34.00    -0.080 Cl
HETATM   14  C11   D T 502       2.822  14.791  43.359  1.00 50.55     0.059 A 
HETATM   15  C12   D T 502       2.786  15.936  44.167  1.00 64.03     0.013 A 
HETATM   16 CL15   D T 502       4.253  13.836  43.305  1.00 39.89    -0.082 Cl
HETATM   17  C13   D T 502       1.606  16.690  44.222  1.00 34.58     0.026 A 
ENDBRANCH   1  10
TORSDOF 2
ENDMDL
MODEL 9
REMARK VINA RESULT:    -7.209      9.420     11.024
REMARK INTER + INTRA:          -8.443
REMARK INTER:                  -7.966
REMARK INTRA:                  -0.476
REMARK UNBOUND:                -0.391
REMARK  2 active torsions:
REMARK  status: ('A' for Active; 'I' for Inactive)
REMARK    1  A    between atoms: C5_4  and  O7_13 
REMARK    2  A    between atoms: C8_10  and  O7_13 
ROOT
HETATM    1  O7    D T 502       0.519  17.701  43.145  1.00 28.67    -0.304 OA
ENDROOT
BRANCH   1   2
HETATM    2  C5    D T 502      -0.387  17.648  44.147  1.00 33.71     0.125 A 
HETATM    3  C6    D T 502      -1.673  17.146  43.845  1.00 25.06     0.154 A 
HETATM    4  C1    D T 502      -2.591  17.077  44.825  1.00 17.88     0.041 A 
HETATM    5  O17   D T 502      -1.976  16.764  42.617  1.00 23.24    -0.188 OA
HETATM    6  C2    D T 502      -2.215  17.469  46.083  1.00 31.97     0.060 A 
HETATM    7  C3    D T 502      -0.945  17.964  46.405  1.00 21.44     0.014 A 
HETATM    8 CL14   D T 502      -3.400  17.324  47.370  1.00 33.89    -0.082 Cl
HETATM    9  C4    D T 502      -0.049  18.044  45.405  1.00 26.23     0.028 A 
ENDBRANCH   1   2
BRANCH   1  10
HETATM   10  C8    D T 502       1.495  16.706  43.045  1.00 57.24     0.111 A 
HETATM   11  C9    D T 502       2.842  17.098  43.232  1.00 45.39     0.081 A 
HETATM   12  C10   D T 502       3.865  16.188  43.164  1.00 19.78     0.025 A 
HETATM   13 CL16   D T 502       3.246  18.767  43.559  1.00 34.00    -0.080 Cl
HETATM   14  C11   D T 502       3.553  14.848  42.910  1.00 50.55     0.059 A 
HETATM   15  C12   D T 502       2.225  14.436  42.729  1.00 64.03     0.013 A 
HETATM   16 CL15   D T 502       4.822  13.692  42.798  1.00 39.89    -0.082 Cl
HETATM   17  C13   D T 502       1.203  15.392  42.797  1.00 34.58     0.026 A 
ENDBRANCH   1  10
TORSDOF 2
ENDMDL
