MODEL 1
REMARK VINA RESULT:    -8.099      0.000      0.000
REMARK INTER + INTRA:          -9.297
REMARK INTER:                  -9.046
REMARK INTRA:                  -0.251
REMARK UNBOUND:                -0.251
REMARK  2 active torsions:
REMARK  status: ('A' for Active; 'I' for Inactive)
REMARK    1  A    between atoms: C5_4  and  O7_13 
REMARK    2  A    between atoms: C8_10  and  O7_13 
ROOT
HETATM    1  O7    D T 502       6.730  17.164  35.073  1.00 28.67    -0.304 OA
ENDROOT
BRANCH   1   2
HETATM    2  C5    D T 502       5.845  18.161  35.303  1.00 33.71     0.125 A 
HETATM    3  C6    D T 502       5.284  18.256  36.596  1.00 25.06     0.154 A 
HETATM    4  C1    D T 502       4.407  19.242  36.853  1.00 17.88     0.041 A 
HETATM    5  O17   D T 502       5.603  17.383  37.535  1.00 23.24    -0.188 OA
HETATM    6  C2    D T 502       4.128  20.129  35.848  1.00 31.97     0.060 A 
HETATM    7  C3    D T 502       4.677  20.056  34.561  1.00 21.44     0.014 A 
HETATM    8 CL14   D T 502       3.025  21.446  36.205  1.00 33.89    -0.082 Cl
HETATM    9  C4    D T 502       5.536  19.049  34.320  1.00 26.23     0.028 A 
ENDBRANCH   1   2
BRANCH   1  10
HETATM   10  C8    D T 502       6.330  16.039  34.349  1.00 57.24     0.111 A 
HETATM   11  C9    D T 502       7.344  15.154  33.913  1.00 45.39     0.081 A 
HETATM   12  C10   D T 502       7.043  14.018  33.206  1.00 19.78     0.025 A 
HETATM   13 CL16   D T 502       9.024  15.483  34.263  1.00 34.00    -0.080 Cl
HETATM   14  C11   D T 502       5.700  13.740  32.927  1.00 50.55     0.059 A 
HETATM   15  C12   D T 502       4.678  14.599  33.357  1.00 64.03     0.013 A 
HETATM   16 CL15   D T 502       5.300  12.331  32.023  1.00 39.89    -0.082 Cl
HETATM   17  C13   D T 502       5.020  15.756  34.070  1.00 34.58     0.026 A 
ENDBRANCH   1  10
TORSDOF 2
ENDMDL
MODEL 2
REMARK VINA RESULT:    -8.052      1.128      1.791
REMARK INTER + INTRA:          -9.244
REMARK INTER:                  -8.989
REMARK INTRA:                  -0.255
REMARK UNBOUND:                -0.251
REMARK  2 active torsions:
REMARK  status: ('A' for Active; 'I' for Inactive)
REMARK    1  A    between atoms: C5_4  and  O7_13 
REMARK    2  A    between atoms: C8_10  and  O7_13 
ROOT
HETATM    1  O7    D T 502       6.811  17.250  35.006  1.00 28.67    -0.304 OA
ENDROOT
BRANCH   1   2
HETATM    2  C5    D T 502       6.022  17.966  35.840  1.00 33.71     0.125 A 
HETATM    3  C6    D T 502       5.741  19.306  35.490  1.00 25.06     0.154 A 
HETATM    4  C1    D T 502       4.955  20.038  36.298  1.00 17.88     0.041 A 
HETATM    5  O17   D T 502       6.254  19.838  34.395  1.00 23.24    -0.188 OA
HETATM    6  C2    D T 502       4.436  19.429  37.409  1.00 31.97     0.060 A 
HETATM    7  C3    D T 502       4.697  18.101  37.772  1.00 21.44     0.014 A 
HETATM    8 CL14   D T 502       3.365  20.372  38.431  1.00 33.89    -0.082 Cl
HETATM    9  C4    D T 502       5.503  17.394  36.960  1.00 26.23     0.028 A 
ENDBRANCH   1   2
BRANCH   1  10
HETATM   10  C8    D T 502       6.271  16.170  34.304  1.00 57.24     0.111 A 
HETATM   11  C9    D T 502       7.165  15.155  33.888  1.00 45.39     0.081 A 
HETATM   12  C10   D T 502       6.724  14.052  33.205  1.00 19.78     0.025 A 
HETATM   13 CL16   D T 502       8.874  15.278  34.235  1.00 34.00    -0.080 Cl
HETATM   14  C11   D T 502       5.356  13.939  32.929  1.00 50.55     0.059 A 
HETATM   15  C12   D T 502       4.451  14.929  33.338  1.00 64.03     0.013 A 
HETATM   16 CL15   D T 502       4.782  12.574  32.053  1.00 39.89    -0.082 Cl
HETATM   17  C13   D T 502       4.936  16.048  34.028  1.00 34.58     0.026 A 
ENDBRANCH   1  10
TORSDOF 2
ENDMDL
MODEL 3
REMARK VINA RESULT:    -7.810      1.468      5.954
REMARK INTER + INTRA:          -8.975
REMARK INTER:                  -8.674
REMARK INTRA:                  -0.301
REMARK UNBOUND:                -0.251
REMARK  2 active torsions:
REMARK  status: ('A' for Active; 'I' for Inactive)
REMARK    1  A    between atoms: C5_4  and  O7_13 
REMARK    2  A    between atoms: C8_10  and  O7_13 
ROOT
HETATM    1  O7    D T 502       6.811  17.098  35.167  1.00 28.67    -0.304 OA
ENDROOT
BRANCH   1   2
HETATM    2  C5    D T 502       6.483  16.039  34.394  1.00 33.71     0.125 A 
HETATM    3  C6    D T 502       7.525  15.177  33.984  1.00 25.06     0.154 A 
HETATM    4  C1    D T 502       7.224  14.112  33.220  1.00 17.88     0.041 A 
HETATM    5  O17   D T 502       8.776  15.418  34.331  1.00 23.24    -0.188 OA
HETATM    6  C2    D T 502       5.908  13.900  32.906  1.00 31.97     0.060 A 
HETATM    7  C3    D T 502       4.860  14.738  33.306  1.00 21.44     0.014 A 
HETATM    8 CL14   D T 502       5.515  12.478  31.955  1.00 33.89    -0.082 Cl
HETATM    9  C4    D T 502       5.186  15.809  34.053  1.00 26.23     0.028 A 
ENDBRANCH   1   2
BRANCH   1  10
HETATM   10  C8    D T 502       6.000  18.235  35.161  1.00 57.24     0.111 A 
HETATM   11  C9    D T 502       5.204  18.471  36.307  1.00 45.39     0.081 A 
HETATM   12  C10   D T 502       4.387  19.568  36.394  1.00 19.78     0.025 A 
HETATM   13 CL16   D T 502       5.239  17.362  37.657  1.00 34.00    -0.080 Cl
HETATM   14  C11   D T 502       4.357  20.466  35.321  1.00 50.55     0.059 A 
HETATM   15  C12   D T 502       5.143  20.257  34.179  1.00 64.03     0.013 A 
HETATM   16 CL15   D T 502       3.322  21.839  35.399  1.00 39.89    -0.082 Cl
HETATM   17  C13   D T 502       5.962  19.122  34.119  1.00 34.58     0.026 A 
ENDBRANCH   1  10
TORSDOF 2
ENDMDL
MODEL 4
REMARK VINA RESULT:    -7.257      2.469      3.336
REMARK INTER + INTRA:          -8.357
REMARK INTER:                  -8.015
REMARK INTRA:                  -0.341
REMARK UNBOUND:                -0.251
REMARK  2 active torsions:
REMARK  status: ('A' for Active; 'I' for Inactive)
REMARK    1  A    between atoms: C5_4  and  O7_13 
REMARK    2  A    between atoms: C8_10  and  O7_13 
ROOT
HETATM    1  O7    D T 502       4.865  17.959  35.332  1.00 28.67    -0.304 OA
ENDROOT
BRANCH   1   2
HETATM    2  C5    D T 502       4.659  17.949  36.669  1.00 33.71     0.125 A 
HETATM    3  C6    D T 502       5.073  19.081  37.406  1.00 25.06     0.154 A 
HETATM    4  C1    D T 502       4.874  19.100  38.736  1.00 17.88     0.041 A 
HETATM    5  O17   D T 502       5.659  20.101  36.804  1.00 23.24    -0.188 OA
HETATM    6  C2    D T 502       4.245  18.024  39.304  1.00 31.97     0.060 A 
HETATM    7  C3    D T 502       3.823  16.894  38.592  1.00 21.44     0.014 A 
HETATM    8 CL14   D T 502       3.939  18.077  41.031  1.00 33.89    -0.082 Cl
HETATM    9  C4    D T 502       4.051  16.888  37.266  1.00 26.23     0.028 A 
ENDBRANCH   1   2
BRANCH   1  10
HETATM   10  C8    D T 502       5.180  16.769  34.674  1.00 57.24     0.111 A 
HETATM   11  C9    D T 502       4.135  16.116  33.978  1.00 45.39     0.081 A 
HETATM   12  C10   D T 502       4.354  14.949  33.293  1.00 19.78     0.025 A 
HETATM   13 CL16   D T 502       2.519  16.782  33.971  1.00 34.00    -0.080 Cl
HETATM   14  C11   D T 502       5.646  14.411  33.286  1.00 50.55     0.059 A 
HETATM   15  C12   D T 502       6.699  15.045  33.961  1.00 64.03     0.013 A 
HETATM   16 CL15   D T 502       5.941  12.935  32.451  1.00 39.89    -0.082 Cl
HETATM   17  C13   D T 502       6.439  16.233  34.658  1.00 34.58     0.026 A 
ENDBRANCH   1  10
TORSDOF 2
ENDMDL
MODEL 5
REMARK VINA RESULT:    -7.213      2.649      6.125
REMARK INTER + INTRA:          -8.308
REMARK INTER:                  -7.778
REMARK INTRA:                  -0.529
REMARK UNBOUND:                -0.251
REMARK  2 active torsions:
REMARK  status: ('A' for Active; 'I' for Inactive)
REMARK    1  A    between atoms: C5_4  and  O7_13 
REMARK    2  A    between atoms: C8_10  and  O7_13 
ROOT
HETATM    1  O7    D T 502       3.496  17.771  35.433  1.00 28.67    -0.304 OA
ENDROOT
BRANCH   1   2
HETATM    2  C5    D T 502       4.383  16.920  34.869  1.00 33.71     0.125 A 
HETATM    3  C6    D T 502       5.747  17.077  35.205  1.00 25.06     0.154 A 
HETATM    4  C1    D T 502       6.650  16.240  34.664  1.00 17.88     0.041 A 
HETATM    5  O17   D T 502       6.134  18.038  36.024  1.00 23.24    -0.188 OA
HETATM    6  C2    D T 502       6.190  15.250  33.836  1.00 31.97     0.060 A 
HETATM    7  C3    D T 502       4.843  15.074  33.495  1.00 21.44     0.014 A 
HETATM    8 CL14   D T 502       7.366  14.126  33.178  1.00 33.89    -0.082 Cl
HETATM    9  C4    D T 502       3.960  15.936  34.031  1.00 26.23     0.028 A 
ENDBRANCH   1   2
BRANCH   1  10
HETATM   10  C8    D T 502       2.911  18.773  34.655  1.00 57.24     0.111 A 
HETATM   11  C9    D T 502       1.542  18.624  34.328  1.00 45.39     0.081 A 
HETATM   12  C10   D T 502       0.882  19.564  33.579  1.00 19.78     0.025 A 
HETATM   13 CL16   D T 502       0.643  17.228  34.874  1.00 34.00    -0.080 Cl
HETATM   14  C11   D T 502       1.590  20.689  33.143  1.00 50.55     0.059 A 
HETATM   15  C12   D T 502       2.944  20.861  33.461  1.00 64.03     0.013 A 
HETATM   16 CL15   D T 502       0.788  21.871  32.183  1.00 39.89    -0.082 Cl
HETATM   17  C13   D T 502       3.592  19.878  34.223  1.00 34.58     0.026 A 
ENDBRANCH   1  10
TORSDOF 2
ENDMDL
MODEL 6
REMARK VINA RESULT:    -7.192      1.831      2.507
REMARK INTER + INTRA:          -8.284
REMARK INTER:                  -8.063
REMARK INTRA:                  -0.222
REMARK UNBOUND:                -0.251
REMARK  2 active torsions:
REMARK  status: ('A' for Active; 'I' for Inactive)
REMARK    1  A    between atoms: C5_4  and  O7_13 
REMARK    2  A    between atoms: C8_10  and  O7_13 
ROOT
HETATM    1  O7    D T 502       5.010  17.563  35.915  1.00 28.67    -0.304 OA
ENDROOT
BRANCH   1   2
HETATM    2  C5    D T 502       4.718  18.791  35.430  1.00 33.71     0.125 A 
HETATM    3  C6    D T 502       3.781  19.573  36.143  1.00 25.06     0.154 A 
HETATM    4  C1    D T 502       3.477  20.801  35.686  1.00 17.88     0.041 A 
HETATM    5  O17   D T 502       3.200  19.102  37.232  1.00 23.24    -0.188 OA
HETATM    6  C2    D T 502       4.124  21.244  34.563  1.00 31.97     0.060 A 
HETATM    7  C3    D T 502       5.060  20.487  33.845  1.00 21.44     0.014 A 
HETATM    8 CL14   D T 502       3.766  22.868  34.003  1.00 33.89    -0.082 Cl
HETATM    9  C4    D T 502       5.333  19.254  34.308  1.00 26.23     0.028 A 
ENDBRANCH   1   2
BRANCH   1  10
HETATM   10  C8    D T 502       5.310  16.525  35.030  1.00 57.24     0.111 A 
HETATM   11  C9    D T 502       4.233  15.957  34.308  1.00 45.39     0.081 A 
HETATM   12  C10   D T 502       4.435  14.942  33.408  1.00 19.78     0.025 A 
HETATM   13 CL16   D T 502       2.601  16.536  34.542  1.00 34.00    -0.080 Cl
HETATM   14  C11   D T 502       5.738  14.476  33.207  1.00 50.55     0.059 A 
HETATM   15  C12   D T 502       6.821  15.029  33.906  1.00 64.03     0.013 A 
HETATM   16 CL15   D T 502       6.013  13.188  32.099  1.00 39.89    -0.082 Cl
HETATM   17  C13   D T 502       6.580  16.060  34.824  1.00 34.58     0.026 A 
ENDBRANCH   1  10
TORSDOF 2
ENDMDL
MODEL 7
REMARK VINA RESULT:    -7.071     11.051     13.169
REMARK INTER + INTRA:          -8.149
REMARK INTER:                  -7.910
REMARK INTRA:                  -0.239
REMARK UNBOUND:                -0.251
REMARK  2 active torsions:
REMARK  status: ('A' for Active; 'I' for Inactive)
REMARK    1  A    between atoms: C5_4  and  O7_13 
REMARK    2  A    between atoms: C8_10  and  O7_13 
ROOT
HETATM    1  O7    D T 502       0.331  16.020  46.995  1.00 28.67    -0.304 OA
ENDROOT
BRANCH   1   2
HETATM    2  C5    D T 502      -1.018  16.115  47.000  1.00 33.71     0.125 A 
HETATM    3  C6    D T 502      -1.736  15.303  46.093  1.00 25.06     0.154 A 
HETATM    4  C1    D T 502      -3.079  15.372  46.082  1.00 17.88     0.041 A 
HETATM    5  O17   D T 502      -1.102  14.500  45.258  1.00 23.24    -0.188 OA
HETATM    6  C2    D T 502      -3.685  16.208  46.983  1.00 31.97     0.060 A 
HETATM    7  C3    D T 502      -2.992  17.016  47.894  1.00 21.44     0.014 A 
HETATM    8 CL14   D T 502      -5.439  16.253  47.003  1.00 33.89    -0.082 Cl
HETATM    9  C4    D T 502      -1.648  16.947  47.873  1.00 26.23     0.028 A 
ENDBRANCH   1   2
BRANCH   1  10
HETATM   10  C8    D T 502       1.063  16.648  45.984  1.00 57.24     0.111 A 
HETATM   11  C9    D T 502       2.152  15.933  45.433  1.00 45.39     0.081 A 
HETATM   12  C10   D T 502       2.919  16.464  44.428  1.00 19.78     0.025 A 
HETATM   13 CL16   D T 502       2.558  14.338  46.021  1.00 34.00    -0.080 Cl
HETATM   14  C11   D T 502       2.598  17.737  43.945  1.00 50.55     0.059 A 
HETATM   15  C12   D T 502       1.518  18.461  44.470  1.00 64.03     0.013 A 
HETATM   16 CL15   D T 502       3.560  18.434  42.699  1.00 39.89    -0.082 Cl
HETATM   17  C13   D T 502       0.759  17.892  45.501  1.00 34.58     0.026 A 
ENDBRANCH   1  10
TORSDOF 2
ENDMDL
MODEL 8
REMARK VINA RESULT:    -7.035      1.904      6.195
REMARK INTER + INTRA:          -8.108
REMARK INTER:                  -7.767
REMARK INTRA:                  -0.341
REMARK UNBOUND:                -0.251
REMARK  2 active torsions:
REMARK  status: ('A' for Active; 'I' for Inactive)
REMARK    1  A    between atoms: C5_4  and  O7_13 
REMARK    2  A    between atoms: C8_10  and  O7_13 
ROOT
HETATM    1  O7    D T 502       4.304  17.434  34.934  1.00 28.67    -0.304 OA
ENDROOT
BRANCH   1   2
HETATM    2  C5    D T 502       5.328  16.622  34.584  1.00 33.71     0.125 A 
HETATM    3  C6    D T 502       5.007  15.379  33.993  1.00 25.06     0.154 A 
HETATM    4  C1    D T 502       6.006  14.555  33.629  1.00 17.88     0.041 A 
HETATM    5  O17   D T 502       3.748  15.023  33.813  1.00 23.24    -0.188 OA
HETATM    6  C2    D T 502       7.292  14.984  33.823  1.00 31.97     0.060 A 
HETATM    7  C3    D T 502       7.632  16.214  34.402  1.00 21.44     0.014 A 
HETATM    8 CL14   D T 502       8.592  13.929  33.295  1.00 33.89    -0.082 Cl
HETATM    9  C4    D T 502       6.616  17.013  34.777  1.00 26.23     0.028 A 
ENDBRANCH   1   2
BRANCH   1  10
HETATM   10  C8    D T 502       4.449  18.295  36.024  1.00 57.24     0.111 A 
HETATM   11  C9    D T 502       4.655  19.666  35.745  1.00 45.39     0.081 A 
HETATM   12  C10   D T 502       4.795  20.586  36.752  1.00 19.78     0.025 A 
HETATM   13 CL16   D T 502       4.738  20.235  34.095  1.00 34.00    -0.080 Cl
HETATM   14  C11   D T 502       4.723  20.143  38.077  1.00 50.55     0.059 A 
HETATM   15  C12   D T 502       4.511  18.789  38.378  1.00 64.03     0.013 A 
HETATM   16 CL15   D T 502       4.918  21.275  39.358  1.00 39.89    -0.082 Cl
HETATM   17  C13   D T 502       4.379  17.874  37.325  1.00 34.58     0.026 A 
ENDBRANCH   1  10
TORSDOF 2
ENDMDL
MODEL 9
REMARK VINA RESULT:    -7.013     10.683     13.079
REMARK INTER + INTRA:          -8.084
REMARK INTER:                  -7.941
REMARK INTRA:                  -0.143
REMARK UNBOUND:                -0.251
REMARK  2 active torsions:
REMARK  status: ('A' for Active; 'I' for Inactive)
REMARK    1  A    between atoms: C5_4  and  O7_13 
REMARK    2  A    between atoms: C8_10  and  O7_13 
ROOT
HETATM    1  O7    D T 502       0.346  14.711  45.313  1.00 28.67    -0.304 OA
ENDROOT
BRANCH   1   2
HETATM    2  C5    D T 502       1.340  15.499  44.842  1.00 33.71     0.125 A 
HETATM    3  C6    D T 502       2.665  15.023  44.954  1.00 25.06     0.154 A 
HETATM    4  C1    D T 502       3.671  15.783  44.488  1.00 17.88     0.041 A 
HETATM    5  O17   D T 502       2.917  13.856  45.521  1.00 23.24    -0.188 OA
HETATM    6  C2    D T 502       3.350  16.975  43.894  1.00 31.97     0.060 A 
HETATM    7  C3    D T 502       2.043  17.464  43.768  1.00 21.44     0.014 A 
HETATM    8 CL14   D T 502       4.662  17.939  43.237  1.00 33.89    -0.082 Cl
HETATM    9  C4    D T 502       1.054  16.695  44.260  1.00 26.23     0.028 A 
ENDBRANCH   1   2
BRANCH   1  10
HETATM   10  C8    D T 502      -0.754  15.292  45.947  1.00 57.24     0.111 A 
HETATM   11  C9    D T 502      -0.532  15.897  47.207  1.00 45.39     0.081 A 
HETATM   12  C10   D T 502      -1.550  16.502  47.897  1.00 19.78     0.025 A 
HETATM   13 CL16   D T 502       1.060  15.889  47.929  1.00 34.00    -0.080 Cl
HETATM   14  C11   D T 502      -2.827  16.521  47.325  1.00 50.55     0.059 A 
HETATM   15  C12   D T 502      -3.069  15.935  46.073  1.00 64.03     0.013 A 
HETATM   16 CL15   D T 502      -4.126  17.256  48.181  1.00 39.89    -0.082 Cl
HETATM   17  C13   D T 502      -2.007  15.318  45.398  1.00 34.58     0.026 A 
ENDBRANCH   1  10
TORSDOF 2
ENDMDL
