MODEL 1
REMARK VINA RESULT:    -7.326      0.000      0.000
REMARK INTER + INTRA:          -8.741
REMARK INTER:                  -8.183
REMARK INTRA:                  -0.559
REMARK UNBOUND:                -0.559
REMARK  2 active torsions:
REMARK  status: ('A' for Active; 'I' for Inactive)
REMARK    1  A    between atoms: C5_4  and  O7_13 
REMARK    2  A    between atoms: C8_10  and  O7_13 
ROOT
HETATM    1  O7    D T 502       5.338   1.252  -7.877  1.00 28.67    -0.304 OA
ENDROOT
BRANCH   1   2
HETATM    2  C5    D T 502       5.396   1.444  -9.215  1.00 33.71     0.125 A 
HETATM    3  C6    D T 502       6.548   2.070  -9.740  1.00 25.06     0.154 A 
HETATM    4  C1    D T 502       6.633   2.265 -11.068  1.00 17.88     0.041 A 
HETATM    5  O17   D T 502       7.520   2.472  -8.942  1.00 23.24    -0.188 OA
HETATM    6  C2    D T 502       5.605   1.811 -11.850  1.00 31.97     0.060 A 
HETATM    7  C3    D T 502       4.456   1.182 -11.350  1.00 21.44     0.014 A 
HETATM    8 CL14   D T 502       5.746   2.019 -13.586  1.00 33.89    -0.082 Cl
HETATM    9  C4    D T 502       4.383   1.016 -10.017  1.00 26.23     0.028 A 
ENDBRANCH   1   2
BRANCH   1  10
HETATM   10  C8    D T 502       4.396   1.953  -7.121  1.00 57.24     0.111 A 
HETATM   11  C9    D T 502       3.392   1.195  -6.472  1.00 45.39     0.081 A 
HETATM   12  C10   D T 502       2.433   1.797  -5.699  1.00 19.78     0.025 A 
HETATM   13 CL16   D T 502       3.343  -0.544  -6.637  1.00 34.00    -0.080 Cl
HETATM   14  C11   D T 502       2.467   3.188  -5.554  1.00 50.55     0.059 A 
HETATM   15  C12   D T 502       3.456   3.958  -6.181  1.00 64.03     0.013 A 
HETATM   16 CL15   D T 502       1.260   3.967  -4.606  1.00 39.89    -0.082 Cl
HETATM   17  C13   D T 502       4.418   3.313  -6.970  1.00 34.58     0.026 A 
ENDBRANCH   1  10
TORSDOF 2
ENDMDL
MODEL 2
REMARK VINA RESULT:    -7.290      1.600      6.071
REMARK INTER + INTRA:          -8.701
REMARK INTER:                  -8.150
REMARK INTRA:                  -0.551
REMARK UNBOUND:                -0.559
REMARK  2 active torsions:
REMARK  status: ('A' for Active; 'I' for Inactive)
REMARK    1  A    between atoms: C5_4  and  O7_13 
REMARK    2  A    between atoms: C8_10  and  O7_13 
ROOT
HETATM    1  O7    D T 502       5.492   1.503  -7.366  1.00 28.67    -0.304 OA
ENDROOT
BRANCH   1   2
HETATM    2  C5    D T 502       4.447   2.039  -6.697  1.00 33.71     0.125 A 
HETATM    3  C6    D T 502       3.565   1.154  -6.037  1.00 25.06     0.154 A 
HETATM    4  C1    D T 502       2.522   1.662  -5.358  1.00 17.88     0.041 A 
HETATM    5  O17   D T 502       3.752  -0.152  -6.096  1.00 23.24    -0.188 OA
HETATM    6  C2    D T 502       2.387   3.024  -5.314  1.00 31.97     0.060 A 
HETATM    7  C3    D T 502       3.253   3.919  -5.957  1.00 21.44     0.014 A 
HETATM    8 CL14   D T 502       1.056   3.684  -4.382  1.00 33.89    -0.082 Cl
HETATM    9  C4    D T 502       4.279   3.389  -6.647  1.00 26.23     0.028 A 
ENDBRANCH   1   2
BRANCH   1  10
HETATM   10  C8    D T 502       5.531   1.579  -8.760  1.00 57.24     0.111 A 
HETATM   11  C9    D T 502       6.530   2.398  -9.338  1.00 45.39     0.081 A 
HETATM   12  C10   D T 502       6.651   2.523 -10.698  1.00 19.78     0.025 A 
HETATM   13 CL16   D T 502       7.650   3.282  -8.328  1.00 34.00    -0.080 Cl
HETATM   14  C11   D T 502       5.764   1.814 -11.515  1.00 50.55     0.059 A 
HETATM   15  C12   D T 502       4.772   0.991 -10.965  1.00 64.03     0.013 A 
HETATM   16 CL15   D T 502       5.883   1.973 -13.225  1.00 39.89    -0.082 Cl
HETATM   17  C13   D T 502       4.671   0.890  -9.571  1.00 34.58     0.026 A 
ENDBRANCH   1  10
TORSDOF 2
ENDMDL
MODEL 3
REMARK VINA RESULT:    -7.143      1.618      5.657
REMARK INTER + INTRA:          -8.537
REMARK INTER:                  -8.008
REMARK INTRA:                  -0.529
REMARK UNBOUND:                -0.559
REMARK  2 active torsions:
REMARK  status: ('A' for Active; 'I' for Inactive)
REMARK    1  A    between atoms: C5_4  and  O7_13 
REMARK    2  A    between atoms: C8_10  and  O7_13 
ROOT
HETATM    1  O7    D T 502       4.432   1.006  -7.928  1.00 28.67    -0.304 OA
ENDROOT
BRANCH   1   2
HETATM    2  C5    D T 502       4.175   2.043  -7.099  1.00 33.71     0.125 A 
HETATM    3  C6    D T 502       5.053   2.248  -6.011  1.00 25.06     0.154 A 
HETATM    4  C1    D T 502       4.824   3.277  -5.175  1.00 17.88     0.041 A 
HETATM    5  O17   D T 502       6.074   1.436  -5.806  1.00 23.24    -0.188 OA
HETATM    6  C2    D T 502       3.762   4.098  -5.446  1.00 31.97     0.060 A 
HETATM    7  C3    D T 502       2.883   3.916  -6.523  1.00 21.44     0.014 A 
HETATM    8 CL14   D T 502       3.500   5.471  -4.385  1.00 33.89    -0.082 Cl
HETATM    9  C4    D T 502       3.119   2.869  -7.334  1.00 26.23     0.028 A 
ENDBRANCH   1   2
BRANCH   1  10
HETATM   10  C8    D T 502       4.797   1.257  -9.252  1.00 57.24     0.111 A 
HETATM   11  C9    D T 502       3.833   0.988 -10.253  1.00 45.39     0.081 A 
HETATM   12  C10   D T 502       4.099   1.215 -11.579  1.00 19.78     0.025 A 
HETATM   13 CL16   D T 502       2.261   0.353  -9.826  1.00 34.00    -0.080 Cl
HETATM   14  C11   D T 502       5.351   1.730 -11.930  1.00 50.55     0.059 A 
HETATM   15  C12   D T 502       6.318   2.011 -10.956  1.00 64.03     0.013 A 
HETATM   16 CL15   D T 502       5.715   2.002 -13.590  1.00 39.89    -0.082 Cl
HETATM   17  C13   D T 502       6.018   1.762  -9.610  1.00 34.58     0.026 A 
ENDBRANCH   1  10
TORSDOF 2
ENDMDL
MODEL 4
REMARK VINA RESULT:    -7.110      3.502      5.939
REMARK INTER + INTRA:          -8.500
REMARK INTER:                  -8.537
REMARK INTRA:                   0.036
REMARK UNBOUND:                -0.559
REMARK  2 active torsions:
REMARK  status: ('A' for Active; 'I' for Inactive)
REMARK    1  A    between atoms: C5_4  and  O7_13 
REMARK    2  A    between atoms: C8_10  and  O7_13 
ROOT
HETATM    1  O7    D T 502       6.370   2.069  -7.378  1.00 28.67    -0.304 OA
ENDROOT
BRANCH   1   2
HETATM    2  C5    D T 502       7.581   2.091  -6.777  1.00 33.71     0.125 A 
HETATM    3  C6    D T 502       7.635   2.475  -5.419  1.00 25.06     0.154 A 
HETATM    4  C1    D T 502       8.827   2.498  -4.796  1.00 17.88     0.041 A 
HETATM    5  O17   D T 502       6.537   2.821  -4.772  1.00 23.24    -0.188 OA
HETATM    6  C2    D T 502       9.930   2.112  -5.510  1.00 31.97     0.060 A 
HETATM    7  C3    D T 502       9.898   1.721  -6.856  1.00 21.44     0.014 A 
HETATM    8 CL14   D T 502      11.474   2.090  -4.678  1.00 33.89    -0.082 Cl
HETATM    9  C4    D T 502       8.698   1.726  -7.465  1.00 26.23     0.028 A 
ENDBRANCH   1   2
BRANCH   1  10
HETATM   10  C8    D T 502       6.292   2.050  -8.772  1.00 57.24     0.111 A 
HETATM   11  C9    D T 502       5.477   1.054  -9.362  1.00 45.39     0.081 A 
HETATM   12  C10   D T 502       5.330   0.966 -10.722  1.00 19.78     0.025 A 
HETATM   13 CL16   D T 502       4.624  -0.103  -8.367  1.00 34.00    -0.080 Cl
HETATM   14  C11   D T 502       6.002   1.893 -11.527  1.00 50.55     0.059 A 
HETATM   15  C12   D T 502       6.808   2.891 -10.965  1.00 64.03     0.013 A 
HETATM   16 CL15   D T 502       5.851   1.788 -13.239  1.00 39.89    -0.082 Cl
HETATM   17  C13   D T 502       6.942   2.950  -9.571  1.00 34.58     0.026 A 
ENDBRANCH   1  10
TORSDOF 2
ENDMDL
MODEL 5
REMARK VINA RESULT:    -7.093      9.028     11.180
REMARK INTER + INTRA:          -8.481
REMARK INTER:                  -7.967
REMARK INTRA:                  -0.514
REMARK UNBOUND:                -0.559
REMARK  2 active torsions:
REMARK  status: ('A' for Active; 'I' for Inactive)
REMARK    1  A    between atoms: C5_4  and  O7_13 
REMARK    2  A    between atoms: C8_10  and  O7_13 
ROOT
HETATM    1  O7    D T 502       5.788   6.797   1.999  1.00 28.67    -0.304 OA
ENDROOT
BRANCH   1   2
HETATM    2  C5    D T 502       5.288   6.608   0.758  1.00 33.71     0.125 A 
HETATM    3  C6    D T 502       5.348   7.691  -0.148  1.00 25.06     0.154 A 
HETATM    4  C1    D T 502       4.865   7.526  -1.392  1.00 17.88     0.041 A 
HETATM    5  O17   D T 502       5.858   8.852   0.222  1.00 23.24    -0.188 OA
HETATM    6  C2    D T 502       4.365   6.296  -1.727  1.00 31.97     0.060 A 
HETATM    7  C3    D T 502       4.302   5.207  -0.847  1.00 21.44     0.014 A 
HETATM    8 CL14   D T 502       3.786   6.070  -3.368  1.00 33.89    -0.082 Cl
HETATM    9  C4    D T 502       4.773   5.401   0.399  1.00 26.23     0.028 A 
ENDBRANCH   1   2
BRANCH   1  10
HETATM   10  C8    D T 502       6.827   5.984   2.456  1.00 57.24     0.111 A 
HETATM   11  C9    D T 502       6.510   5.019   3.442  1.00 45.39     0.081 A 
HETATM   12  C10   D T 502       7.463   4.168   3.940  1.00 19.78     0.025 A 
HETATM   13 CL16   D T 502       4.881   4.880   4.059  1.00 34.00    -0.080 Cl
HETATM   14  C11   D T 502       8.769   4.266   3.446  1.00 50.55     0.059 A 
HETATM   15  C12   D T 502       9.104   5.208   2.465  1.00 64.03     0.013 A 
HETATM   16 CL15   D T 502       9.987   3.223   4.073  1.00 39.89    -0.082 Cl
HETATM   17  C13   D T 502       8.108   6.067   1.981  1.00 34.58     0.026 A 
ENDBRANCH   1  10
TORSDOF 2
ENDMDL
MODEL 6
REMARK VINA RESULT:    -7.090      1.995      2.266
REMARK INTER + INTRA:          -8.478
REMARK INTER:                  -7.972
REMARK INTRA:                  -0.506
REMARK UNBOUND:                -0.559
REMARK  2 active torsions:
REMARK  status: ('A' for Active; 'I' for Inactive)
REMARK    1  A    between atoms: C5_4  and  O7_13 
REMARK    2  A    between atoms: C8_10  and  O7_13 
ROOT
HETATM    1  O7    D T 502       2.743   1.813  -7.916  1.00 28.67    -0.304 OA
ENDROOT
BRANCH   1   2
HETATM    2  C5    D T 502       3.614   1.655  -8.938  1.00 33.71     0.125 A 
HETATM    3  C6    D T 502       3.562   2.589  -9.997  1.00 25.06     0.154 A 
HETATM    4  C1    D T 502       4.423   2.458 -11.021  1.00 17.88     0.041 A 
HETATM    5  O17   D T 502       2.674   3.566  -9.991  1.00 23.24    -0.188 OA
HETATM    6  C2    D T 502       5.334   1.437 -10.966  1.00 31.97     0.060 A 
HETATM    7  C3    D T 502       5.407   0.505  -9.923  1.00 21.44     0.014 A 
HETATM    8 CL14   D T 502       6.491   1.304 -12.279  1.00 33.89    -0.082 Cl
HETATM    9  C4    D T 502       4.523   0.642  -8.918  1.00 26.23     0.028 A 
ENDBRANCH   1   2
BRANCH   1  10
HETATM   10  C8    D T 502       3.186   2.361  -6.710  1.00 57.24     0.111 A 
HETATM   11  C9    D T 502       3.326   1.481  -5.610  1.00 45.39     0.081 A 
HETATM   12  C10   D T 502       3.766   1.927  -4.391  1.00 19.78     0.025 A 
HETATM   13 CL16   D T 502       2.939  -0.216  -5.774  1.00 34.00    -0.080 Cl
HETATM   14  C11   D T 502       4.086   3.282  -4.252  1.00 50.55     0.059 A 
HETATM   15  C12   D T 502       3.963   4.170  -5.329  1.00 64.03     0.013 A 
HETATM   16 CL15   D T 502       4.620   3.869  -2.725  1.00 39.89    -0.082 Cl
HETATM   17  C13   D T 502       3.504   3.683  -6.560  1.00 34.58     0.026 A 
ENDBRANCH   1  10
TORSDOF 2
ENDMDL
MODEL 7
REMARK VINA RESULT:    -7.004      2.212      6.039
REMARK INTER + INTRA:          -8.382
REMARK INTER:                  -7.872
REMARK INTRA:                  -0.510
REMARK UNBOUND:                -0.559
REMARK  2 active torsions:
REMARK  status: ('A' for Active; 'I' for Inactive)
REMARK    1  A    between atoms: C5_4  and  O7_13 
REMARK    2  A    between atoms: C8_10  and  O7_13 
ROOT
HETATM    1  O7    D T 502       4.792   3.685  -7.759  1.00 28.67    -0.304 OA
ENDROOT
BRANCH   1   2
HETATM    2  C5    D T 502       4.361   2.831  -6.803  1.00 33.71     0.125 A 
HETATM    3  C6    D T 502       3.135   3.123  -6.164  1.00 25.06     0.154 A 
HETATM    4  C1    D T 502       2.681   2.286  -5.215  1.00 17.88     0.041 A 
HETATM    5  O17   D T 502       2.451   4.208  -6.481  1.00 23.24    -0.188 OA
HETATM    6  C2    D T 502       3.421   1.167  -4.940  1.00 31.97     0.060 A 
HETATM    7  C3    D T 502       4.636   0.856  -5.566  1.00 21.44     0.014 A 
HETATM    8 CL14   D T 502       2.797   0.050  -3.739  1.00 33.89    -0.082 Cl
HETATM    9  C4    D T 502       5.082   1.718  -6.497  1.00 26.23     0.028 A 
ENDBRANCH   1   2
BRANCH   1  10
HETATM   10  C8    D T 502       4.882   3.249  -9.082  1.00 57.24     0.111 A 
HETATM   11  C9    D T 502       6.177   2.989  -9.593  1.00 45.39     0.081 A 
HETATM   12  C10   D T 502       6.362   2.546 -10.877  1.00 19.78     0.025 A 
HETATM   13 CL16   D T 502       7.591   3.226  -8.593  1.00 34.00    -0.080 Cl
HETATM   14  C11   D T 502       5.236   2.345 -11.683  1.00 50.55     0.059 A 
HETATM   15  C12   D T 502       3.944   2.589 -11.196  1.00 64.03     0.013 A 
HETATM   16 CL15   D T 502       5.445   1.811 -13.305  1.00 39.89    -0.082 Cl
HETATM   17  C13   D T 502       3.790   3.047  -9.881  1.00 34.58     0.026 A 
ENDBRANCH   1  10
TORSDOF 2
ENDMDL
MODEL 8
REMARK VINA RESULT:    -6.780      2.481      6.221
REMARK INTER + INTRA:          -8.131
REMARK INTER:                  -7.709
REMARK INTRA:                  -0.423
REMARK UNBOUND:                -0.559
REMARK  2 active torsions:
REMARK  status: ('A' for Active; 'I' for Inactive)
REMARK    1  A    between atoms: C5_4  and  O7_13 
REMARK    2  A    between atoms: C8_10  and  O7_13 
ROOT
HETATM    1  O7    D T 502       2.709   1.968  -7.339  1.00 28.67    -0.304 OA
ENDROOT
BRANCH   1   2
HETATM    2  C5    D T 502       3.179   2.469  -6.175  1.00 33.71     0.125 A 
HETATM    3  C6    D T 502       3.325   1.580  -5.087  1.00 25.06     0.154 A 
HETATM    4  C1    D T 502       3.797   2.053  -3.920  1.00 17.88     0.041 A 
HETATM    5  O17   D T 502       2.991   0.308  -5.206  1.00 23.24    -0.188 OA
HETATM    6  C2    D T 502       4.146   3.376  -3.858  1.00 31.97     0.060 A 
HETATM    7  C3    D T 502       4.014   4.273  -4.927  1.00 21.44     0.014 A 
HETATM    8 CL14   D T 502       4.813   3.975  -2.350  1.00 33.89    -0.082 Cl
HETATM    9  C4    D T 502       3.521   3.783  -6.079  1.00 26.23     0.028 A 
ENDBRANCH   1   2
BRANCH   1  10
HETATM   10  C8    D T 502       3.593   1.727  -8.393  1.00 57.24     0.111 A 
HETATM   11  C9    D T 502       3.641   2.688  -9.432  1.00 45.39     0.081 A 
HETATM   12  C10   D T 502       4.488   2.541 -10.500  1.00 19.78     0.025 A 
HETATM   13 CL16   D T 502       2.615   4.102  -9.384  1.00 34.00    -0.080 Cl
HETATM   14  C11   D T 502       5.319   1.417 -10.544  1.00 50.55     0.059 A 
HETATM   15  C12   D T 502       5.294   0.456  -9.524  1.00 64.03     0.013 A 
HETATM   16 CL15   D T 502       6.374   1.200 -11.887  1.00 39.89    -0.082 Cl
HETATM   17  C13   D T 502       4.412   0.633  -8.449  1.00 34.58     0.026 A 
ENDBRANCH   1  10
TORSDOF 2
ENDMDL
MODEL 9
REMARK VINA RESULT:    -6.696      2.442      3.352
REMARK INTER + INTRA:          -8.037
REMARK INTER:                  -7.505
REMARK INTRA:                  -0.532
REMARK UNBOUND:                -0.559
REMARK  2 active torsions:
REMARK  status: ('A' for Active; 'I' for Inactive)
REMARK    1  A    between atoms: C5_4  and  O7_13 
REMARK    2  A    between atoms: C8_10  and  O7_13 
ROOT
HETATM    1  O7    D T 502       2.784   2.442  -6.915  1.00 28.67    -0.304 OA
ENDROOT
BRANCH   1   2
HETATM    2  C5    D T 502       3.581   2.146  -7.966  1.00 33.71     0.125 A 
HETATM    3  C6    D T 502       3.720   0.787  -8.324  1.00 25.06     0.154 A 
HETATM    4  C1    D T 502       4.501   0.466  -9.371  1.00 17.88     0.041 A 
HETATM    5  O17   D T 502       3.106  -0.158  -7.635  1.00 23.24    -0.188 OA
HETATM    6  C2    D T 502       5.098   1.487 -10.061  1.00 31.97     0.060 A 
HETATM    7  C3    D T 502       4.969   2.842  -9.727  1.00 21.44     0.014 A 
HETATM    8 CL14   D T 502       6.072   1.068 -11.459  1.00 33.89    -0.082 Cl
HETATM    9  C4    D T 502       4.199   3.139  -8.663  1.00 26.23     0.028 A 
ENDBRANCH   1   2
BRANCH   1  10
HETATM   10  C8    D T 502       3.353   2.909  -5.729  1.00 57.24     0.111 A 
HETATM   11  C9    D T 502       2.885   4.148  -5.229  1.00 45.39     0.081 A 
HETATM   12  C10   D T 502       3.377   4.679  -4.064  1.00 19.78     0.025 A 
HETATM   13 CL16   D T 502       1.655   5.047  -6.087  1.00 34.00    -0.080 Cl
HETATM   14  C11   D T 502       4.356   3.964  -3.366  1.00 50.55     0.059 A 
HETATM   15  C12   D T 502       4.829   2.732  -3.838  1.00 64.03     0.013 A 
HETATM   16 CL15   D T 502       5.005   4.622  -1.914  1.00 39.89    -0.082 Cl
HETATM   17  C13   D T 502       4.310   2.220  -5.035  1.00 34.58     0.026 A 
ENDBRANCH   1  10
TORSDOF 2
ENDMDL
