MODEL 1
REMARK VINA RESULT:      -8.1      0.000      0.000
REMARK  2 active torsions:
REMARK  status: ('A' for Active; 'I' for Inactive)
REMARK    1  A    between atoms: C5_4  and  O7_13 
REMARK    2  A    between atoms: C8_10  and  O7_13 
ROOT
HETATM    1  O7    D T 502       6.752  17.169  35.155  1.00 28.67    -0.304 OA
ENDROOT
BRANCH   1   2
HETATM    2  C5    D T 502       5.959  18.246  35.358  1.00 33.71     0.125 A 
HETATM    3  C6    D T 502       5.351  18.383  36.626  1.00 25.06     0.154 A 
HETATM    4  C1    D T 502       4.563  19.447  36.858  1.00 17.88     0.041 A 
HETATM    5  O17   D T 502       5.539  17.473  37.566  1.00 23.24    -0.188 OA
HETATM    6  C2    D T 502       4.419  20.368  35.854  1.00 31.97     0.060 A 
HETATM    7  C3    D T 502       5.017  20.254  34.592  1.00 21.44     0.014 A 
HETATM    8 CL14   D T 502       3.435  21.783  36.180  1.00 33.89    -0.082 Cl
HETATM    9  C4    D T 502       5.784  19.170  34.375  1.00 26.23     0.028 A 
ENDBRANCH   1   2
BRANCH   1  10
HETATM   10  C8    D T 502       6.281  16.101  34.388  1.00 57.24     0.111 A 
HETATM   11  C9    D T 502       7.238  15.171  33.915  1.00 45.39     0.081 A 
HETATM   12  C10   D T 502       6.866  14.085  33.165  1.00 19.78     0.025 A 
HETATM   13 CL16   D T 502       8.935  15.379  34.275  1.00 34.00    -0.080 Cl
HETATM   14  C11   D T 502       5.509  13.904  32.877  1.00 50.55     0.059 A 
HETATM   15  C12   D T 502       4.543  14.808  33.342  1.00 64.03     0.013 A 
HETATM   16 CL15   D T 502       5.021  12.560  31.920  1.00 39.89    -0.082 Cl
HETATM   17  C13   D T 502       4.957  15.912  34.100  1.00 34.58     0.026 A 
ENDBRANCH   1  10
TORSDOF 2
ENDMDL
MODEL 2
REMARK VINA RESULT:      -7.9      1.719      5.958
REMARK  2 active torsions:
REMARK  status: ('A' for Active; 'I' for Inactive)
REMARK    1  A    between atoms: C5_4  and  O7_13 
REMARK    2  A    between atoms: C8_10  and  O7_13 
ROOT
HETATM    1  O7    D T 502       6.768  17.394  34.947  1.00 28.67    -0.304 OA
ENDROOT
BRANCH   1   2
HETATM    2  C5    D T 502       6.416  16.247  34.322  1.00 33.71     0.125 A 
HETATM    3  C6    D T 502       7.433  15.303  34.059  1.00 25.06     0.154 A 
HETATM    4  C1    D T 502       7.110  14.152  33.444  1.00 17.88     0.041 A 
HETATM    5  O17   D T 502       8.686  15.551  34.397  1.00 23.24    -0.188 OA
HETATM    6  C2    D T 502       5.792  13.941  33.134  1.00 31.97     0.060 A 
HETATM    7  C3    D T 502       4.767  14.861  33.390  1.00 21.44     0.014 A 
HETATM    8 CL14   D T 502       5.366  12.413  32.382  1.00 33.89    -0.082 Cl
HETATM    9  C4    D T 502       5.117  16.015  33.987  1.00 26.23     0.028 A 
ENDBRANCH   1   2
BRANCH   1  10
HETATM   10  C8    D T 502       5.900  17.964  35.882  1.00 57.24     0.111 A 
HETATM   11  C9    D T 502       5.358  19.234  35.573  1.00 45.39     0.081 A 
HETATM   12  C10   D T 502       4.489  19.865  36.425  1.00 19.78     0.025 A 
HETATM   13 CL16   D T 502       5.784  20.045  34.084  1.00 34.00    -0.080 Cl
HETATM   14  C11   D T 502       4.136  19.221  37.617  1.00 50.55     0.059 A 
HETATM   15  C12   D T 502       4.654  17.959  37.939  1.00 64.03     0.013 A 
HETATM   16 CL15   D T 502       3.063  20.003  38.712  1.00 39.89    -0.082 Cl
HETATM   17  C13   D T 502       5.546  17.345  37.050  1.00 34.58     0.026 A 
ENDBRANCH   1  10
TORSDOF 2
ENDMDL
MODEL 3
REMARK VINA RESULT:      -7.8      1.415      5.971
REMARK  2 active torsions:
REMARK  status: ('A' for Active; 'I' for Inactive)
REMARK    1  A    between atoms: C5_4  and  O7_13 
REMARK    2  A    between atoms: C8_10  and  O7_13 
ROOT
HETATM    1  O7    D T 502       6.738  17.052  35.346  1.00 28.67    -0.304 OA
ENDROOT
BRANCH   1   2
HETATM    2  C5    D T 502       6.428  16.036  34.509  1.00 33.71     0.125 A 
HETATM    3  C6    D T 502       7.489  15.235  34.028  1.00 25.06     0.154 A 
HETATM    4  C1    D T 502       7.208  14.213  33.200  1.00 17.88     0.041 A 
HETATM    5  O17   D T 502       8.738  15.492  34.372  1.00 23.24    -0.188 OA
HETATM    6  C2    D T 502       5.893  13.981  32.893  1.00 31.97     0.060 A 
HETATM    7  C3    D T 502       4.827  14.759  33.363  1.00 21.44     0.014 A 
HETATM    8 CL14   D T 502       5.527  12.613  31.857  1.00 33.89    -0.082 Cl
HETATM    9  C4    D T 502       5.133  15.789  34.173  1.00 26.23     0.028 A 
ENDBRANCH   1   2
BRANCH   1  10
HETATM   10  C8    D T 502       5.998  18.236  35.297  1.00 57.24     0.111 A 
HETATM   11  C9    D T 502       5.231  18.569  36.438  1.00 45.39     0.081 A 
HETATM   12  C10   D T 502       4.484  19.718  36.484  1.00 19.78     0.025 A 
HETATM   13 CL16   D T 502       5.213  17.520  37.836  1.00 34.00    -0.080 Cl
HETATM   14  C11   D T 502       4.497  20.569  35.374  1.00 50.55     0.059 A 
HETATM   15  C12   D T 502       5.256  20.263  34.235  1.00 64.03     0.013 A 
HETATM   16 CL15   D T 502       3.549  22.005  35.400  1.00 39.89    -0.082 Cl
HETATM   17  C13   D T 502       6.003  19.077  34.217  1.00 34.58     0.026 A 
ENDBRANCH   1  10
TORSDOF 2
ENDMDL
MODEL 4
REMARK VINA RESULT:      -7.7      1.986      5.863
REMARK  2 active torsions:
REMARK  status: ('A' for Active; 'I' for Inactive)
REMARK    1  A    between atoms: C5_4  and  O7_13 
REMARK    2  A    between atoms: C8_10  and  O7_13 
ROOT
HETATM    1  O7    D T 502       5.086  17.146  35.063  1.00 28.67    -0.304 OA
ENDROOT
BRANCH   1   2
HETATM    2  C5    D T 502       5.208  16.040  34.294  1.00 33.71     0.125 A 
HETATM    3  C6    D T 502       6.505  15.513  34.104  1.00 25.06     0.154 A 
HETATM    4  C1    D T 502       6.654  14.409  33.350  1.00 17.88     0.041 A 
HETATM    5  O17   D T 502       7.558  16.100  34.645  1.00 23.24    -0.188 OA
HETATM    6  C2    D T 502       5.526  13.833  32.829  1.00 31.97     0.060 A 
HETATM    7  C3    D T 502       4.231  14.336  33.010  1.00 21.44     0.014 A 
HETATM    8 CL14   D T 502       5.720  12.362  31.892  1.00 33.89    -0.082 Cl
HETATM    9  C4    D T 502       4.108  15.453  33.751  1.00 26.23     0.028 A 
ENDBRANCH   1   2
BRANCH   1  10
HETATM   10  C8    D T 502       4.293  18.208  34.622  1.00 57.24     0.111 A 
HETATM   11  C9    D T 502       4.957  19.391  34.220  1.00 45.39     0.081 A 
HETATM   12  C10   D T 502       4.261  20.480  33.763  1.00 19.78     0.025 A 
HETATM   13 CL16   D T 502       6.700  19.502  34.295  1.00 34.00    -0.080 Cl
HETATM   14  C11   D T 502       2.866  20.400  33.691  1.00 50.55     0.059 A 
HETATM   15  C12   D T 502       2.187  19.235  34.077  1.00 64.03     0.013 A 
HETATM   16 CL15   D T 502       1.969  21.761  33.141  1.00 39.89    -0.082 Cl
HETATM   17  C13   D T 502       2.928  18.142  34.547  1.00 34.58     0.026 A 
ENDBRANCH   1  10
TORSDOF 2
ENDMDL
MODEL 5
REMARK VINA RESULT:      -7.3      2.814      6.109
REMARK  2 active torsions:
REMARK  status: ('A' for Active; 'I' for Inactive)
REMARK    1  A    between atoms: C5_4  and  O7_13 
REMARK    2  A    between atoms: C8_10  and  O7_13 
ROOT
HETATM    1  O7    D T 502       3.458  17.653  35.340  1.00 28.67    -0.304 OA
ENDROOT
BRANCH   1   2
HETATM    2  C5    D T 502       4.311  16.779  34.761  1.00 33.71     0.125 A 
HETATM    3  C6    D T 502       5.681  16.877  35.096  1.00 25.06     0.154 A 
HETATM    4  C1    D T 502       6.550  16.015  34.540  1.00 17.88     0.041 A 
HETATM    5  O17   D T 502       6.105  17.809  35.931  1.00 23.24    -0.188 OA
HETATM    6  C2    D T 502       6.051  15.058  33.696  1.00 31.97     0.060 A 
HETATM    7  C3    D T 502       4.697  14.939  33.355  1.00 21.44     0.014 A 
HETATM    8 CL14   D T 502       7.181  13.900  33.016  1.00 33.89    -0.082 Cl
HETATM    9  C4    D T 502       3.848  15.826  33.907  1.00 26.23     0.028 A 
ENDBRANCH   1   2
BRANCH   1  10
HETATM   10  C8    D T 502       2.939  18.711  34.590  1.00 57.24     0.111 A 
HETATM   11  C9    D T 502       1.573  18.639  34.226  1.00 45.39     0.081 A 
HETATM   12  C10   D T 502       0.975  19.636  33.500  1.00 19.78     0.025 A 
HETATM   13 CL16   D T 502       0.599  17.266  34.695  1.00 34.00    -0.080 Cl
HETATM   14  C11   D T 502       1.744  20.744  33.126  1.00 50.55     0.059 A 
HETATM   15  C12   D T 502       3.097  20.840  33.482  1.00 64.03     0.013 A 
HETATM   16 CL15   D T 502       1.021  21.998  32.196  1.00 39.89    -0.082 Cl
HETATM   17  C13   D T 502       3.680  19.800  34.218  1.00 34.58     0.026 A 
ENDBRANCH   1  10
TORSDOF 2
ENDMDL
MODEL 6
REMARK VINA RESULT:      -7.2      2.614      3.470
REMARK  2 active torsions:
REMARK  status: ('A' for Active; 'I' for Inactive)
REMARK    1  A    between atoms: C5_4  and  O7_13 
REMARK    2  A    between atoms: C8_10  and  O7_13 
ROOT
HETATM    1  O7    D T 502       4.670  17.997  35.469  1.00 28.67    -0.304 OA
ENDROOT
BRANCH   1   2
HETATM    2  C5    D T 502       4.494  17.946  36.809  1.00 33.71     0.125 A 
HETATM    3  C6    D T 502       4.978  19.029  37.577  1.00 25.06     0.154 A 
HETATM    4  C1    D T 502       4.809  19.007  38.911  1.00 17.88     0.041 A 
HETATM    5  O17   D T 502       5.599  20.042  36.998  1.00 23.24    -0.188 OA
HETATM    6  C2    D T 502       4.142  17.942  39.454  1.00 31.97     0.060 A 
HETATM    7  C3    D T 502       3.650  16.861  38.711  1.00 21.44     0.014 A 
HETATM    8 CL14   D T 502       3.876  17.945  41.189  1.00 33.89    -0.082 Cl
HETATM    9  C4    D T 502       3.848  16.894  37.381  1.00 26.23     0.028 A 
ENDBRANCH   1   2
BRANCH   1  10
HETATM   10  C8    D T 502       5.054  16.845  34.780  1.00 57.24     0.111 A 
HETATM   11  C9    D T 502       4.059  16.176  34.028  1.00 45.39     0.081 A 
HETATM   12  C10   D T 502       4.347  15.045  33.310  1.00 19.78     0.025 A 
HETATM   13 CL16   D T 502       2.418  16.778  33.992  1.00 34.00    -0.080 Cl
HETATM   14  C11   D T 502       5.659  14.559  33.326  1.00 50.55     0.059 A 
HETATM   15  C12   D T 502       6.663  15.209  34.057  1.00 64.03     0.013 A 
HETATM   16 CL15   D T 502       6.040  13.127  32.450  1.00 39.89    -0.082 Cl
HETATM   17  C13   D T 502       6.334  16.359  34.787  1.00 34.58     0.026 A 
ENDBRANCH   1  10
TORSDOF 2
ENDMDL
MODEL 7
REMARK VINA RESULT:      -7.2      1.858      6.103
REMARK  2 active torsions:
REMARK  status: ('A' for Active; 'I' for Inactive)
REMARK    1  A    between atoms: C5_4  and  O7_13 
REMARK    2  A    between atoms: C8_10  and  O7_13 
ROOT
HETATM    1  O7    D T 502       4.138  17.681  35.596  1.00 28.67    -0.304 OA
ENDROOT
BRANCH   1   2
HETATM    2  C5    D T 502       5.075  16.878  35.042  1.00 33.71     0.125 A 
HETATM    3  C6    D T 502       4.628  15.799  34.246  1.00 25.06     0.154 A 
HETATM    4  C1    D T 502       5.539  14.990  33.677  1.00 17.88     0.041 A 
HETATM    5  O17   D T 502       3.337  15.578  34.074  1.00 23.24    -0.188 OA
HETATM    6  C2    D T 502       6.863  15.278  33.874  1.00 31.97     0.060 A 
HETATM    7  C3    D T 502       7.328  16.345  34.655  1.00 21.44     0.014 A 
HETATM    8 CL14   D T 502       8.048  14.252  33.085  1.00 33.89    -0.082 Cl
HETATM    9  C4    D T 502       6.399  17.129  35.231  1.00 26.23     0.028 A 
ENDBRANCH   1   2
BRANCH   1  10
HETATM   10  C8    D T 502       4.056  19.018  35.204  1.00 57.24     0.111 A 
HETATM   11  C9    D T 502       4.212  20.001  36.210  1.00 45.39     0.081 A 
HETATM   12  C10   D T 502       4.158  21.339  35.916  1.00 19.78     0.025 A 
HETATM   13 CL16   D T 502       4.480  19.535  37.873  1.00 34.00    -0.080 Cl
HETATM   14  C11   D T 502       3.952  21.722  34.586  1.00 50.55     0.059 A 
HETATM   15  C12   D T 502       3.803  20.767  33.571  1.00 64.03     0.013 A 
HETATM   16 CL15   D T 502       3.859  23.396  34.195  1.00 39.89    -0.082 Cl
HETATM   17  C13   D T 502       3.855  19.407  33.907  1.00 34.58     0.026 A 
ENDBRANCH   1  10
TORSDOF 2
ENDMDL
MODEL 8
REMARK VINA RESULT:      -7.1      1.627      2.164
REMARK  2 active torsions:
REMARK  status: ('A' for Active; 'I' for Inactive)
REMARK    1  A    between atoms: C5_4  and  O7_13 
REMARK    2  A    between atoms: C8_10  and  O7_13 
ROOT
HETATM    1  O7    D T 502       5.959  17.643  35.890  1.00 28.67    -0.304 OA
ENDROOT
BRANCH   1   2
HETATM    2  C5    D T 502       5.419  18.809  35.465  1.00 33.71     0.125 A 
HETATM    3  C6    D T 502       4.766  19.617  36.423  1.00 25.06     0.154 A 
HETATM    4  C1    D T 502       4.227  20.784  36.029  1.00 17.88     0.041 A 
HETATM    5  O17   D T 502       4.672  19.229  37.682  1.00 23.24    -0.188 OA
HETATM    6  C2    D T 502       4.371  21.145  34.715  1.00 31.97     0.060 A 
HETATM    7  C3    D T 502       5.019  20.361  33.751  1.00 21.44     0.014 A 
HETATM    8 CL14   D T 502       3.714  22.695  34.218  1.00 33.89    -0.082 Cl
HETATM    9  C4    D T 502       5.532  19.188  34.164  1.00 26.23     0.028 A 
ENDBRANCH   1   2
BRANCH   1  10
HETATM   10  C8    D T 502       6.025  16.555  35.016  1.00 57.24     0.111 A 
HETATM   11  C9    D T 502       4.800  15.975  34.610  1.00 45.39     0.081 A 
HETATM   12  C10   D T 502       4.768  14.911  33.745  1.00 19.78     0.025 A 
HETATM   13 CL16   D T 502       3.279  16.600  35.201  1.00 34.00    -0.080 Cl
HETATM   14  C11   D T 502       5.980  14.407  33.259  1.00 50.55     0.059 A 
HETATM   15  C12   D T 502       7.204  14.972  33.642  1.00 64.03     0.013 A 
HETATM   16 CL15   D T 502       5.965  13.059  32.190  1.00 39.89    -0.082 Cl
HETATM   17  C13   D T 502       7.203  16.054  34.533  1.00 34.58     0.026 A 
ENDBRANCH   1  10
TORSDOF 2
ENDMDL
MODEL 9
REMARK VINA RESULT:      -7.1      3.089      3.464
REMARK  2 active torsions:
REMARK  status: ('A' for Active; 'I' for Inactive)
REMARK    1  A    between atoms: C5_4  and  O7_13 
REMARK    2  A    between atoms: C8_10  and  O7_13 
ROOT
HETATM    1  O7    D T 502       3.283  17.845  35.270  1.00 28.67    -0.304 OA
ENDROOT
BRANCH   1   2
HETATM    2  C5    D T 502       2.777  18.837  34.502  1.00 33.71     0.125 A 
HETATM    3  C6    D T 502       1.417  18.749  34.129  1.00 25.06     0.154 A 
HETATM    4  C1    D T 502       0.886  19.725  33.371  1.00 17.88     0.041 A 
HETATM    5  O17   D T 502       0.680  17.718  34.503  1.00 23.24    -0.188 OA
HETATM    6  C2    D T 502       1.692  20.778  33.028  1.00 31.97     0.060 A 
HETATM    7  C3    D T 502       3.040  20.887  33.392  1.00 21.44     0.014 A 
HETATM    8 CL14   D T 502       0.979  22.076  32.086  1.00 33.89    -0.082 Cl
HETATM    9  C4    D T 502       3.556  19.889  34.133  1.00 26.23     0.028 A 
ENDBRANCH   1   2
BRANCH   1  10
HETATM   10  C8    D T 502       4.140  16.900  34.701  1.00 57.24     0.111 A 
HETATM   11  C9    D T 502       5.517  17.004  35.009  1.00 45.39     0.081 A 
HETATM   12  C10   D T 502       6.430  16.114  34.505  1.00 19.78     0.025 A 
HETATM   13 CL16   D T 502       6.102  18.281  36.049  1.00 34.00    -0.080 Cl
HETATM   14  C11   D T 502       5.972  15.084  33.676  1.00 50.55     0.059 A 
HETATM   15  C12   D T 502       4.611  14.956  33.364  1.00 64.03     0.013 A 
HETATM   16 CL15   D T 502       7.101  13.967  33.014  1.00 39.89    -0.082 Cl
HETATM   17  C13   D T 502       3.704  15.887  33.890  1.00 34.58     0.026 A 
ENDBRANCH   1  10
TORSDOF 2
ENDMDL
