MODEL 1
REMARK VINA RESULT:      -7.9      0.000      0.000
REMARK  2 active torsions:
REMARK  status: ('A' for Active; 'I' for Inactive)
REMARK    1  A    between atoms: C5_4  and  O7_13 
REMARK    2  A    between atoms: C8_10  and  O7_13 
ROOT
HETATM    1  O7    D T 502       6.798  17.121  35.398  1.00 28.67    -0.304 OA
ENDROOT
BRANCH   1   2
HETATM    2  C5    D T 502       5.954  18.178  35.373  1.00 33.71     0.125 A 
HETATM    3  C6    D T 502       5.223  18.462  36.548  1.00 25.06     0.154 A 
HETATM    4  C1    D T 502       4.382  19.511  36.553  1.00 17.88     0.041 A 
HETATM    5  O17   D T 502       5.351  17.703  37.622  1.00 23.24    -0.188 OA
HETATM    6  C2    D T 502       4.304  20.274  35.418  1.00 31.97     0.060 A 
HETATM    7  C3    D T 502       5.023  20.013  34.244  1.00 21.44     0.014 A 
HETATM    8 CL14   D T 502       3.246  21.674  35.448  1.00 33.89    -0.082 Cl
HETATM    9  C4    D T 502       5.843  18.946  34.256  1.00 26.23     0.028 A 
ENDBRANCH   1   2
BRANCH   1  10
HETATM   10  C8    D T 502       6.496  15.979  34.653  1.00 57.24     0.111 A 
HETATM   11  C9    D T 502       7.575  15.304  34.034  1.00 45.39     0.081 A 
HETATM   12  C10   D T 502       7.375  14.168  33.293  1.00 19.78     0.025 A 
HETATM   13 CL16   D T 502       9.209  15.903  34.195  1.00 34.00    -0.080 Cl
HETATM   14  C11   D T 502       6.071  13.675  33.164  1.00 50.55     0.059 A 
HETATM   15  C12   D T 502       4.988  14.323  33.776  1.00 64.03     0.013 A 
HETATM   16 CL15   D T 502       5.792  12.263  32.222  1.00 39.89    -0.082 Cl
HETATM   17  C13   D T 502       5.226  15.487  34.520  1.00 34.58     0.026 A 
ENDBRANCH   1  10
TORSDOF 2
ENDMDL
MODEL 2
REMARK VINA RESULT:      -7.8     10.952     13.075
REMARK  2 active torsions:
REMARK  status: ('A' for Active; 'I' for Inactive)
REMARK    1  A    between atoms: C5_4  and  O7_13 
REMARK    2  A    between atoms: C8_10  and  O7_13 
ROOT
HETATM    1  O7    D T 502       0.207  14.661  45.142  1.00 28.67    -0.304 OA
ENDROOT
BRANCH   1   2
HETATM    2  C5    D T 502       1.236  15.427  44.712  1.00 33.71     0.125 A 
HETATM    3  C6    D T 502       2.543  14.906  44.845  1.00 25.06     0.154 A 
HETATM    4  C1    D T 502       3.584  15.644  44.420  1.00 17.88     0.041 A 
HETATM    5  O17   D T 502       2.744  13.720  45.391  1.00 23.24    -0.188 OA
HETATM    6  C2    D T 502       3.315  16.857  43.845  1.00 31.97     0.060 A 
HETATM    7  C3    D T 502       2.027  17.390  43.699  1.00 21.44     0.014 A 
HETATM    8 CL14   D T 502       4.672  17.792  43.241  1.00 33.89    -0.082 Cl
HETATM    9  C4    D T 502       1.003  16.644  44.150  1.00 26.23     0.028 A 
ENDBRANCH   1   2
BRANCH   1  10
HETATM   10  C8    D T 502      -0.897  15.265  45.747  1.00 57.24     0.111 A 
HETATM   11  C9    D T 502      -0.695  15.866  47.012  1.00 45.39     0.081 A 
HETATM   12  C10   D T 502      -1.718  16.493  47.675  1.00 19.78     0.025 A 
HETATM   13 CL16   D T 502       0.878  15.828  47.774  1.00 34.00    -0.080 Cl
HETATM   14  C11   D T 502      -2.979  16.537  47.071  1.00 50.55     0.059 A 
HETATM   15  C12   D T 502      -3.200  15.955  45.814  1.00 64.03     0.013 A 
HETATM   16 CL15   D T 502      -4.284  17.299  47.894  1.00 39.89    -0.082 Cl
HETATM   17  C13   D T 502      -2.135  15.315  45.166  1.00 34.58     0.026 A 
ENDBRANCH   1  10
TORSDOF 2
ENDMDL
MODEL 3
REMARK VINA RESULT:      -7.7      1.714      2.287
REMARK  2 active torsions:
REMARK  status: ('A' for Active; 'I' for Inactive)
REMARK    1  A    between atoms: C5_4  and  O7_13 
REMARK    2  A    between atoms: C8_10  and  O7_13 
ROOT
HETATM    1  O7    D T 502       6.394  17.467  35.081  1.00 28.67    -0.304 OA
ENDROOT
BRANCH   1   2
HETATM    2  C5    D T 502       5.788  18.059  36.135  1.00 33.71     0.125 A 
HETATM    3  C6    D T 502       5.455  19.428  36.017  1.00 25.06     0.154 A 
HETATM    4  C1    D T 502       4.845  20.039  37.048  1.00 17.88     0.041 A 
HETATM    5  O17   D T 502       5.751  20.102  34.920  1.00 23.24    -0.188 OA
HETATM    6  C2    D T 502       4.547  19.287  38.153  1.00 31.97     0.060 A 
HETATM    7  C3    D T 502       4.863  17.929  38.288  1.00 21.44     0.014 A 
HETATM    8 CL14   D T 502       3.701  20.076  39.473  1.00 33.89    -0.082 Cl
HETATM    9  C4    D T 502       5.491  17.342  37.253  1.00 26.23     0.028 A 
ENDBRANCH   1   2
BRANCH   1  10
HETATM   10  C8    D T 502       5.789  16.370  34.464  1.00 57.24     0.111 A 
HETATM   11  C9    D T 502       6.623  15.284  34.108  1.00 45.39     0.081 A 
HETATM   12  C10   D T 502       6.114  14.161  33.509  1.00 19.78     0.025 A 
HETATM   13 CL16   D T 502       8.341  15.342  34.423  1.00 34.00    -0.080 Cl
HETATM   14  C11   D T 502       4.739  14.101  33.259  1.00 50.55     0.059 A 
HETATM   15  C12   D T 502       3.892  15.162  33.610  1.00 64.03     0.013 A 
HETATM   16 CL15   D T 502       4.080  12.710  32.488  1.00 39.89    -0.082 Cl
HETATM   17  C13   D T 502       4.445  16.299  34.214  1.00 34.58     0.026 A 
ENDBRANCH   1  10
TORSDOF 2
ENDMDL
MODEL 4
REMARK VINA RESULT:      -7.7     10.729     12.442
REMARK  2 active torsions:
REMARK  status: ('A' for Active; 'I' for Inactive)
REMARK    1  A    between atoms: C5_4  and  O7_13 
REMARK    2  A    between atoms: C8_10  and  O7_13 
ROOT
HETATM    1  O7    D T 502       0.093  15.023  44.850  1.00 28.67    -0.304 OA
ENDROOT
BRANCH   1   2
HETATM    2  C5    D T 502      -0.898  15.588  45.576  1.00 33.71     0.125 A 
HETATM    3  C6    D T 502      -2.149  15.778  44.945  1.00 25.06     0.154 A 
HETATM    4  C1    D T 502      -3.153  16.332  45.647  1.00 17.88     0.041 A 
HETATM    5  O17   D T 502      -2.327  15.431  43.683  1.00 23.24    -0.188 OA
HETATM    6  C2    D T 502      -2.918  16.654  46.957  1.00 31.97     0.060 A 
HETATM    7  C3    D T 502      -1.688  16.470  47.602  1.00 21.44     0.014 A 
HETATM    8 CL14   D T 502      -4.248  17.326  47.884  1.00 33.89    -0.082 Cl
HETATM    9  C4    D T 502      -0.691  15.934  46.875  1.00 26.23     0.028 A 
ENDBRANCH   1   2
BRANCH   1  10
HETATM   10  C8    D T 502       1.170  15.804  44.427  1.00 57.24     0.111 A 
HETATM   11  C9    D T 502       2.471  15.308  44.682  1.00 45.39     0.081 A 
HETATM   12  C10   D T 502       3.588  16.001  44.292  1.00 19.78     0.025 A 
HETATM   13 CL16   D T 502       2.695  13.784  45.508  1.00 34.00    -0.080 Cl
HETATM   14  C11   D T 502       3.420  17.218  43.623  1.00 50.55     0.059 A 
HETATM   15  C12   D T 502       2.141  17.725  43.353  1.00 64.03     0.013 A 
HETATM   16 CL15   D T 502       4.807  18.116  43.144  1.00 39.89    -0.082 Cl
HETATM   17  C13   D T 502       1.020  16.996  43.771  1.00 34.58     0.026 A 
ENDBRANCH   1  10
TORSDOF 2
ENDMDL
MODEL 5
REMARK VINA RESULT:      -7.7     10.992     12.676
REMARK  2 active torsions:
REMARK  status: ('A' for Active; 'I' for Inactive)
REMARK    1  A    between atoms: C5_4  and  O7_13 
REMARK    2  A    between atoms: C8_10  and  O7_13 
ROOT
HETATM    1  O7    D T 502       0.114  14.901  45.219  1.00 28.67    -0.304 OA
ENDROOT
BRANCH   1   2
HETATM    2  C5    D T 502      -0.950  15.433  45.862  1.00 33.71     0.125 A 
HETATM    3  C6    D T 502      -0.722  16.047  47.114  1.00 25.06     0.154 A 
HETATM    4  C1    D T 502      -1.761  16.590  47.772  1.00 17.88     0.041 A 
HETATM    5  O17   D T 502       0.490  16.076  47.640  1.00 23.24    -0.188 OA
HETATM    6  C2    D T 502      -2.992  16.547  47.171  1.00 31.97     0.060 A 
HETATM    7  C3    D T 502      -3.239  15.948  45.929  1.00 21.44     0.014 A 
HETATM    8 CL14   D T 502      -4.335  17.305  48.008  1.00 33.89    -0.082 Cl
HETATM    9  C4    D T 502      -2.188  15.393  45.298  1.00 26.23     0.028 A 
ENDBRANCH   1   2
BRANCH   1  10
HETATM   10  C8    D T 502       1.102  15.745  44.706  1.00 57.24     0.111 A 
HETATM   11  C9    D T 502       2.446  15.321  44.830  1.00 45.39     0.081 A 
HETATM   12  C10   D T 502       3.481  16.078  44.344  1.00 19.78     0.025 A 
HETATM   13 CL16   D T 502       2.832  13.806  45.611  1.00 34.00    -0.080 Cl
HETATM   14  C11   D T 502       3.182  17.289  43.710  1.00 50.55     0.059 A 
HETATM   15  C12   D T 502       1.857  17.726  43.569  1.00 64.03     0.013 A 
HETATM   16 CL15   D T 502       4.466  18.267  43.112  1.00 39.89    -0.082 Cl
HETATM   17  C13   D T 502       0.824  16.931  44.083  1.00 34.58     0.026 A 
ENDBRANCH   1  10
TORSDOF 2
ENDMDL
MODEL 6
REMARK VINA RESULT:      -7.6     10.659     12.946
REMARK  2 active torsions:
REMARK  status: ('A' for Active; 'I' for Inactive)
REMARK    1  A    between atoms: C5_4  and  O7_13 
REMARK    2  A    between atoms: C8_10  and  O7_13 
ROOT
HETATM    1  O7    D T 502      -0.510  16.030  43.884  1.00 28.67    -0.304 OA
ENDROOT
BRANCH   1   2
HETATM    2  C5    D T 502      -0.951  15.613  42.675  1.00 33.71     0.125 A 
HETATM    3  C6    D T 502      -0.473  14.374  42.193  1.00 25.06     0.154 A 
HETATM    4  C1    D T 502      -0.900  13.932  40.997  1.00 17.88     0.041 A 
HETATM    5  O17   D T 502       0.392  13.665  42.897  1.00 23.24    -0.188 OA
HETATM    6  C2    D T 502      -1.811  14.699  40.320  1.00 31.97     0.060 A 
HETATM    7  C3    D T 502      -2.302  15.928  40.782  1.00 21.44     0.014 A 
HETATM    8 CL14   D T 502      -2.409  14.092  38.786  1.00 33.89    -0.082 Cl
HETATM    9  C4    D T 502      -1.844  16.360  41.971  1.00 26.23     0.028 A 
ENDBRANCH   1   2
BRANCH   1  10
HETATM   10  C8    D T 502      -1.426  16.242  44.916  1.00 57.24     0.111 A 
HETATM   11  C9    D T 502      -1.408  17.508  45.549  1.00 45.39     0.081 A 
HETATM   12  C10   D T 502      -2.279  17.810  46.564  1.00 19.78     0.025 A 
HETATM   13 CL16   D T 502      -0.267  18.735  45.052  1.00 34.00    -0.080 Cl
HETATM   14  C11   D T 502      -3.201  16.838  46.965  1.00 50.55     0.059 A 
HETATM   15  C12   D T 502      -3.242  15.580  46.347  1.00 64.03     0.013 A 
HETATM   16 CL15   D T 502      -4.290  17.186  48.251  1.00 39.89    -0.082 Cl
HETATM   17  C13   D T 502      -2.333  15.300  45.317  1.00 34.58     0.026 A 
ENDBRANCH   1  10
TORSDOF 2
ENDMDL
MODEL 7
REMARK VINA RESULT:      -7.5     10.466     12.208
REMARK  2 active torsions:
REMARK  status: ('A' for Active; 'I' for Inactive)
REMARK    1  A    between atoms: C5_4  and  O7_13 
REMARK    2  A    between atoms: C8_10  and  O7_13 
ROOT
HETATM    1  O7    D T 502       0.573  15.177  45.228  1.00 28.67    -0.304 OA
ENDROOT
BRANCH   1   2
HETATM    2  C5    D T 502      -0.561  15.578  45.846  1.00 33.71     0.125 A 
HETATM    3  C6    D T 502      -0.436  16.191  47.113  1.00 25.06     0.154 A 
HETATM    4  C1    D T 502      -1.547  16.606  47.747  1.00 17.88     0.041 A 
HETATM    5  O17   D T 502       0.749  16.341  47.676  1.00 23.24    -0.188 OA
HETATM    6  C2    D T 502      -2.748  16.442  47.108  1.00 31.97     0.060 A 
HETATM    7  C3    D T 502      -2.893  15.843  45.850  1.00 21.44     0.014 A 
HETATM    8 CL14   D T 502      -4.189  17.036  47.914  1.00 33.89    -0.082 Cl
HETATM    9  C4    D T 502      -1.770  15.416  45.244  1.00 26.23     0.028 A 
ENDBRANCH   1   2
BRANCH   1  10
HETATM   10  C8    D T 502       1.109  15.952  44.198  1.00 57.24     0.111 A 
HETATM   11  C9    D T 502       1.077  15.408  42.892  1.00 45.39     0.081 A 
HETATM   12  C10   D T 502       1.569  16.103  41.817  1.00 19.78     0.025 A 
HETATM   13 CL16   D T 502       0.403  13.821  42.606  1.00 34.00    -0.080 Cl
HETATM   14  C11   D T 502       2.104  17.378  42.034  1.00 50.55     0.059 A 
HETATM   15  C12   D T 502       2.139  17.940  43.318  1.00 64.03     0.013 A 
HETATM   16 CL15   D T 502       2.748  18.260  40.704  1.00 39.89    -0.082 Cl
HETATM   17  C13   D T 502       1.634  17.201  44.396  1.00 34.58     0.026 A 
ENDBRANCH   1  10
TORSDOF 2
ENDMDL
MODEL 8
REMARK VINA RESULT:      -7.4     10.198     12.556
REMARK  2 active torsions:
REMARK  status: ('A' for Active; 'I' for Inactive)
REMARK    1  A    between atoms: C5_4  and  O7_13 
REMARK    2  A    between atoms: C8_10  and  O7_13 
ROOT
HETATM    1  O7    D T 502       1.328  17.301  45.476  1.00 28.67    -0.304 OA
ENDROOT
BRANCH   1   2
HETATM    2  C5    D T 502       1.528  16.995  44.174  1.00 33.71     0.125 A 
HETATM    3  C6    D T 502       2.205  17.942  43.373  1.00 25.06     0.154 A 
HETATM    4  C1    D T 502       2.423  17.660  42.077  1.00 17.88     0.041 A 
HETATM    5  O17   D T 502       2.604  19.093  43.883  1.00 23.24    -0.188 OA
HETATM    6  C2    D T 502       2.004  16.444  41.607  1.00 31.97     0.060 A 
HETATM    7  C3    D T 502       1.336  15.488  42.385  1.00 21.44     0.014 A 
HETATM    8 CL14   D T 502       2.340  16.058  39.928  1.00 33.89    -0.082 Cl
HETATM    9  C4    D T 502       1.110  15.801  43.674  1.00 26.23     0.028 A 
ENDBRANCH   1   2
BRANCH   1  10
HETATM   10  C8    D T 502       0.028  17.333  45.985  1.00 57.24     0.111 A 
HETATM   11  C9    D T 502      -0.278  16.441  47.040  1.00 45.39     0.081 A 
HETATM   12  C10   D T 502      -1.525  16.411  47.610  1.00 19.78     0.025 A 
HETATM   13 CL16   D T 502       0.933  15.341  47.654  1.00 34.00    -0.080 Cl
HETATM   14  C11   D T 502      -2.500  17.293  47.131  1.00 50.55     0.059 A 
HETATM   15  C12   D T 502      -2.217  18.191  46.092  1.00 64.03     0.013 A 
HETATM   16 CL15   D T 502      -4.079  17.258  47.815  1.00 39.89    -0.082 Cl
HETATM   17  C13   D T 502      -0.935  18.191  45.526  1.00 34.58     0.026 A 
ENDBRANCH   1  10
TORSDOF 2
ENDMDL
MODEL 9
REMARK VINA RESULT:      -7.3     10.109     12.323
REMARK  2 active torsions:
REMARK  status: ('A' for Active; 'I' for Inactive)
REMARK    1  A    between atoms: C5_4  and  O7_13 
REMARK    2  A    between atoms: C8_10  and  O7_13 
ROOT
HETATM    1  O7    D T 502       0.554  15.105  44.232  1.00 28.67    -0.304 OA
ENDROOT
BRANCH   1   2
HETATM    2  C5    D T 502       1.584  15.924  43.917  1.00 33.71     0.125 A 
HETATM    3  C6    D T 502       2.891  15.486  44.230  1.00 25.06     0.154 A 
HETATM    4  C1    D T 502       3.933  16.277  43.921  1.00 17.88     0.041 A 
HETATM    5  O17   D T 502       3.087  14.326  44.830  1.00 23.24    -0.188 OA
HETATM    6  C2    D T 502       3.671  17.460  43.282  1.00 31.97     0.060 A 
HETATM    7  C3    D T 502       2.385  17.911  42.958  1.00 21.44     0.014 A 
HETATM    8 CL14   D T 502       5.039  18.464  42.831  1.00 33.89    -0.082 Cl
HETATM    9  C4    D T 502       1.355  17.113  43.295  1.00 26.23     0.028 A 
ENDBRANCH   1   2
BRANCH   1  10
HETATM   10  C8    D T 502      -0.440  15.553  45.104  1.00 57.24     0.111 A 
HETATM   11  C9    D T 502      -1.734  15.752  44.566  1.00 45.39     0.081 A 
HETATM   12  C10   D T 502      -2.775  16.178  45.350  1.00 19.78     0.025 A 
HETATM   13 CL16   D T 502      -2.047  15.458  42.872  1.00 34.00    -0.080 Cl
HETATM   14  C11   D T 502      -2.537  16.409  46.709  1.00 50.55     0.059 A 
HETATM   15  C12   D T 502      -1.265  16.211  47.266  1.00 64.03     0.013 A 
HETATM   16 CL15   D T 502      -3.823  16.966  47.708  1.00 39.89    -0.082 Cl
HETATM   17  C13   D T 502      -0.221  15.782  46.436  1.00 34.58     0.026 A 
ENDBRANCH   1  10
TORSDOF 2
ENDMDL
