MODEL 1
REMARK VINA RESULT:    -7.615      0.000      0.000
REMARK INTER + INTRA:          -9.059
REMARK INTER:                  -8.506
REMARK INTRA:                  -0.554
REMARK UNBOUND:                -0.554
REMARK  2 active torsions:
REMARK  status: ('A' for Active; 'I' for Inactive)
REMARK    1  A    between atoms: C5_4  and  O7_13 
REMARK    2  A    between atoms: C8_10  and  O7_13 
ROOT
HETATM    1  O7    D T 502       6.824   1.187  -6.867  1.00 28.67    -0.304 OA
ENDROOT
BRANCH   1   2
HETATM    2  C5    D T 502       5.875   1.894  -6.210  1.00 33.71     0.125 A 
HETATM    3  C6    D T 502       4.771   1.182  -5.688  1.00 25.06     0.154 A 
HETATM    4  C1    D T 502       3.817   1.859  -5.026  1.00 17.88     0.041 A 
HETATM    5  O17   D T 502       4.668  -0.123  -5.859  1.00 23.24    -0.188 OA
HETATM    6  C2    D T 502       3.985   3.208  -4.862  1.00 31.97     0.060 A 
HETATM    7  C3    D T 502       5.074   3.932  -5.367  1.00 21.44     0.014 A 
HETATM    8 CL14   D T 502       2.764   4.077  -3.949  1.00 33.89    -0.082 Cl
HETATM    9  C4    D T 502       6.006   3.237  -6.044  1.00 26.23     0.028 A 
ENDBRANCH   1   2
BRANCH   1  10
HETATM   10  C8    D T 502       7.008   1.385  -8.236  1.00 57.24     0.111 A 
HETATM   11  C9    D T 502       8.230   1.966  -8.650  1.00 45.39     0.081 A 
HETATM   12  C10   D T 502       8.502   2.185  -9.975  1.00 19.78     0.025 A 
HETATM   13 CL16   D T 502       9.439   2.424  -7.475  1.00 34.00    -0.080 Cl
HETATM   14  C11   D T 502       7.544   1.816 -10.926  1.00 50.55     0.059 A 
HETATM   15  C12   D T 502       6.329   1.232 -10.540  1.00 64.03     0.013 A 
HETATM   16 CL15   D T 502       7.853   2.103 -12.594  1.00 39.89    -0.082 Cl
HETATM   17  C13   D T 502       6.079   1.027  -9.175  1.00 34.58     0.026 A 
ENDBRANCH   1  10
TORSDOF 2
ENDMDL
MODEL 2
REMARK VINA RESULT:    -7.601      1.478      6.059
REMARK INTER + INTRA:          -9.044
REMARK INTER:                  -8.500
REMARK INTRA:                  -0.543
REMARK UNBOUND:                -0.554
REMARK  2 active torsions:
REMARK  status: ('A' for Active; 'I' for Inactive)
REMARK    1  A    between atoms: C5_4  and  O7_13 
REMARK    2  A    between atoms: C8_10  and  O7_13 
ROOT
HETATM    1  O7    D T 502       6.935   1.208  -6.930  1.00 28.67    -0.304 OA
ENDROOT
BRANCH   1   2
HETATM    2  C5    D T 502       7.123   1.417  -8.254  1.00 33.71     0.125 A 
HETATM    3  C6    D T 502       8.321   2.054  -8.655  1.00 25.06     0.154 A 
HETATM    4  C1    D T 502       8.536   2.268  -9.964  1.00 17.88     0.041 A 
HETATM    5  O17   D T 502       9.208   2.445  -7.758  1.00 23.24    -0.188 OA
HETATM    6  C2    D T 502       7.590   1.824 -10.850  1.00 31.97     0.060 A 
HETATM    7  C3    D T 502       6.399   1.188 -10.474  1.00 21.44     0.014 A 
HETATM    8 CL14   D T 502       7.901   2.058 -12.561  1.00 33.89    -0.082 Cl
HETATM    9  C4    D T 502       6.195   1.002  -9.157  1.00 26.23     0.028 A 
ENDBRANCH   1   2
BRANCH   1  10
HETATM   10  C8    D T 502       5.964   1.941  -6.247  1.00 57.24     0.111 A 
HETATM   11  C9    D T 502       4.813   1.243  -5.810  1.00 45.39     0.081 A 
HETATM   12  C10   D T 502       3.813   1.878  -5.120  1.00 19.78     0.025 A 
HETATM   13 CL16   D T 502       4.630  -0.464  -6.138  1.00 34.00    -0.080 Cl
HETATM   14  C11   D T 502       3.952   3.243  -4.846  1.00 50.55     0.059 A 
HETATM   15  C12   D T 502       5.087   3.953  -5.262  1.00 64.03     0.013 A 
HETATM   16 CL15   D T 502       2.699   4.067  -4.001  1.00 39.89    -0.082 Cl
HETATM   17  C13   D T 502       6.089   3.275  -5.971  1.00 34.58     0.026 A 
ENDBRANCH   1  10
TORSDOF 2
ENDMDL
MODEL 3
REMARK VINA RESULT:    -7.208      2.224      6.143
REMARK INTER + INTRA:          -8.605
REMARK INTER:                  -8.064
REMARK INTRA:                  -0.541
REMARK UNBOUND:                -0.554
REMARK  2 active torsions:
REMARK  status: ('A' for Active; 'I' for Inactive)
REMARK    1  A    between atoms: C5_4  and  O7_13 
REMARK    2  A    between atoms: C8_10  and  O7_13 
ROOT
HETATM    1  O7    D T 502       4.290   1.917  -7.731  1.00 28.67    -0.304 OA
ENDROOT
BRANCH   1   2
HETATM    2  C5    D T 502       5.246   1.758  -8.674  1.00 33.71     0.125 A 
HETATM    3  C6    D T 502       5.341   2.741  -9.686  1.00 25.06     0.154 A 
HETATM    4  C1    D T 502       6.287   2.611 -10.631  1.00 17.88     0.041 A 
HETATM    5  O17   D T 502       4.506   3.764  -9.711  1.00 23.24    -0.188 OA
HETATM    6  C2    D T 502       7.138   1.541 -10.544  1.00 31.97     0.060 A 
HETATM    7  C3    D T 502       7.064   0.558  -9.548  1.00 21.44     0.014 A 
HETATM    8 CL14   D T 502       8.405   1.406 -11.750  1.00 33.89    -0.082 Cl
HETATM    9  C4    D T 502       6.096   0.697  -8.624  1.00 26.23     0.028 A 
ENDBRANCH   1   2
BRANCH   1  10
HETATM   10  C8    D T 502       4.654   2.275  -6.432  1.00 57.24     0.111 A 
HETATM   11  C9    D T 502       4.530   1.286  -5.427  1.00 45.39     0.081 A 
HETATM   12  C10   D T 502       4.877   1.544  -4.127  1.00 19.78     0.025 A 
HETATM   13 CL16   D T 502       3.926  -0.306  -5.817  1.00 34.00    -0.080 Cl
HETATM   14  C11   D T 502       5.368   2.814  -3.804  1.00 50.55     0.059 A 
HETATM   15  C12   D T 502       5.508   3.807  -4.784  1.00 64.03     0.013 A 
HETATM   16 CL15   D T 502       5.788   3.169  -2.173  1.00 39.89    -0.082 Cl
HETATM   17  C13   D T 502       5.137   3.513  -6.104  1.00 34.58     0.026 A 
ENDBRANCH   1  10
TORSDOF 2
ENDMDL
MODEL 4
REMARK VINA RESULT:    -7.204      1.846      2.177
REMARK INTER + INTRA:          -8.600
REMARK INTER:                  -8.097
REMARK INTRA:                  -0.503
REMARK UNBOUND:                -0.554
REMARK  2 active torsions:
REMARK  status: ('A' for Active; 'I' for Inactive)
REMARK    1  A    between atoms: C5_4  and  O7_13 
REMARK    2  A    between atoms: C8_10  and  O7_13 
ROOT
HETATM    1  O7    D T 502       6.641   3.419  -6.752  1.00 28.67    -0.304 OA
ENDROOT
BRANCH   1   2
HETATM    2  C5    D T 502       5.946   2.598  -5.931  1.00 33.71     0.125 A 
HETATM    3  C6    D T 502       4.749   3.094  -5.366  1.00 25.06     0.154 A 
HETATM    4  C1    D T 502       4.035   2.296  -4.553  1.00 17.88     0.041 A 
HETATM    5  O17   D T 502       4.343   4.325  -5.621  1.00 23.24    -0.188 OA
HETATM    6  C2    D T 502       4.493   1.023  -4.340  1.00 31.97     0.060 A 
HETATM    7  C3    D T 502       5.675   0.511  -4.893  1.00 21.44     0.014 A 
HETATM    8 CL14   D T 502       3.530  -0.031  -3.321  1.00 33.89    -0.082 Cl
HETATM    9  C4    D T 502       6.384   1.333  -5.688  1.00 26.23     0.028 A 
ENDBRANCH   1   2
BRANCH   1  10
HETATM   10  C8    D T 502       6.794   3.081  -8.098  1.00 57.24     0.111 A 
HETATM   11  C9    D T 502       8.058   2.591  -8.504  1.00 45.39     0.081 A 
HETATM   12  C10   D T 502       8.297   2.223  -9.802  1.00 19.78     0.025 A 
HETATM   13 CL16   D T 502       9.365   2.441  -7.353  1.00 34.00    -0.080 Cl
HETATM   14  C11   D T 502       7.256   2.333 -10.731  1.00 50.55     0.059 A 
HETATM   15  C12   D T 502       5.992   2.807 -10.350  1.00 64.03     0.013 A 
HETATM   16 CL15   D T 502       7.538   1.897 -12.372  1.00 39.89    -0.082 Cl
HETATM   17  C13   D T 502       5.784   3.182  -9.015  1.00 34.58     0.026 A 
ENDBRANCH   1  10
TORSDOF 2
ENDMDL
MODEL 5
REMARK VINA RESULT:    -7.128      1.995      5.996
REMARK INTER + INTRA:          -8.515
REMARK INTER:                  -8.035
REMARK INTRA:                  -0.480
REMARK UNBOUND:                -0.554
REMARK  2 active torsions:
REMARK  status: ('A' for Active; 'I' for Inactive)
REMARK    1  A    between atoms: C5_4  and  O7_13 
REMARK    2  A    between atoms: C8_10  and  O7_13 
ROOT
HETATM    1  O7    D T 502       6.508   3.420  -6.645  1.00 28.67    -0.304 OA
ENDROOT
BRANCH   1   2
HETATM    2  C5    D T 502       6.725   3.096  -7.941  1.00 33.71     0.125 A 
HETATM    3  C6    D T 502       8.014   2.633  -8.294  1.00 25.06     0.154 A 
HETATM    4  C1    D T 502       8.255   2.298  -9.573  1.00 17.88     0.041 A 
HETATM    5  O17   D T 502       8.970   2.545  -7.388  1.00 23.24    -0.188 OA
HETATM    6  C2    D T 502       7.221   2.391 -10.466  1.00 31.97     0.060 A 
HETATM    7  C3    D T 502       5.936   2.842 -10.136  1.00 21.44     0.014 A 
HETATM    8 CL14   D T 502       7.526   1.899 -12.122  1.00 33.89    -0.082 Cl
HETATM    9  C4    D T 502       5.722   3.192  -8.854  1.00 26.23     0.028 A 
ENDBRANCH   1   2
BRANCH   1  10
HETATM   10  C8    D T 502       5.814   2.534  -5.819  1.00 57.24     0.111 A 
HETATM   11  C9    D T 502       4.650   3.020  -5.178  1.00 45.39     0.081 A 
HETATM   12  C10   D T 502       3.899   2.218  -4.359  1.00 19.78     0.025 A 
HETATM   13 CL16   D T 502       4.130   4.672  -5.413  1.00 34.00    -0.080 Cl
HETATM   14  C11   D T 502       4.303   0.891  -4.169  1.00 50.55     0.059 A 
HETATM   15  C12   D T 502       5.448   0.385  -4.800  1.00 64.03     0.013 A 
HETATM   16 CL15   D T 502       3.389  -0.129  -3.128  1.00 39.89    -0.082 Cl
HETATM   17  C13   D T 502       6.198   1.235  -5.626  1.00 34.58     0.026 A 
ENDBRANCH   1  10
TORSDOF 2
ENDMDL
MODEL 6
REMARK VINA RESULT:    -6.949      2.925      5.843
REMARK INTER + INTRA:          -8.315
REMARK INTER:                  -7.939
REMARK INTRA:                  -0.376
REMARK UNBOUND:                -0.554
REMARK  2 active torsions:
REMARK  status: ('A' for Active; 'I' for Inactive)
REMARK    1  A    between atoms: C5_4  and  O7_13 
REMARK    2  A    between atoms: C8_10  and  O7_13 
ROOT
HETATM    1  O7    D T 502       6.852   2.168  -7.371  1.00 28.67    -0.304 OA
ENDROOT
BRANCH   1   2
HETATM    2  C5    D T 502       6.968   2.095  -8.718  1.00 33.71     0.125 A 
HETATM    3  C6    D T 502       6.434   3.159  -9.481  1.00 25.06     0.154 A 
HETATM    4  C1    D T 502       6.541   3.115 -10.820  1.00 17.88     0.041 A 
HETATM    5  O17   D T 502       5.826   4.173  -8.891  1.00 23.24    -0.188 OA
HETATM    6  C2    D T 502       7.198   2.050 -11.376  1.00 31.97     0.060 A 
HETATM    7  C3    D T 502       7.738   0.988 -10.637  1.00 21.44     0.014 A 
HETATM    8 CL14   D T 502       7.383   2.025 -13.120  1.00 33.89    -0.082 Cl
HETATM    9  C4    D T 502       7.601   1.042  -9.300  1.00 26.23     0.028 A 
ENDBRANCH   1   2
BRANCH   1  10
HETATM   10  C8    D T 502       7.953   1.870  -6.567  1.00 57.24     0.111 A 
HETATM   11  C9    D T 502       7.797   0.842  -5.607  1.00 45.39     0.081 A 
HETATM   12  C10   D T 502       8.828   0.473  -4.783  1.00 19.78     0.025 A 
HETATM   13 CL16   D T 502       6.272   0.005  -5.442  1.00 34.00    -0.080 Cl
HETATM   14  C11   D T 502      10.056   1.133  -4.911  1.00 50.55     0.059 A 
HETATM   15  C12   D T 502      10.237   2.148  -5.861  1.00 64.03     0.013 A 
HETATM   16 CL15   D T 502      11.359   0.703  -3.873  1.00 39.89    -0.082 Cl
HETATM   17  C13   D T 502       9.159   2.506  -6.684  1.00 34.58     0.026 A 
ENDBRANCH   1  10
TORSDOF 2
ENDMDL
MODEL 7
REMARK VINA RESULT:    -6.901      1.855      6.135
REMARK INTER + INTRA:          -8.262
REMARK INTER:                  -7.914
REMARK INTRA:                  -0.347
REMARK UNBOUND:                -0.554
REMARK  2 active torsions:
REMARK  status: ('A' for Active; 'I' for Inactive)
REMARK    1  A    between atoms: C5_4  and  O7_13 
REMARK    2  A    between atoms: C8_10  and  O7_13 
ROOT
HETATM    1  O7    D T 502       4.947   1.613  -6.689  1.00 28.67    -0.304 OA
ENDROOT
BRANCH   1   2
HETATM    2  C5    D T 502       6.010   1.899  -7.476  1.00 33.71     0.125 A 
HETATM    3  C6    D T 502       5.780   2.044  -8.864  1.00 25.06     0.154 A 
HETATM    4  C1    D T 502       6.818   2.334  -9.667  1.00 17.88     0.041 A 
HETATM    5  O17   D T 502       4.570   1.883  -9.367  1.00 23.24    -0.188 OA
HETATM    6  C2    D T 502       8.047   2.509  -9.088  1.00 31.97     0.060 A 
HETATM    7  C3    D T 502       8.295   2.375  -7.715  1.00 21.44     0.014 A 
HETATM    8 CL14   D T 502       9.387   2.942 -10.134  1.00 33.89    -0.082 Cl
HETATM    9  C4    D T 502       7.246   2.063  -6.933  1.00 26.23     0.028 A 
ENDBRANCH   1   2
BRANCH   1  10
HETATM   10  C8    D T 502       4.467   2.577  -5.802  1.00 57.24     0.111 A 
HETATM   11  C9    D T 502       3.899   2.118  -4.590  1.00 45.39     0.081 A 
HETATM   12  C10   D T 502       3.414   2.993  -3.653  1.00 19.78     0.025 A 
HETATM   13 CL16   D T 502       3.799   0.407  -4.247  1.00 34.00    -0.080 Cl
HETATM   14  C11   D T 502       3.495   4.365  -3.913  1.00 50.55     0.059 A 
HETATM   15  C12   D T 502       4.061   4.844  -5.103  1.00 64.03     0.013 A 
HETATM   16 CL15   D T 502       2.872   5.482  -2.762  1.00 39.89    -0.082 Cl
HETATM   17  C13   D T 502       4.542   3.922  -6.044  1.00 34.58     0.026 A 
ENDBRANCH   1  10
TORSDOF 2
ENDMDL
MODEL 8
REMARK VINA RESULT:    -6.821      2.215      2.622
REMARK INTER + INTRA:          -8.173
REMARK INTER:                  -7.731
REMARK INTRA:                  -0.442
REMARK UNBOUND:                -0.554
REMARK  2 active torsions:
REMARK  status: ('A' for Active; 'I' for Inactive)
REMARK    1  A    between atoms: C5_4  and  O7_13 
REMARK    2  A    between atoms: C8_10  and  O7_13 
ROOT
HETATM    1  O7    D T 502       6.601   3.388  -6.774  1.00 28.67    -0.304 OA
ENDROOT
BRANCH   1   2
HETATM    2  C5    D T 502       5.867   2.585  -5.969  1.00 33.71     0.125 A 
HETATM    3  C6    D T 502       6.548   1.872  -4.956  1.00 25.06     0.154 A 
HETATM    4  C1    D T 502       5.842   1.072  -4.139  1.00 17.88     0.041 A 
HETATM    5  O17   D T 502       7.858   1.976  -4.822  1.00 23.24    -0.188 OA
HETATM    6  C2    D T 502       4.484   1.017  -4.311  1.00 31.97     0.060 A 
HETATM    7  C3    D T 502       3.790   1.719  -5.306  1.00 21.44     0.014 A 
HETATM    8 CL14   D T 502       3.561   0.015  -3.206  1.00 33.89    -0.082 Cl
HETATM    9  C4    D T 502       4.519   2.497  -6.126  1.00 26.23     0.028 A 
ENDBRANCH   1   2
BRANCH   1  10
HETATM   10  C8    D T 502       6.859   2.996  -8.089  1.00 57.24     0.111 A 
HETATM   11  C9    D T 502       6.084   3.597  -9.109  1.00 45.39     0.081 A 
HETATM   12  C10   D T 502       6.277   3.284 -10.429  1.00 19.78     0.025 A 
HETATM   13 CL16   D T 502       4.848   4.767  -8.713  1.00 34.00    -0.080 Cl
HETATM   14  C11   D T 502       7.268   2.353 -10.759  1.00 50.55     0.059 A 
HETATM   15  C12   D T 502       8.055   1.751  -9.766  1.00 64.03     0.013 A 
HETATM   16 CL15   D T 502       7.514   1.926 -12.407  1.00 39.89    -0.082 Cl
HETATM   17  C13   D T 502       7.827   2.088  -8.423  1.00 34.58     0.026 A 
ENDBRANCH   1  10
TORSDOF 2
ENDMDL
MODEL 9
REMARK VINA RESULT:    -6.812      2.704      3.362
REMARK INTER + INTRA:          -8.162
REMARK INTER:                  -7.605
REMARK INTRA:                  -0.557
REMARK UNBOUND:                -0.554
REMARK  2 active torsions:
REMARK  status: ('A' for Active; 'I' for Inactive)
REMARK    1  A    between atoms: C5_4  and  O7_13 
REMARK    2  A    between atoms: C8_10  and  O7_13 
ROOT
HETATM    1  O7    D T 502       4.150   2.672  -6.306  1.00 28.67    -0.304 OA
ENDROOT
BRANCH   1   2
HETATM    2  C5    D T 502       4.616   2.959  -5.069  1.00 33.71     0.125 A 
HETATM    3  C6    D T 502       4.403   4.266  -4.574  1.00 25.06     0.154 A 
HETATM    4  C1    D T 502       4.850   4.576  -3.345  1.00 17.88     0.041 A 
HETATM    5  O17   D T 502       3.787   5.173  -5.309  1.00 23.24    -0.188 OA
HETATM    6  C2    D T 502       5.465   3.590  -2.619  1.00 31.97     0.060 A 
HETATM    7  C3    D T 502       5.682   2.287  -3.089  1.00 21.44     0.014 A 
HETATM    8 CL14   D T 502       5.997   3.984  -0.994  1.00 33.89    -0.082 Cl
HETATM    9  C4    D T 502       5.244   2.005  -4.330  1.00 26.23     0.028 A 
ENDBRANCH   1   2
BRANCH   1  10
HETATM   10  C8    D T 502       5.048   2.349  -7.325  1.00 57.24     0.111 A 
HETATM   11  C9    D T 502       4.966   1.048  -7.874  1.00 45.39     0.081 A 
HETATM   12  C10   D T 502       5.799   0.647  -8.886  1.00 19.78     0.025 A 
HETATM   13 CL16   D T 502       3.790  -0.097  -7.274  1.00 34.00    -0.080 Cl
HETATM   14  C11   D T 502       6.740   1.558  -9.379  1.00 50.55     0.059 A 
HETATM   15  C12   D T 502       6.834   2.856  -8.856  1.00 64.03     0.013 A 
HETATM   16 CL15   D T 502       7.812   1.071 -10.633  1.00 39.89    -0.082 Cl
HETATM   17  C13   D T 502       5.971   3.232  -7.816  1.00 34.58     0.026 A 
ENDBRANCH   1  10
TORSDOF 2
ENDMDL
