MODEL 1
REMARK VINA RESULT:    -7.752      0.000      0.000
REMARK INTER + INTRA:          -8.929
REMARK INTER:                  -8.659
REMARK INTRA:                  -0.270
REMARK UNBOUND:                -0.270
REMARK  2 active torsions:
REMARK  status: ('A' for Active; 'I' for Inactive)
REMARK    1  A    between atoms: C5_4  and  O7_13 
REMARK    2  A    between atoms: C8_10  and  O7_13 
ROOT
HETATM    1  O7    D T 502       5.650   0.074  -7.556  1.00 28.67    -0.304 OA
ENDROOT
BRANCH   1   2
HETATM    2  C5    D T 502       4.947   0.976  -6.833  1.00 33.71     0.125 A 
HETATM    3  C6    D T 502       3.882   0.495  -6.038  1.00 25.06     0.154 A 
HETATM    4  C1    D T 502       3.172   1.369  -5.304  1.00 17.88     0.041 A 
HETATM    5  O17   D T 502       3.578  -0.791  -6.026  1.00 23.24    -0.188 OA
HETATM    6  C2    D T 502       3.543   2.687  -5.342  1.00 31.97     0.060 A 
HETATM    7  C3    D T 502       4.598   3.184  -6.118  1.00 21.44     0.014 A 
HETATM    8 CL14   D T 502       2.648   3.816  -4.339  1.00 33.89    -0.082 Cl
HETATM    9  C4    D T 502       5.282   2.295  -6.860  1.00 26.23     0.028 A 
ENDBRANCH   1   2
BRANCH   1  10
HETATM   10  C8    D T 502       6.155   0.436  -8.806  1.00 57.24     0.111 A 
HETATM   11  C9    D T 502       5.249   0.445  -9.894  1.00 45.39     0.081 A 
HETATM   12  C10   D T 502       5.654   0.797 -11.155  1.00 19.78     0.025 A 
HETATM   13 CL16   D T 502       3.574   0.005  -9.660  1.00 34.00    -0.080 Cl
HETATM   14  C11   D T 502       6.992   1.159 -11.352  1.00 50.55     0.059 A 
HETATM   15  C12   D T 502       7.905   1.164 -10.288  1.00 64.03     0.013 A 
HETATM   16 CL15   D T 502       7.527   1.584 -12.931  1.00 39.89    -0.082 Cl
HETATM   17  C13   D T 502       7.460   0.791  -9.012  1.00 34.58     0.026 A 
ENDBRANCH   1  10
TORSDOF 2
ENDMDL
MODEL 2
REMARK VINA RESULT:    -7.578      3.125      3.494
REMARK INTER + INTRA:          -8.735
REMARK INTER:                  -8.239
REMARK INTRA:                  -0.496
REMARK UNBOUND:                -0.270
REMARK  2 active torsions:
REMARK  status: ('A' for Active; 'I' for Inactive)
REMARK    1  A    between atoms: C5_4  and  O7_13 
REMARK    2  A    between atoms: C8_10  and  O7_13 
ROOT
HETATM    1  O7    D T 502       6.185   1.479  -7.663  1.00 28.67    -0.304 OA
ENDROOT
BRANCH   1   2
HETATM    2  C5    D T 502       7.193   1.587  -6.767  1.00 33.71     0.125 A 
HETATM    3  C6    D T 502       7.250   0.634  -5.724  1.00 25.06     0.154 A 
HETATM    4  C1    D T 502       8.246   0.714  -4.825  1.00 17.88     0.041 A 
HETATM    5  O17   D T 502       6.331  -0.310  -5.624  1.00 23.24    -0.188 OA
HETATM    6  C2    D T 502       9.179   1.703  -4.989  1.00 31.97     0.060 A 
HETATM    7  C3    D T 502       9.145   2.653  -6.018  1.00 21.44     0.014 A 
HETATM    8 CL14   D T 502      10.508   1.768  -3.845  1.00 33.89    -0.082 Cl
HETATM    9  C4    D T 502       8.128   2.567  -6.895  1.00 26.23     0.028 A 
ENDBRANCH   1   2
BRANCH   1  10
HETATM   10  C8    D T 502       6.479   1.363  -9.023  1.00 57.24     0.111 A 
HETATM   11  C9    D T 502       5.962   2.359  -9.886  1.00 45.39     0.081 A 
HETATM   12  C10   D T 502       6.209   2.331 -11.234  1.00 19.78     0.025 A 
HETATM   13 CL16   D T 502       4.985   3.663  -9.254  1.00 34.00    -0.080 Cl
HETATM   14  C11   D T 502       6.997   1.295 -11.749  1.00 50.55     0.059 A 
HETATM   15  C12   D T 502       7.525   0.303 -10.912  1.00 64.03     0.013 A 
HETATM   16 CL15   D T 502       7.302   1.229 -13.441  1.00 39.89    -0.082 Cl
HETATM   17  C13   D T 502       7.247   0.355  -9.539  1.00 34.58     0.026 A 
ENDBRANCH   1  10
TORSDOF 2
ENDMDL
MODEL 3
REMARK VINA RESULT:    -7.537      1.166      5.861
REMARK INTER + INTRA:          -8.689
REMARK INTER:                  -8.206
REMARK INTRA:                  -0.483
REMARK UNBOUND:                -0.270
REMARK  2 active torsions:
REMARK  status: ('A' for Active; 'I' for Inactive)
REMARK    1  A    between atoms: C5_4  and  O7_13 
REMARK    2  A    between atoms: C8_10  and  O7_13 
ROOT
HETATM    1  O7    D T 502       5.893   0.334  -7.471  1.00 28.67    -0.304 OA
ENDROOT
BRANCH   1   2
HETATM    2  C5    D T 502       6.207   0.633  -8.752  1.00 33.71     0.125 A 
HETATM    3  C6    D T 502       7.516   1.097  -9.016  1.00 25.06     0.154 A 
HETATM    4  C1    D T 502       7.858   1.396 -10.281  1.00 17.88     0.041 A 
HETATM    5  O17   D T 502       8.387   1.250  -8.034  1.00 23.24    -0.188 OA
HETATM    6  C2    D T 502       6.920   1.201 -11.260  1.00 31.97     0.060 A 
HETATM    7  C3    D T 502       5.620   0.737 -11.022  1.00 21.44     0.014 A 
HETATM    8 CL14   D T 502       7.389   1.539 -12.918  1.00 33.89    -0.082 Cl
HETATM    9  C4    D T 502       5.293   0.464  -9.745  1.00 26.23     0.028 A 
ENDBRANCH   1   2
BRANCH   1  10
HETATM   10  C8    D T 502       5.086   1.206  -6.737  1.00 57.24     0.111 A 
HETATM   11  C9    D T 502       3.965   0.651  -6.076  1.00 45.39     0.081 A 
HETATM   12  C10   D T 502       3.124   1.429  -5.323  1.00 19.78     0.025 A 
HETATM   13 CL16   D T 502       3.614  -1.057  -6.200  1.00 34.00    -0.080 Cl
HETATM   14  C11   D T 502       3.400   2.796  -5.210  1.00 50.55     0.059 A 
HETATM   15  C12   D T 502       4.510   3.366  -5.850  1.00 64.03     0.013 A 
HETATM   16 CL15   D T 502       2.347   3.796  -4.287  1.00 39.89    -0.082 Cl
HETATM   17  C13   D T 502       5.345   2.544  -6.619  1.00 34.58     0.026 A 
ENDBRANCH   1  10
TORSDOF 2
ENDMDL
MODEL 4
REMARK VINA RESULT:    -7.534      1.273      5.737
REMARK INTER + INTRA:          -8.686
REMARK INTER:                  -8.557
REMARK INTRA:                  -0.128
REMARK UNBOUND:                -0.270
REMARK  2 active torsions:
REMARK  status: ('A' for Active; 'I' for Inactive)
REMARK    1  A    between atoms: C5_4  and  O7_13 
REMARK    2  A    between atoms: C8_10  and  O7_13 
ROOT
HETATM    1  O7    D T 502       5.539  -0.009  -8.136  1.00 28.67    -0.304 OA
ENDROOT
BRANCH   1   2
HETATM    2  C5    D T 502       6.055   0.316  -9.343  1.00 33.71     0.125 A 
HETATM    3  C6    D T 502       5.148   0.570 -10.397  1.00 25.06     0.154 A 
HETATM    4  C1    D T 502       5.634   0.903 -11.606  1.00 17.88     0.041 A 
HETATM    5  O17   D T 502       3.845   0.467 -10.205  1.00 23.24    -0.188 OA
HETATM    6  C2    D T 502       6.992   1.011 -11.742  1.00 31.97     0.060 A 
HETATM    7  C3    D T 502       7.907   0.770 -10.710  1.00 21.44     0.014 A 
HETATM    8 CL14   D T 502       7.619   1.500 -13.308  1.00 33.89    -0.082 Cl
HETATM    9  C4    D T 502       7.401   0.418  -9.514  1.00 26.23     0.028 A 
ENDBRANCH   1   2
BRANCH   1  10
HETATM   10  C8    D T 502       5.008   0.992  -7.319  1.00 57.24     0.111 A 
HETATM   11  C9    D T 502       4.066   0.597  -6.340  1.00 45.39     0.081 A 
HETATM   12  C10   D T 502       3.500   1.510  -5.487  1.00 19.78     0.025 A 
HETATM   13 CL16   D T 502       3.590  -1.077  -6.186  1.00 34.00    -0.080 Cl
HETATM   14  C11   D T 502       3.880   2.852  -5.596  1.00 50.55     0.059 A 
HETATM   15  C12   D T 502       4.817   3.264  -6.554  1.00 64.03     0.013 A 
HETATM   16 CL15   D T 502       3.167   4.018  -4.551  1.00 39.89    -0.082 Cl
HETATM   17  C13   D T 502       5.371   2.307  -7.416  1.00 34.58     0.026 A 
ENDBRANCH   1  10
TORSDOF 2
ENDMDL
MODEL 5
REMARK VINA RESULT:    -7.412      2.491      6.150
REMARK INTER + INTRA:          -8.550
REMARK INTER:                  -8.107
REMARK INTRA:                  -0.442
REMARK UNBOUND:                -0.270
REMARK  2 active torsions:
REMARK  status: ('A' for Active; 'I' for Inactive)
REMARK    1  A    between atoms: C5_4  and  O7_13 
REMARK    2  A    between atoms: C8_10  and  O7_13 
ROOT
HETATM    1  O7    D T 502       6.348   2.958  -7.584  1.00 28.67    -0.304 OA
ENDROOT
BRANCH   1   2
HETATM    2  C5    D T 502       6.594   2.484  -8.827  1.00 33.71     0.125 A 
HETATM    3  C6    D T 502       5.743   2.909  -9.873  1.00 25.06     0.154 A 
HETATM    4  C1    D T 502       5.969   2.459 -11.119  1.00 17.88     0.041 A 
HETATM    5  O17   D T 502       4.732   3.724  -9.629  1.00 23.24    -0.188 OA
HETATM    6  C2    D T 502       7.042   1.631 -11.315  1.00 31.97     0.060 A 
HETATM    7  C3    D T 502       7.901   1.202 -10.295  1.00 21.44     0.014 A 
HETATM    8 CL14   D T 502       7.367   1.090 -12.954  1.00 33.89    -0.082 Cl
HETATM    9  C4    D T 502       7.644   1.648  -9.052  1.00 26.23     0.028 A 
ENDBRANCH   1   2
BRANCH   1  10
HETATM   10  C8    D T 502       5.651   2.165  -6.669  1.00 57.24     0.111 A 
HETATM   11  C9    D T 502       6.355   1.732  -5.520  1.00 45.39     0.081 A 
HETATM   12  C10   D T 502       5.749   0.960  -4.562  1.00 19.78     0.025 A 
HETATM   13 CL16   D T 502       8.030   2.170  -5.284  1.00 34.00    -0.080 Cl
HETATM   14  C11   D T 502       4.405   0.610  -4.738  1.00 50.55     0.059 A 
HETATM   15  C12   D T 502       3.687   1.035  -5.864  1.00 64.03     0.013 A 
HETATM   16 CL15   D T 502       3.630  -0.376  -3.559  1.00 39.89    -0.082 Cl
HETATM   17  C13   D T 502       4.338   1.816  -6.828  1.00 34.58     0.026 A 
ENDBRANCH   1  10
TORSDOF 2
ENDMDL
MODEL 6
REMARK VINA RESULT:    -7.402      9.410     11.747
REMARK INTER + INTRA:          -8.537
REMARK INTER:                  -8.001
REMARK INTRA:                  -0.536
REMARK UNBOUND:                -0.270
REMARK  2 active torsions:
REMARK  status: ('A' for Active; 'I' for Inactive)
REMARK    1  A    between atoms: C5_4  and  O7_13 
REMARK    2  A    between atoms: C8_10  and  O7_13 
ROOT
HETATM    1  O7    D T 502       6.138   5.859   3.048  1.00 28.67    -0.304 OA
ENDROOT
BRANCH   1   2
HETATM    2  C5    D T 502       6.947   4.865   3.480  1.00 33.71     0.125 A 
HETATM    3  C6    D T 502       6.392   3.896   4.346  1.00 25.06     0.154 A 
HETATM    4  C1    D T 502       7.173   2.892   4.784  1.00 17.88     0.041 A 
HETATM    5  O17   D T 502       5.132   3.981   4.733  1.00 23.24    -0.188 OA
HETATM    6  C2    D T 502       8.466   2.845   4.336  1.00 31.97     0.060 A 
HETATM    7  C3    D T 502       9.034   3.791   3.473  1.00 21.44     0.014 A 
HETATM    8 CL14   D T 502       9.464   1.502   4.867  1.00 33.89    -0.082 Cl
HETATM    9  C4    D T 502       8.241   4.798   3.064  1.00 26.23     0.028 A 
ENDBRANCH   1   2
BRANCH   1  10
HETATM   10  C8    D T 502       5.909   6.018   1.680  1.00 57.24     0.111 A 
HETATM   11  C9    D T 502       6.420   7.187   1.068  1.00 45.39     0.081 A 
HETATM   12  C10   D T 502       6.253   7.421  -0.273  1.00 19.78     0.025 A 
HETATM   13 CL16   D T 502       7.288   8.377   2.009  1.00 34.00    -0.080 Cl
HETATM   14  C11   D T 502       5.566   6.470  -1.037  1.00 50.55     0.059 A 
HETATM   15  C12   D T 502       5.058   5.302  -0.453  1.00 64.03     0.013 A 
HETATM   16 CL15   D T 502       5.325   6.753  -2.717  1.00 39.89    -0.082 Cl
HETATM   17  C13   D T 502       5.240   5.096   0.922  1.00 34.58     0.026 A 
ENDBRANCH   1  10
TORSDOF 2
ENDMDL
MODEL 7
REMARK VINA RESULT:    -7.339      2.415      2.981
REMARK INTER + INTRA:          -8.468
REMARK INTER:                  -8.168
REMARK INTRA:                  -0.300
REMARK UNBOUND:                -0.270
REMARK  2 active torsions:
REMARK  status: ('A' for Active; 'I' for Inactive)
REMARK    1  A    between atoms: C5_4  and  O7_13 
REMARK    2  A    between atoms: C8_10  and  O7_13 
ROOT
HETATM    1  O7    D T 502       5.061   3.269  -7.667  1.00 28.67    -0.304 OA
ENDROOT
BRANCH   1   2
HETATM    2  C5    D T 502       4.645   2.490  -6.643  1.00 33.71     0.125 A 
HETATM    3  C6    D T 502       4.858   2.964  -5.329  1.00 25.06     0.154 A 
HETATM    4  C1    D T 502       4.448   2.213  -4.292  1.00 17.88     0.041 A 
HETATM    5  O17   D T 502       5.465   4.119  -5.119  1.00 23.24    -0.188 OA
HETATM    6  C2    D T 502       3.810   1.033  -4.570  1.00 31.97     0.060 A 
HETATM    7  C3    D T 502       3.583   0.548  -5.864  1.00 21.44     0.014 A 
HETATM    8 CL14   D T 502       3.226   0.083  -3.214  1.00 33.89    -0.082 Cl
HETATM    9  C4    D T 502       4.020   1.306  -6.886  1.00 26.23     0.028 A 
ENDBRANCH   1   2
BRANCH   1  10
HETATM   10  C8    D T 502       5.639   2.679  -8.793  1.00 57.24     0.111 A 
HETATM   11  C9    D T 502       7.001   2.304  -8.703  1.00 45.39     0.081 A 
HETATM   12  C10   D T 502       7.648   1.708  -9.754  1.00 19.78     0.025 A 
HETATM   13 CL16   D T 502       7.907   2.593  -7.236  1.00 34.00    -0.080 Cl
HETATM   14  C11   D T 502       6.929   1.466 -10.931  1.00 50.55     0.059 A 
HETATM   15  C12   D T 502       5.577   1.821 -11.040  1.00 64.03     0.013 A 
HETATM   16 CL15   D T 502       7.726   0.738 -12.271  1.00 39.89    -0.082 Cl
HETATM   17  C13   D T 502       4.947   2.436  -9.949  1.00 34.58     0.026 A 
ENDBRANCH   1  10
TORSDOF 2
ENDMDL
MODEL 8
REMARK VINA RESULT:    -7.235      2.057      6.161
REMARK INTER + INTRA:          -8.351
REMARK INTER:                  -8.098
REMARK INTRA:                  -0.254
REMARK UNBOUND:                -0.270
REMARK  2 active torsions:
REMARK  status: ('A' for Active; 'I' for Inactive)
REMARK    1  A    between atoms: C5_4  and  O7_13 
REMARK    2  A    between atoms: C8_10  and  O7_13 
ROOT
HETATM    1  O7    D T 502       4.586   2.732  -7.685  1.00 28.67    -0.304 OA
ENDROOT
BRANCH   1   2
HETATM    2  C5    D T 502       5.369   2.233  -8.668  1.00 33.71     0.125 A 
HETATM    3  C6    D T 502       6.768   2.390  -8.536  1.00 25.06     0.154 A 
HETATM    4  C1    D T 502       7.571   1.897  -9.495  1.00 17.88     0.041 A 
HETATM    5  O17   D T 502       7.280   3.024  -7.496  1.00 23.24    -0.188 OA
HETATM    6  C2    D T 502       6.986   1.233 -10.541  1.00 31.97     0.060 A 
HETATM    7  C3    D T 502       5.603   1.061 -10.688  1.00 21.44     0.014 A 
HETATM    8 CL14   D T 502       8.041   0.543 -11.762  1.00 33.89    -0.082 Cl
HETATM    9  C4    D T 502       4.818   1.581  -9.727  1.00 26.23     0.028 A 
ENDBRANCH   1   2
BRANCH   1  10
HETATM   10  C8    D T 502       4.273   1.937  -6.580  1.00 57.24     0.111 A 
HETATM   11  C9    D T 502       4.305   2.555  -5.307  1.00 45.39     0.081 A 
HETATM   12  C10   D T 502       4.002   1.855  -4.168  1.00 19.78     0.025 A 
HETATM   13 CL16   D T 502       4.734   4.241  -5.147  1.00 34.00    -0.080 Cl
HETATM   14  C11   D T 502       3.650   0.505  -4.286  1.00 50.55     0.059 A 
HETATM   15  C12   D T 502       3.604  -0.125  -5.537  1.00 64.03     0.013 A 
HETATM   16 CL15   D T 502       3.286  -0.398  -2.867  1.00 39.89    -0.082 Cl
HETATM   17  C13   D T 502       3.927   0.617  -6.682  1.00 34.58     0.026 A 
ENDBRANCH   1  10
TORSDOF 2
ENDMDL
MODEL 9
REMARK VINA RESULT:    -7.018      2.130      2.617
REMARK INTER + INTRA:          -8.109
REMARK INTER:                  -7.575
REMARK INTRA:                  -0.534
REMARK UNBOUND:                -0.270
REMARK  2 active torsions:
REMARK  status: ('A' for Active; 'I' for Inactive)
REMARK    1  A    between atoms: C5_4  and  O7_13 
REMARK    2  A    between atoms: C8_10  and  O7_13 
ROOT
HETATM    1  O7    D T 502       6.142   0.956  -5.482  1.00 28.67    -0.304 OA
ENDROOT
BRANCH   1   2
HETATM    2  C5    D T 502       5.307   1.903  -5.000  1.00 33.71     0.125 A 
HETATM    3  C6    D T 502       5.780   2.725  -3.952  1.00 25.06     0.154 A 
HETATM    4  C1    D T 502       4.972   3.680  -3.459  1.00 17.88     0.041 A 
HETATM    5  O17   D T 502       6.990   2.549  -3.452  1.00 23.24    -0.188 OA
HETATM    6  C2    D T 502       3.735   3.828  -4.027  1.00 31.97     0.060 A 
HETATM    7  C3    D T 502       3.248   3.029  -5.070  1.00 21.44     0.014 A 
HETATM    8 CL14   D T 502       2.705   5.113  -3.418  1.00 33.89    -0.082 Cl
HETATM    9  C4    D T 502       4.066   2.066  -5.534  1.00 26.23     0.028 A 
ENDBRANCH   1   2
BRANCH   1  10
HETATM   10  C8    D T 502       6.529   0.994  -6.824  1.00 57.24     0.111 A 
HETATM   11  C9    D T 502       6.020  -0.015  -7.675  1.00 45.39     0.081 A 
HETATM   12  C10   D T 502       6.338  -0.050  -9.008  1.00 19.78     0.025 A 
HETATM   13 CL16   D T 502       4.963  -1.258  -7.049  1.00 34.00    -0.080 Cl
HETATM   14  C11   D T 502       7.177   0.946  -9.522  1.00 50.55     0.059 A 
HETATM   15  C12   D T 502       7.687   1.959  -8.699  1.00 64.03     0.013 A 
HETATM   16 CL15   D T 502       7.607   0.910 -11.188  1.00 39.89    -0.082 Cl
HETATM   17  C13   D T 502       7.349   1.962  -7.338  1.00 34.58     0.026 A 
ENDBRANCH   1  10
TORSDOF 2
ENDMDL
