MODEL 1
REMARK VINA RESULT:    -7.378      0.000      0.000
REMARK INTER + INTRA:          -8.761
REMARK INTER:                  -8.241
REMARK INTRA:                  -0.520
REMARK UNBOUND:                -0.520
REMARK  2 active torsions:
REMARK  status: ('A' for Active; 'I' for Inactive)
REMARK    1  A    between atoms: C5_4  and  O7_13 
REMARK    2  A    between atoms: C8_10  and  O7_13 
ROOT
HETATM    1  O7    D T 502       5.810   1.498  -7.789  0.75  8.16    -0.304 OA
ENDROOT
BRANCH   1   2
HETATM    2  C5    D T 502       5.833   1.632  -9.229  0.75 10.64     0.125 A 
HETATM    3  C6    D T 502       6.721   2.576  -9.779  0.75 18.74     0.154 A 
HETATM    4  C1    D T 502       6.764   2.731 -11.156  0.75 21.18     0.041 A 
HETATM    5  O17   D T 502       7.516   3.313  -8.979  0.75  5.03    -0.188 OA
HETATM    6  C2    D T 502       5.949   1.956 -11.926  0.75  4.79     0.060 A 
HETATM    7  C3    D T 502       5.065   1.034 -11.406  0.75 38.32     0.014 A 
HETATM    8 CL14   D T 502       6.008   2.133 -13.642  0.75 13.77    -0.082 Cl
HETATM    9  C4    D T 502       5.038   0.893 -10.007  0.75 41.22     0.028 A 
ENDBRANCH   1   2
BRANCH   1  10
HETATM   10  C8    D T 502       4.759   2.038  -7.026  0.75 12.01     0.111 A 
HETATM   11  C9    D T 502       3.835   1.151  -6.521  0.75  7.59     0.081 A 
HETATM   12  C10   D T 502       2.757   1.577  -5.756  0.75  9.21     0.025 A 
HETATM   13 CL16   D T 502       4.008  -0.553  -6.840  0.75 22.03    -0.080 Cl
HETATM   14  C11   D T 502       2.621   2.947  -5.502  0.75 25.58     0.059 A 
HETATM   15  C12   D T 502       3.548   3.859  -6.006  0.75 18.79     0.013 A 
HETATM   16 CL15   D T 502       1.290   3.515  -4.555  0.75 35.46    -0.082 Cl
HETATM   17  C13   D T 502       4.621   3.380  -6.774  0.75  7.86     0.026 A 
ENDBRANCH   1  10
TORSDOF 2
ENDMDL
MODEL 2
REMARK VINA RESULT:    -7.320      1.562      6.160
REMARK INTER + INTRA:          -8.696
REMARK INTER:                  -8.164
REMARK INTRA:                  -0.532
REMARK UNBOUND:                -0.520
REMARK  2 active torsions:
REMARK  status: ('A' for Active; 'I' for Inactive)
REMARK    1  A    between atoms: C5_4  and  O7_13 
REMARK    2  A    between atoms: C8_10  and  O7_13 
ROOT
HETATM    1  O7    D T 502       5.620   1.502  -7.540  0.75  8.16    -0.304 OA
ENDROOT
BRANCH   1   2
HETATM    2  C5    D T 502       4.524   2.068  -6.784  0.75 10.64     0.125 A 
HETATM    3  C6    D T 502       3.602   1.172  -6.210  0.75 18.74     0.154 A 
HETATM    4  C1    D T 502       2.538   1.683  -5.483  0.75 21.18     0.041 A 
HETATM    5  O17   D T 502       3.753  -0.157  -6.364  0.75  5.03    -0.188 OA
HETATM    6  C2    D T 502       2.430   3.035  -5.345  0.75  4.79     0.060 A 
HETATM    7  C3    D T 502       3.317   3.927  -5.907  0.75 38.32     0.014 A 
HETATM    8 CL14   D T 502       1.117   3.677  -4.428  0.75 13.77    -0.082 Cl
HETATM    9  C4    D T 502       4.389   3.388  -6.641  0.75 41.22     0.028 A 
ENDBRANCH   1   2
BRANCH   1  10
HETATM   10  C8    D T 502       5.665   1.605  -8.942  0.75 12.01     0.111 A 
HETATM   11  C9    D T 502       6.605   2.460  -9.475  0.75  7.59     0.081 A 
HETATM   12  C10   D T 502       6.734   2.638 -10.846  0.75  9.21     0.025 A 
HETATM   13 CL16   D T 502       7.666   3.347  -8.416  0.75 22.03    -0.080 Cl
HETATM   14  C11   D T 502       5.878   1.924 -11.694  0.75 25.58     0.059 A 
HETATM   15  C12   D T 502       4.921   1.055 -11.170  0.75 18.79     0.013 A 
HETATM   16 CL15   D T 502       6.008   2.122 -13.407  0.75 35.46    -0.082 Cl
HETATM   17  C13   D T 502       4.830   0.907  -9.778  0.75  7.86     0.026 A 
ENDBRANCH   1  10
TORSDOF 2
ENDMDL
MODEL 3
REMARK VINA RESULT:    -7.311      1.414      6.043
REMARK INTER + INTRA:          -8.686
REMARK INTER:                  -8.353
REMARK INTRA:                  -0.333
REMARK UNBOUND:                -0.520
REMARK  2 active torsions:
REMARK  status: ('A' for Active; 'I' for Inactive)
REMARK    1  A    between atoms: C5_4  and  O7_13 
REMARK    2  A    between atoms: C8_10  and  O7_13 
ROOT
HETATM    1  O7    D T 502       4.758   0.837  -7.765  0.75  8.16    -0.304 OA
ENDROOT
BRANCH   1   2
HETATM    2  C5    D T 502       3.893   1.674  -6.962  0.75 10.64     0.125 A 
HETATM    3  C6    D T 502       3.025   1.031  -6.058  0.75 18.74     0.154 A 
HETATM    4  C1    D T 502       2.181   1.804  -5.278  0.75 21.18     0.041 A 
HETATM    5  O17   D T 502       3.020  -0.312  -5.955  0.75  5.03    -0.188 OA
HETATM    6  C2    D T 502       2.229   3.160  -5.410  0.75  4.79     0.060 A 
HETATM    7  C3    D T 502       3.064   3.807  -6.296  0.75 38.32     0.014 A 
HETATM    8 CL14   D T 502       1.190   4.130  -4.430  0.75 13.77    -0.082 Cl
HETATM    9  C4    D T 502       3.912   3.003  -7.078  0.75 41.22     0.028 A 
ENDBRANCH   1   2
BRANCH   1  10
HETATM   10  C8    D T 502       5.043   1.160  -9.104  0.75 12.01     0.111 A 
HETATM   11  C9    D T 502       4.067   0.876 -10.034  0.75  7.59     0.081 A 
HETATM   12  C10   D T 502       4.244   1.153 -11.384  0.75  9.21     0.025 A 
HETATM   13 CL16   D T 502       2.568   0.152  -9.522  0.75 22.03    -0.080 Cl
HETATM   14  C11   D T 502       5.451   1.733 -11.792  0.75 25.58     0.059 A 
HETATM   15  C12   D T 502       6.449   2.026 -10.862  0.75 18.79     0.013 A 
HETATM   16 CL15   D T 502       5.708   2.090 -13.465  0.75 35.46    -0.082 Cl
HETATM   17  C13   D T 502       6.223   1.730  -9.509  0.75  7.86     0.026 A 
ENDBRANCH   1  10
TORSDOF 2
ENDMDL
MODEL 4
REMARK VINA RESULT:    -7.252      1.503      2.158
REMARK INTER + INTRA:          -8.620
REMARK INTER:                  -8.365
REMARK INTRA:                  -0.255
REMARK UNBOUND:                -0.520
REMARK  2 active torsions:
REMARK  status: ('A' for Active; 'I' for Inactive)
REMARK    1  A    between atoms: C5_4  and  O7_13 
REMARK    2  A    between atoms: C8_10  and  O7_13 
ROOT
HETATM    1  O7    D T 502       4.119   0.784  -7.950  0.75  8.16    -0.304 OA
ENDROOT
BRANCH   1   2
HETATM    2  C5    D T 502       4.530   1.097  -9.302  0.75 10.64     0.125 A 
HETATM    3  C6    D T 502       3.556   1.003 -10.314  0.75 18.74     0.154 A 
HETATM    4  C1    D T 502       3.918   1.292 -11.620  0.75 21.18     0.041 A 
HETATM    5  O17   D T 502       2.293   0.639 -10.016  0.75  5.03    -0.188 OA
HETATM    6  C2    D T 502       5.205   1.665 -11.873  0.75  4.79     0.060 A 
HETATM    7  C3    D T 502       6.175   1.753 -10.897  0.75 38.32     0.014 A 
HETATM    8 CL14   D T 502       5.660   2.042 -13.495  0.75 13.77    -0.082 Cl
HETATM    9  C4    D T 502       5.785   1.456  -9.580  0.75 41.22     0.028 A 
ENDBRANCH   1   2
BRANCH   1  10
HETATM   10  C8    D T 502       3.503   1.752  -7.136  0.75 12.01     0.111 A 
HETATM   11  C9    D T 502       2.942   1.310  -5.958  0.75  7.59     0.081 A 
HETATM   12  C10   D T 502       2.309   2.181  -5.081  0.75  9.21     0.025 A 
HETATM   13 CL16   D T 502       3.022  -0.380  -5.543  0.75 22.03    -0.080 Cl
HETATM   14  C11   D T 502       2.246   3.537  -5.419  0.75 25.58     0.059 A 
HETATM   15  C12   D T 502       2.809   4.001  -6.609  0.75 18.79     0.013 A 
HETATM   16 CL15   D T 502       1.462   4.651  -4.353  0.75 35.46    -0.082 Cl
HETATM   17  C13   D T 502       3.440   3.083  -7.462  0.75  7.86     0.026 A 
ENDBRANCH   1  10
TORSDOF 2
ENDMDL
MODEL 5
REMARK VINA RESULT:    -7.131      2.387      6.134
REMARK INTER + INTRA:          -8.485
REMARK INTER:                  -8.108
REMARK INTRA:                  -0.377
REMARK UNBOUND:                -0.520
REMARK  2 active torsions:
REMARK  status: ('A' for Active; 'I' for Inactive)
REMARK    1  A    between atoms: C5_4  and  O7_13 
REMARK    2  A    between atoms: C8_10  and  O7_13 
ROOT
HETATM    1  O7    D T 502       3.187   3.457  -8.031  0.75  8.16    -0.304 OA
ENDROOT
BRANCH   1   2
HETATM    2  C5    D T 502       3.059   2.589  -6.880  0.75 10.64     0.125 A 
HETATM    3  C6    D T 502       3.291   3.154  -5.612  0.75 18.74     0.154 A 
HETATM    4  C1    D T 502       3.181   2.349  -4.490  0.75 21.18     0.041 A 
HETATM    5  O17   D T 502       3.614   4.457  -5.494  0.75  5.03    -0.188 OA
HETATM    6  C2    D T 502       2.843   1.039  -4.658  0.75  4.79     0.060 A 
HETATM    7  C3    D T 502       2.621   0.465  -5.891  0.75 38.32     0.014 A 
HETATM    8 CL14   D T 502       2.687   0.033  -3.263  0.75 13.77    -0.082 Cl
HETATM    9  C4    D T 502       2.739   1.300  -7.016  0.75 41.22     0.028 A 
ENDBRANCH   1   2
BRANCH   1  10
HETATM   10  C8    D T 502       3.807   3.010  -9.212  0.75 12.01     0.111 A 
HETATM   11  C9    D T 502       5.182   3.071  -9.257  0.75  7.59     0.081 A 
HETATM   12  C10   D T 502       5.894   2.657 -10.375  0.75  9.21     0.025 A 
HETATM   13 CL16   D T 502       6.065   3.681  -7.885  0.75 22.03    -0.080 Cl
HETATM   14  C11   D T 502       5.181   2.168 -11.475  0.75 25.58     0.059 A 
HETATM   15  C12   D T 502       3.787   2.100 -11.446  0.75 18.79     0.013 A 
HETATM   16 CL15   D T 502       6.033   1.645 -12.887  0.75 35.46    -0.082 Cl
HETATM   17  C13   D T 502       3.112   2.529 -10.294  0.75  7.86     0.026 A 
ENDBRANCH   1  10
TORSDOF 2
ENDMDL
MODEL 6
REMARK VINA RESULT:    -7.092      1.879      2.694
REMARK INTER + INTRA:          -8.441
REMARK INTER:                  -8.160
REMARK INTRA:                  -0.281
REMARK UNBOUND:                -0.520
REMARK  2 active torsions:
REMARK  status: ('A' for Active; 'I' for Inactive)
REMARK    1  A    between atoms: C5_4  and  O7_13 
REMARK    2  A    between atoms: C8_10  and  O7_13 
ROOT
HETATM    1  O7    D T 502       3.053   3.024  -7.786  0.75  8.16    -0.304 OA
ENDROOT
BRANCH   1   2
HETATM    2  C5    D T 502       3.755   2.612  -8.983  0.75 10.64     0.125 A 
HETATM    3  C6    D T 502       5.110   2.974  -9.098  0.75 18.74     0.154 A 
HETATM    4  C1    D T 502       5.809   2.599 -10.234  0.75 21.18     0.041 A 
HETATM    5  O17   D T 502       5.716   3.672  -8.117  0.75  5.03    -0.188 OA
HETATM    6  C2    D T 502       5.158   1.885 -11.195  0.75  4.79     0.060 A 
HETATM    7  C3    D T 502       3.829   1.529 -11.106  0.75 38.32     0.014 A 
HETATM    8 CL14   D T 502       6.026   1.400 -12.605  0.75 13.77    -0.082 Cl
HETATM    9  C4    D T 502       3.139   1.920  -9.945  0.75 41.22     0.028 A 
ENDBRANCH   1   2
BRANCH   1  10
HETATM   10  C8    D T 502       2.974   2.179  -6.664  0.75 12.01     0.111 A 
HETATM   11  C9    D T 502       2.447   2.720  -5.513  0.75  7.59     0.081 A 
HETATM   12  C10   D T 502       2.324   1.975  -4.347  0.75  9.21     0.025 A 
HETATM   13 CL16   D T 502       1.916   4.379  -5.501  0.75 22.03    -0.080 Cl
HETATM   14  C11   D T 502       2.752   0.642  -4.361  0.75 25.58     0.059 A 
HETATM   15  C12   D T 502       3.288   0.079  -5.519  0.75 18.79     0.013 A 
HETATM   16 CL15   D T 502       2.617  -0.317  -2.927  0.75 35.46    -0.082 Cl
HETATM   17  C13   D T 502       3.391   0.872  -6.673  0.75  7.86     0.026 A 
ENDBRANCH   1  10
TORSDOF 2
ENDMDL
MODEL 7
REMARK VINA RESULT:    -6.895      2.839      3.617
REMARK INTER + INTRA:          -8.222
REMARK INTER:                  -7.771
REMARK INTRA:                  -0.451
REMARK UNBOUND:                -0.520
REMARK  2 active torsions:
REMARK  status: ('A' for Active; 'I' for Inactive)
REMARK    1  A    between atoms: C5_4  and  O7_13 
REMARK    2  A    between atoms: C8_10  and  O7_13 
ROOT
HETATM    1  O7    D T 502       5.271   2.300  -8.125  0.75  8.16    -0.304 OA
ENDROOT
BRANCH   1   2
HETATM    2  C5    D T 502       5.313   2.145  -9.563  0.75 10.64     0.125 A 
HETATM    3  C6    D T 502       4.509   3.009 -10.332  0.75 18.74     0.154 A 
HETATM    4  C1    D T 502       4.523   2.884 -11.712  0.75 21.18     0.041 A 
HETATM    5  O17   D T 502       3.742   3.941  -9.734  0.75  5.03    -0.188 OA
HETATM    6  C2    D T 502       5.322   1.933 -12.273  0.75  4.79     0.060 A 
HETATM    7  C3    D T 502       6.108   1.072 -11.537  0.75 38.32     0.014 A 
HETATM    8 CL14   D T 502       5.357   1.782 -13.992  0.75 13.77    -0.082 Cl
HETATM    9  C4    D T 502       6.078   1.216 -10.139  0.75 41.22     0.028 A 
ENDBRANCH   1   2
BRANCH   1  10
HETATM   10  C8    D T 502       6.454   2.414  -7.372  0.75 12.01     0.111 A 
HETATM   11  C9    D T 502       6.643   1.493  -6.366  0.75  7.59     0.081 A 
HETATM   12  C10   D T 502       7.775   1.515  -5.561  0.75  9.21     0.025 A 
HETATM   13 CL16   D T 502       5.442   0.264  -6.081  0.75 22.03    -0.080 Cl
HETATM   14  C11   D T 502       8.737   2.505  -5.792  0.75 25.58     0.059 A 
HETATM   15  C12   D T 502       8.560   3.445  -6.808  0.75 18.79     0.013 A 
HETATM   16 CL15   D T 502      10.159   2.565  -4.809  0.75 35.46    -0.082 Cl
HETATM   17  C13   D T 502       7.400   3.381  -7.596  0.75  7.86     0.026 A 
ENDBRANCH   1  10
TORSDOF 2
ENDMDL
MODEL 8
REMARK VINA RESULT:    -6.676      2.781      3.306
REMARK INTER + INTRA:          -7.976
REMARK INTER:                  -7.495
REMARK INTRA:                  -0.481
REMARK UNBOUND:                -0.520
REMARK  2 active torsions:
REMARK  status: ('A' for Active; 'I' for Inactive)
REMARK    1  A    between atoms: C5_4  and  O7_13 
REMARK    2  A    between atoms: C8_10  and  O7_13 
ROOT
HETATM    1  O7    D T 502       4.114   1.909  -7.390  0.75  8.16    -0.304 OA
ENDROOT
BRANCH   1   2
HETATM    2  C5    D T 502       5.553   1.955  -7.250  0.75 10.64     0.125 A 
HETATM    3  C6    D T 502       6.278   2.668  -8.224  0.75 18.74     0.154 A 
HETATM    4  C1    D T 502       7.659   2.727  -8.121  0.75 21.18     0.041 A 
HETATM    5  O17   D T 502       5.637   3.283  -9.238  0.75  5.03    -0.188 OA
HETATM    6  C2    D T 502       8.262   2.097  -7.073  0.75  4.79     0.060 A 
HETATM    7  C3    D T 502       7.571   1.386  -6.115  0.75 38.32     0.014 A 
HETATM    8 CL14   D T 502       9.980   2.180  -6.929  0.75 13.77    -0.082 Cl
HETATM    9  C4    D T 502       6.171   1.339  -6.240  0.75 41.22     0.028 A 
ENDBRANCH   1   2
BRANCH   1  10
HETATM   10  C8    D T 502       3.274   2.577  -6.481  0.75 12.01     0.111 A 
HETATM   11  C9    D T 502       2.658   1.807  -5.520  0.75  7.59     0.081 A 
HETATM   12  C10   D T 502       1.808   2.364  -4.574  0.75  9.21     0.025 A 
HETATM   13 CL16   D T 502       2.940   0.088  -5.477  0.75 22.03    -0.080 Cl
HETATM   14  C11   D T 502       1.582   3.745  -4.612  0.75 25.58     0.059 A 
HETATM   15  C12   D T 502       2.199   4.539  -5.579  0.75 18.79     0.013 A 
HETATM   16 CL15   D T 502       0.528   4.474  -3.451  0.75 35.46    -0.082 Cl
HETATM   17  C13   D T 502       3.051   3.931  -6.513  0.75  7.86     0.026 A 
ENDBRANCH   1  10
TORSDOF 2
ENDMDL
MODEL 9
REMARK VINA RESULT:    -6.512      3.119      6.544
REMARK INTER + INTRA:          -7.793
REMARK INTER:                  -7.415
REMARK INTRA:                  -0.378
REMARK UNBOUND:                -0.520
REMARK  2 active torsions:
REMARK  status: ('A' for Active; 'I' for Inactive)
REMARK    1  A    between atoms: C5_4  and  O7_13 
REMARK    2  A    between atoms: C8_10  and  O7_13 
ROOT
HETATM    1  O7    D T 502       4.472   2.990  -5.434  0.75  8.16    -0.304 OA
ENDROOT
BRANCH   1   2
HETATM    2  C5    D T 502       3.723   3.993  -4.710  0.75 10.64     0.125 A 
HETATM    3  C6    D T 502       4.171   4.332  -3.419  0.75 18.74     0.154 A 
HETATM    4  C1    D T 502       3.473   5.286  -2.696  0.75 21.18     0.041 A 
HETATM    5  O17   D T 502       5.262   3.737  -2.897  0.75  5.03    -0.188 OA
HETATM    6  C2    D T 502       2.381   5.868  -3.269  0.75  4.79     0.060 A 
HETATM    7  C3    D T 502       1.921   5.543  -4.527  0.75 38.32     0.014 A 
HETATM    8 CL14   D T 502       1.515   7.069  -2.382  0.75 13.77    -0.082 Cl
HETATM    9  C4    D T 502       2.644   4.572  -5.242  0.75 41.22     0.028 A 
ENDBRANCH   1   2
BRANCH   1  10
HETATM   10  C8    D T 502       3.851   2.175  -6.398  0.75 12.01     0.111 A 
HETATM   11  C9    D T 502       4.173   2.412  -7.716  0.75  7.59     0.081 A 
HETATM   12  C10   D T 502       3.616   1.666  -8.747  0.75  9.21     0.025 A 
HETATM   13 CL16   D T 502       5.303   3.675  -8.117  0.75 22.03    -0.080 Cl
HETATM   14  C11   D T 502       2.707   0.653  -8.421  0.75 25.58     0.059 A 
HETATM   15  C12   D T 502       2.372   0.400  -7.090  0.75 18.79     0.013 A 
HETATM   16 CL15   D T 502       1.992  -0.295  -9.679  0.75 35.46    -0.082 Cl
HETATM   17  C13   D T 502       2.960   1.179  -6.083  0.75  7.86     0.026 A 
ENDBRANCH   1  10
TORSDOF 2
ENDMDL
