MODEL 1
REMARK VINA RESULT:    -7.621      0.000      0.000
REMARK INTER + INTRA:          -9.047
REMARK INTER:                  -8.512
REMARK INTRA:                  -0.535
REMARK UNBOUND:                -0.535
REMARK  2 active torsions:
REMARK  status: ('A' for Active; 'I' for Inactive)
REMARK    1  A    between atoms: C5_4  and  O7_13 
REMARK    2  A    between atoms: C8_10  and  O7_13 
ROOT
HETATM    1  O7    D T 502       6.843   1.163  -6.875  0.75  8.16    -0.304 OA
ENDROOT
BRANCH   1   2
HETATM    2  C5    D T 502       7.075   1.379  -8.287  0.75 10.64     0.125 A 
HETATM    3  C6    D T 502       8.287   1.990  -8.660  0.75 18.74     0.154 A 
HETATM    4  C1    D T 502       8.537   2.214 -10.004  0.75 21.18     0.041 A 
HETATM    5  O17   D T 502       9.187   2.348  -7.723  0.75  5.03    -0.188 OA
HETATM    6  C2    D T 502       7.601   1.827 -10.916  0.75  4.79     0.060 A 
HETATM    7  C3    D T 502       6.405   1.237 -10.570  0.75 38.32     0.014 A 
HETATM    8 CL14   D T 502       7.913   2.089 -12.593  0.75 13.77    -0.082 Cl
HETATM    9  C4    D T 502       6.171   1.019  -9.200  0.75 41.22     0.028 A 
ENDBRANCH   1   2
BRANCH   1  10
HETATM   10  C8    D T 502       5.892   1.925  -6.170  0.75 12.01     0.111 A 
HETATM   11  C9    D T 502       4.762   1.265  -5.742  0.75  7.59     0.081 A 
HETATM   12  C10   D T 502       3.759   1.922  -5.040  0.75  9.21     0.025 A 
HETATM   13 CL16   D T 502       4.567  -0.431  -6.082  0.75 22.03    -0.080 Cl
HETATM   14  C11   D T 502       3.918   3.286  -4.768  0.75 25.58     0.059 A 
HETATM   15  C12   D T 502       5.058   3.966  -5.196  0.75 18.79     0.013 A 
HETATM   16 CL15   D T 502       2.689   4.136  -3.897  0.75 35.46    -0.082 Cl
HETATM   17  C13   D T 502       6.045   3.261  -5.902  0.75  7.86     0.026 A 
ENDBRANCH   1  10
TORSDOF 2
ENDMDL
MODEL 2
REMARK VINA RESULT:    -7.615      1.521      6.151
REMARK INTER + INTRA:          -9.040
REMARK INTER:                  -8.512
REMARK INTRA:                  -0.528
REMARK UNBOUND:                -0.535
REMARK  2 active torsions:
REMARK  status: ('A' for Active; 'I' for Inactive)
REMARK    1  A    between atoms: C5_4  and  O7_13 
REMARK    2  A    between atoms: C8_10  and  O7_13 
ROOT
HETATM    1  O7    D T 502       6.783   1.230  -6.736  0.75  8.16    -0.304 OA
ENDROOT
BRANCH   1   2
HETATM    2  C5    D T 502       5.783   2.008  -6.036  0.75 10.64     0.125 A 
HETATM    3  C6    D T 502       4.698   1.310  -5.471  0.75 18.74     0.154 A 
HETATM    4  C1    D T 502       3.722   2.026  -4.798  0.75 21.18     0.041 A 
HETATM    5  O17   D T 502       4.616  -0.030  -5.583  0.75  5.03    -0.188 OA
HETATM    6  C2    D T 502       3.852   3.379  -4.703  0.75  4.79     0.060 A 
HETATM    7  C3    D T 502       4.901   4.080  -5.258  0.75 38.32     0.014 A 
HETATM    8 CL14   D T 502       2.648   4.276  -3.853  0.75 13.77    -0.082 Cl
HETATM    9  C4    D T 502       5.881   3.334  -5.937  0.75 41.22     0.028 A 
ENDBRANCH   1   2
BRANCH   1  10
HETATM   10  C8    D T 502       6.986   1.384  -8.120  0.75 12.01     0.111 A 
HETATM   11  C9    D T 502       8.182   1.938  -8.516  0.75  7.59     0.081 A 
HETATM   12  C10   D T 502       8.483   2.137  -9.858  0.75  9.21     0.025 A 
HETATM   13 CL16   D T 502       9.356   2.411  -7.320  0.75 22.03    -0.080 Cl
HETATM   14  C11   D T 502       7.537   1.757 -10.817  0.75 25.58     0.059 A 
HETATM   15  C12   D T 502       6.321   1.194 -10.430  0.75 18.79     0.013 A 
HETATM   16 CL15   D T 502       7.877   1.991 -12.497  0.75 35.46    -0.082 Cl
HETATM   17  C13   D T 502       6.061   1.012  -9.063  0.75  7.86     0.026 A 
ENDBRANCH   1  10
TORSDOF 2
ENDMDL
MODEL 3
REMARK VINA RESULT:    -7.538      1.499      6.062
REMARK INTER + INTRA:          -8.955
REMARK INTER:                  -8.638
REMARK INTRA:                  -0.317
REMARK UNBOUND:                -0.535
REMARK  2 active torsions:
REMARK  status: ('A' for Active; 'I' for Inactive)
REMARK    1  A    between atoms: C5_4  and  O7_13 
REMARK    2  A    between atoms: C8_10  and  O7_13 
ROOT
HETATM    1  O7    D T 502       5.725   0.580  -7.464  0.75  8.16    -0.304 OA
ENDROOT
BRANCH   1   2
HETATM    2  C5    D T 502       5.057   1.532  -6.604  0.75 10.64     0.125 A 
HETATM    3  C6    D T 502       4.055   1.040  -5.746  0.75 18.74     0.154 A 
HETATM    4  C1    D T 502       3.393   1.927  -4.913  0.75 21.18     0.041 A 
HETATM    5  O17   D T 502       3.748  -0.272  -5.737  0.75  5.03    -0.188 OA
HETATM    6  C2    D T 502       3.744   3.244  -4.950  0.75  4.79     0.060 A 
HETATM    7  C3    D T 502       4.714   3.746  -5.790  0.75 38.32     0.014 A 
HETATM    8 CL14   D T 502       2.934   4.352  -3.904  0.75 13.77    -0.082 Cl
HETATM    9  C4    D T 502       5.374   2.828  -6.627  0.75 41.22     0.028 A 
ENDBRANCH   1   2
BRANCH   1  10
HETATM   10  C8    D T 502       6.263   0.973  -8.704  0.75 12.01     0.111 A 
HETATM   11  C9    D T 502       5.383   1.079  -9.758  0.75  7.59     0.081 A 
HETATM   12  C10   D T 502       5.808   1.457 -11.025  0.75  9.21     0.025 A 
HETATM   13 CL16   D T 502       3.695   0.732  -9.515  0.75 22.03    -0.080 Cl
HETATM   14  C11   D T 502       7.167   1.735 -11.217  0.75 25.58     0.059 A 
HETATM   15  C12   D T 502       8.069   1.632 -10.159  0.75 18.79     0.013 A 
HETATM   16 CL15   D T 502       7.732   2.207 -12.782  0.75 35.46    -0.082 Cl
HETATM   17  C13   D T 502       7.593   1.247  -8.896  0.75  7.86     0.026 A 
ENDBRANCH   1  10
TORSDOF 2
ENDMDL
MODEL 4
REMARK VINA RESULT:    -7.317      2.218      6.102
REMARK INTER + INTRA:          -8.708
REMARK INTER:                  -8.192
REMARK INTRA:                  -0.516
REMARK UNBOUND:                -0.535
REMARK  2 active torsions:
REMARK  status: ('A' for Active; 'I' for Inactive)
REMARK    1  A    between atoms: C5_4  and  O7_13 
REMARK    2  A    between atoms: C8_10  and  O7_13 
ROOT
HETATM    1  O7    D T 502       6.704   3.489  -6.767  0.75  8.16    -0.304 OA
ENDROOT
BRANCH   1   2
HETATM    2  C5    D T 502       5.900   2.684  -5.873  0.75 10.64     0.125 A 
HETATM    3  C6    D T 502       4.717   3.258  -5.370  0.75 18.74     0.154 A 
HETATM    4  C1    D T 502       3.927   2.515  -4.508  0.75 21.18     0.041 A 
HETATM    5  O17   D T 502       4.361   4.509  -5.724  0.75  5.03    -0.188 OA
HETATM    6  C2    D T 502       4.323   1.251  -4.185  0.75  4.79     0.060 A 
HETATM    7  C3    D T 502       5.482   0.676  -4.659  0.75 38.32     0.014 A 
HETATM    8 CL14   D T 502       3.337   0.314  -3.124  0.75 13.77    -0.082 Cl
HETATM    9  C4    D T 502       6.269   1.448  -5.532  0.75 41.22     0.028 A 
ENDBRANCH   1   2
BRANCH   1  10
HETATM   10  C8    D T 502       6.844   3.146  -8.125  0.75 12.01     0.111 A 
HETATM   11  C9    D T 502       8.051   2.605  -8.509  0.75  7.59     0.081 A 
HETATM   12  C10   D T 502       8.297   2.234  -9.825  0.75  9.21     0.025 A 
HETATM   13 CL16   D T 502       9.312   2.378  -7.330  0.75 22.03    -0.080 Cl
HETATM   14  C11   D T 502       7.281   2.419 -10.770  0.75 25.58     0.059 A 
HETATM   15  C12   D T 502       6.053   2.964 -10.396  0.75 18.79     0.013 A 
HETATM   16 CL15   D T 502       7.552   1.969 -12.418  0.75 35.46    -0.082 Cl
HETATM   17  C13   D T 502       5.851   3.324  -9.054  0.75  7.86     0.026 A 
ENDBRANCH   1  10
TORSDOF 2
ENDMDL
MODEL 5
REMARK VINA RESULT:    -7.220      1.965      2.166
REMARK INTER + INTRA:          -8.600
REMARK INTER:                  -8.097
REMARK INTRA:                  -0.503
REMARK UNBOUND:                -0.535
REMARK  2 active torsions:
REMARK  status: ('A' for Active; 'I' for Inactive)
REMARK    1  A    between atoms: C5_4  and  O7_13 
REMARK    2  A    between atoms: C8_10  and  O7_13 
ROOT
HETATM    1  O7    D T 502       4.277   1.995  -7.411  0.75  8.16    -0.304 OA
ENDROOT
BRANCH   1   2
HETATM    2  C5    D T 502       5.288   1.803  -8.429  0.75 10.64     0.125 A 
HETATM    3  C6    D T 502       5.467   2.836  -9.369  0.75 18.74     0.154 A 
HETATM    4  C1    D T 502       6.424   2.681 -10.359  0.75 21.18     0.041 A 
HETATM    5  O17   D T 502       4.720   3.955  -9.303  0.75  5.03    -0.188 OA
HETATM    6  C2    D T 502       7.161   1.535 -10.380  0.75  4.79     0.060 A 
HETATM    7  C3    D T 502       6.994   0.509  -9.476  0.75 38.32     0.014 A 
HETATM    8 CL14   D T 502       8.365   1.341 -11.601  0.75 13.77    -0.082 Cl
HETATM    9  C4    D T 502       6.017   0.687  -8.479  0.75 41.22     0.028 A 
ENDBRANCH   1   2
BRANCH   1  10
HETATM   10  C8    D T 502       4.625   2.406  -6.111  0.75 12.01     0.111 A 
HETATM   11  C9    D T 502       4.575   1.448  -5.122  0.75  7.59     0.081 A 
HETATM   12  C10   D T 502       4.896   1.747  -3.804  0.75  9.21     0.025 A 
HETATM   13 CL16   D T 502       4.098  -0.179  -5.516  0.75 22.03    -0.080 Cl
HETATM   14  C11   D T 502       5.278   3.056  -3.491  0.75 25.58     0.059 A 
HETATM   15  C12   D T 502       5.334   4.036  -4.482  0.75 18.79     0.013 A 
HETATM   16 CL15   D T 502       5.683   3.464  -1.860  0.75 35.46    -0.082 Cl
HETATM   17  C13   D T 502       5.001   3.688  -5.801  0.75  7.86     0.026 A 
ENDBRANCH   1  10
TORSDOF 2
ENDMDL
MODEL 6
REMARK VINA RESULT:    -6.929      2.066      5.918
REMARK INTER + INTRA:          -8.275
REMARK INTER:                  -7.916
REMARK INTRA:                  -0.358
REMARK UNBOUND:                -0.535
REMARK  2 active torsions:
REMARK  status: ('A' for Active; 'I' for Inactive)
REMARK    1  A    between atoms: C5_4  and  O7_13 
REMARK    2  A    between atoms: C8_10  and  O7_13 
ROOT
HETATM    1  O7    D T 502       6.681   3.511  -6.919  0.75  8.16    -0.304 OA
ENDROOT
BRANCH   1   2
HETATM    2  C5    D T 502       5.898   2.677  -6.033  0.75 10.64     0.125 A 
HETATM    3  C6    D T 502       6.592   1.935  -5.058  0.75 18.74     0.154 A 
HETATM    4  C1    D T 502       5.871   1.124  -4.197  0.75 21.18     0.041 A 
HETATM    5  O17   D T 502       7.934   2.015  -4.967  0.75  5.03    -0.188 OA
HETATM    6  C2    D T 502       4.514   1.081  -4.322  0.75  4.79     0.060 A 
HETATM    7  C3    D T 502       3.819   1.792  -5.276  0.75 38.32     0.014 A 
HETATM    8 CL14   D T 502       3.609   0.085  -3.243  0.75 13.77    -0.082 Cl
HETATM    9  C4    D T 502       4.569   2.609  -6.140  0.75 41.22     0.028 A 
ENDBRANCH   1   2
BRANCH   1  10
HETATM   10  C8    D T 502       6.991   3.091  -8.226  0.75 12.01     0.111 A 
HETATM   11  C9    D T 502       6.162   3.531  -9.234  0.75  7.59     0.081 A 
HETATM   12  C10   D T 502       6.376   3.174 -10.559  0.75  9.21     0.025 A 
HETATM   13 CL16   D T 502       4.807   4.556  -8.856  0.75 22.03    -0.080 Cl
HETATM   14  C11   D T 502       7.467   2.349 -10.860  0.75 25.58     0.059 A 
HETATM   15  C12   D T 502       8.315   1.897  -9.850  0.75 18.79     0.013 A 
HETATM   16 CL15   D T 502       7.763   1.884 -12.500  0.75 35.46    -0.082 Cl
HETATM   17  C13   D T 502       8.059   2.284  -8.525  0.75  7.86     0.026 A 
ENDBRANCH   1  10
TORSDOF 2
ENDMDL
MODEL 7
REMARK VINA RESULT:    -6.865      1.728      2.060
REMARK INTER + INTRA:          -8.202
REMARK INTER:                  -7.901
REMARK INTRA:                  -0.302
REMARK UNBOUND:                -0.535
REMARK  2 active torsions:
REMARK  status: ('A' for Active; 'I' for Inactive)
REMARK    1  A    between atoms: C5_4  and  O7_13 
REMARK    2  A    between atoms: C8_10  and  O7_13 
ROOT
HETATM    1  O7    D T 502       4.747   1.767  -6.558  0.75  8.16    -0.304 OA
ENDROOT
BRANCH   1   2
HETATM    2  C5    D T 502       5.831   2.039  -7.476  0.75 10.64     0.125 A 
HETATM    3  C6    D T 502       7.142   1.799  -7.022  0.75 18.74     0.154 A 
HETATM    4  C1    D T 502       8.203   2.053  -7.876  0.75 21.18     0.041 A 
HETATM    5  O17   D T 502       7.357   1.328  -5.778  0.75  5.03    -0.188 OA
HETATM    6  C2    D T 502       7.935   2.521  -9.128  0.75  4.79     0.060 A 
HETATM    7  C3    D T 502       6.660   2.772  -9.587  0.75 38.32     0.014 A 
HETATM    8 CL14   D T 502       9.250   2.826 -10.203  0.75 13.77    -0.082 Cl
HETATM    9  C4    D T 502       5.598   2.507  -8.704  0.75 41.22     0.028 A 
ENDBRANCH   1   2
BRANCH   1  10
HETATM   10  C8    D T 502       4.309   2.740  -5.640  0.75 12.01     0.111 A 
HETATM   11  C9    D T 502       3.786   2.284  -4.451  0.75  7.59     0.081 A 
HETATM   12  C10   D T 502       3.323   3.159  -3.477  0.75  9.21     0.025 A 
HETATM   13 CL16   D T 502       3.691   0.573  -4.147  0.75 22.03    -0.080 Cl
HETATM   14  C11   D T 502       3.400   4.535  -3.725  0.75 25.58     0.059 A 
HETATM   15  C12   D T 502       3.928   5.011  -4.924  0.75 18.79     0.013 A 
HETATM   16 CL15   D T 502       2.832   5.654  -2.535  0.75 35.46    -0.082 Cl
HETATM   17  C13   D T 502       4.384   4.089  -5.879  0.75  7.86     0.026 A 
ENDBRANCH   1  10
TORSDOF 2
ENDMDL
MODEL 8
REMARK VINA RESULT:    -6.710      1.978      6.122
REMARK INTER + INTRA:          -8.030
REMARK INTER:                  -7.519
REMARK INTRA:                  -0.511
REMARK UNBOUND:                -0.535
REMARK  2 active torsions:
REMARK  status: ('A' for Active; 'I' for Inactive)
REMARK    1  A    between atoms: C5_4  and  O7_13 
REMARK    2  A    between atoms: C8_10  and  O7_13 
ROOT
HETATM    1  O7    D T 502       5.661   1.416  -4.806  0.75  8.16    -0.304 OA
ENDROOT
BRANCH   1   2
HETATM    2  C5    D T 502       4.966   2.544  -4.223  0.75 10.64     0.125 A 
HETATM    3  C6    D T 502       5.542   3.145  -3.087  0.75 18.74     0.154 A 
HETATM    4  C1    D T 502       4.898   4.224  -2.504  0.75 21.18     0.041 A 
HETATM    5  O17   D T 502       6.698   2.675  -2.579  0.75  5.03    -0.188 OA
HETATM    6  C2    D T 502       3.736   4.669  -3.058  0.75  4.79     0.060 A 
HETATM    7  C3    D T 502       3.153   4.089  -4.163  0.75 38.32     0.014 A 
HETATM    8 CL14   D T 502       2.937   6.023  -2.346  0.75 13.77    -0.082 Cl
HETATM    9  C4    D T 502       3.822   2.994  -4.740  0.75 41.22     0.028 A 
ENDBRANCH   1   2
BRANCH   1  10
HETATM   10  C8    D T 502       6.192   1.483  -6.108  0.75 12.01     0.111 A 
HETATM   11  C9    D T 502       5.764   0.529  -7.003  0.75  7.59     0.081 A 
HETATM   12  C10   D T 502       6.226   0.501  -8.313  0.75  9.21     0.025 A 
HETATM   13 CL16   D T 502       4.619  -0.681  -6.498  0.75 22.03    -0.080 Cl
HETATM   14  C11   D T 502       7.147   1.475  -8.716  0.75 25.58     0.059 A 
HETATM   15  C12   D T 502       7.589   2.448  -7.819  0.75 18.79     0.013 A 
HETATM   16 CL15   D T 502       7.745   1.471 -10.338  0.75 35.46    -0.082 Cl
HETATM   17  C13   D T 502       7.094   2.437  -6.506  0.75  7.86     0.026 A 
ENDBRANCH   1  10
TORSDOF 2
ENDMDL
MODEL 9
REMARK VINA RESULT:    -6.651      7.567      9.920
REMARK INTER + INTRA:          -7.964
REMARK INTER:                  -7.643
REMARK INTRA:                  -0.322
REMARK UNBOUND:                -0.535
REMARK  2 active torsions:
REMARK  status: ('A' for Active; 'I' for Inactive)
REMARK    1  A    between atoms: C5_4  and  O7_13 
REMARK    2  A    between atoms: C8_10  and  O7_13 
ROOT
HETATM    1  O7    D T 502       6.002   7.106   1.250  0.75  8.16    -0.304 OA
ENDROOT
BRANCH   1   2
HETATM    2  C5    D T 502       5.520   6.755  -0.068  0.75 10.64     0.125 A 
HETATM    3  C6    D T 502       5.245   7.809  -0.960  0.75 18.74     0.154 A 
HETATM    4  C1    D T 502       4.778   7.506  -2.229  0.75 21.18     0.041 A 
HETATM    5  O17   D T 502       5.436   9.089  -0.584  0.75  5.03    -0.188 OA
HETATM    6  C2    D T 502       4.610   6.197  -2.568  0.75  4.79     0.060 A 
HETATM    7  C3    D T 502       4.864   5.153  -1.706  0.75 38.32     0.014 A 
HETATM    8 CL14   D T 502       4.043   5.812  -4.151  0.75 13.77    -0.082 Cl
HETATM    9  C4    D T 502       5.337   5.482  -0.422  0.75 41.22     0.028 A 
ENDBRANCH   1   2
BRANCH   1  10
HETATM   10  C8    D T 502       6.755   6.195   2.015  0.75 12.01     0.111 A 
HETATM   11  C9    D T 502       8.119   6.200   1.823  0.75  7.59     0.081 A 
HETATM   12  C10   D T 502       8.954   5.340   2.525  0.75  9.21     0.025 A 
HETATM   13 CL16   D T 502       8.828   7.300   0.676  0.75 22.03    -0.080 Cl
HETATM   14  C11   D T 502       8.380   4.455   3.446  0.75 25.58     0.059 A 
HETATM   15  C12   D T 502       7.001   4.441   3.650  0.75 18.79     0.013 A 
HETATM   16 CL15   D T 502       9.390   3.370   4.336  0.75 35.46    -0.082 Cl
HETATM   17  C13   D T 502       6.196   5.328   2.919  0.75  7.86     0.026 A 
ENDBRANCH   1  10
TORSDOF 2
ENDMDL
