MODEL 1
REMARK VINA RESULT:    -7.838      0.000      0.000
REMARK INTER + INTRA:          -9.177
REMARK INTER:                  -8.754
REMARK INTRA:                  -0.423
REMARK UNBOUND:                -0.423
REMARK  2 active torsions:
REMARK  status: ('A' for Active; 'I' for Inactive)
REMARK    1  A    between atoms: C5_4  and  O7_13 
REMARK    2  A    between atoms: C8_10  and  O7_13 
ROOT
HETATM    1  O7    D T 502       6.492  15.152 306.354  0.75  8.16    -0.304 OA
ENDROOT
BRANCH   1   2
HETATM    2  C5    D T 502       5.292  15.447 307.108  0.75 10.64     0.125 A 
HETATM    3  C6    D T 502       5.453  15.886 308.436  0.75 18.74     0.154 A 
HETATM    4  C1    D T 502       4.324  16.172 309.187  0.75 21.18     0.041 A 
HETATM    5  O17   D T 502       6.684  16.026 308.965  0.75  5.03    -0.188 OA
HETATM    6  C2    D T 502       3.100  16.025 308.607  0.75  4.79     0.060 A 
HETATM    7  C3    D T 502       2.922  15.587 307.312  0.75 38.32     0.014 A 
HETATM    8 CL14   D T 502       1.690  16.394 309.531  0.75 13.77    -0.082 Cl
HETATM    9  C4    D T 502       4.081  15.302 306.568  0.75 41.22     0.028 A 
ENDBRANCH   1   2
BRANCH   1  10
HETATM   10  C8    D T 502       6.578  15.449 304.981  0.75 12.01     0.111 A 
HETATM   11  C9    D T 502       6.627  14.379 304.115  0.75  7.59     0.081 A 
HETATM   12  C10   D T 502       6.715  14.560 302.740  0.75  9.21     0.025 A 
HETATM   13 CL16   D T 502       6.581  12.756 304.741  0.75 22.03    -0.080 Cl
HETATM   14  C11   D T 502       6.752  15.867 302.241  0.75 25.58     0.059 A 
HETATM   15  C12   D T 502       6.703  16.960 303.105  0.75 18.79     0.013 A 
HETATM   16 CL15   D T 502       6.863  16.129 300.534  0.75 35.46    -0.082 Cl
HETATM   17  C13   D T 502       6.615  16.728 304.487  0.75  7.86     0.026 A 
ENDBRANCH   1  10
TORSDOF 2
ENDMDL
MODEL 2
REMARK VINA RESULT:    -7.729      9.452     11.941
REMARK INTER + INTRA:          -9.055
REMARK INTER:                  -8.853
REMARK INTRA:                  -0.202
REMARK UNBOUND:                -0.423
REMARK  2 active torsions:
REMARK  status: ('A' for Active; 'I' for Inactive)
REMARK    1  A    between atoms: C5_4  and  O7_13 
REMARK    2  A    between atoms: C8_10  and  O7_13 
ROOT
HETATM    1  O7    D T 502       4.486  24.385 298.851  0.75  8.16    -0.304 OA
ENDROOT
BRANCH   1   2
HETATM    2  C5    D T 502       5.454  23.369 299.204  0.75 10.64     0.125 A 
HETATM    3  C6    D T 502       6.371  23.675 300.227  0.75 18.74     0.154 A 
HETATM    4  C1    D T 502       7.314  22.725 300.586  0.75 21.18     0.041 A 
HETATM    5  O17   D T 502       6.330  24.870 300.847  0.75  5.03    -0.188 OA
HETATM    6  C2    D T 502       7.312  21.526 299.938  0.75  4.79     0.060 A 
HETATM    7  C3    D T 502       6.429  21.212 298.927  0.75 38.32     0.014 A 
HETATM    8 CL14   D T 502       8.473  20.332 300.390  0.75 13.77    -0.082 Cl
HETATM    9  C4    D T 502       5.481  22.191 298.579  0.75 41.22     0.028 A 
ENDBRANCH   1   2
BRANCH   1  10
HETATM   10  C8    D T 502       4.028  24.524 297.528  0.75 12.01     0.111 A 
HETATM   11  C9    D T 502       4.924  25.023 296.608  0.75  7.59     0.081 A 
HETATM   12  C10   D T 502       4.575  25.202 295.275  0.75  9.21     0.025 A 
HETATM   13 CL16   D T 502       6.536  25.446 297.111  0.75 22.03    -0.080 Cl
HETATM   14  C11   D T 502       3.278  24.861 294.875  0.75 25.58     0.059 A 
HETATM   15  C12   D T 502       2.360  24.355 295.795  0.75 18.79     0.013 A 
HETATM   16 CL15   D T 502       2.807  25.073 293.223  0.75 35.46    -0.082 Cl
HETATM   17  C13   D T 502       2.758  24.192 297.130  0.75  7.86     0.026 A 
ENDBRANCH   1  10
TORSDOF 2
ENDMDL
MODEL 3
REMARK VINA RESULT:    -7.725      1.527      6.100
REMARK INTER + INTRA:          -9.051
REMARK INTER:                  -8.655
REMARK INTRA:                  -0.396
REMARK UNBOUND:                -0.423
REMARK  2 active torsions:
REMARK  status: ('A' for Active; 'I' for Inactive)
REMARK    1  A    between atoms: C5_4  and  O7_13 
REMARK    2  A    between atoms: C8_10  and  O7_13 
ROOT
HETATM    1  O7    D T 502       6.517  14.947 306.215  0.75  8.16    -0.304 OA
ENDROOT
BRANCH   1   2
HETATM    2  C5    D T 502       6.638  15.075 304.778  0.75 10.64     0.125 A 
HETATM    3  C6    D T 502       6.636  13.889 304.019  0.75 18.74     0.154 A 
HETATM    4  C1    D T 502       6.754  13.977 302.642  0.75 21.18     0.041 A 
HETATM    5  O17   D T 502       6.520  12.691 304.625  0.75  5.03    -0.188 OA
HETATM    6  C2    D T 502       6.860  15.211 302.073  0.75  4.79     0.060 A 
HETATM    7  C3    D T 502       6.873  16.382 302.800  0.75 38.32     0.014 A 
HETATM    8 CL14   D T 502       6.992  15.329 300.356  0.75 13.77    -0.082 Cl
HETATM    9  C4    D T 502       6.752  16.270 304.196  0.75 41.22     0.028 A 
ENDBRANCH   1   2
BRANCH   1  10
HETATM   10  C8    D T 502       5.319  15.276 306.876  0.75 12.01     0.111 A 
HETATM   11  C9    D T 502       5.426  15.715 308.177  0.75  7.59     0.081 A 
HETATM   12  C10   D T 502       4.307  16.065 308.921  0.75  9.21     0.025 A 
HETATM   13 CL16   D T 502       6.995  15.839 308.922  0.75 22.03    -0.080 Cl
HETATM   14  C11   D T 502       3.048  15.963 308.319  0.75 25.58     0.059 A 
HETATM   15  C12   D T 502       2.923  15.520 307.003  0.75 18.79     0.013 A 
HETATM   16 CL15   D T 502       1.631  16.387 309.217  0.75 35.46    -0.082 Cl
HETATM   17  C13   D T 502       4.083  15.178 306.289  0.75  7.86     0.026 A 
ENDBRANCH   1  10
TORSDOF 2
ENDMDL
MODEL 4
REMARK VINA RESULT:    -7.656      9.572     12.441
REMARK INTER + INTRA:          -8.974
REMARK INTER:                  -8.703
REMARK INTRA:                  -0.271
REMARK UNBOUND:                -0.423
REMARK  2 active torsions:
REMARK  status: ('A' for Active; 'I' for Inactive)
REMARK    1  A    between atoms: C5_4  and  O7_13 
REMARK    2  A    between atoms: C8_10  and  O7_13 
ROOT
HETATM    1  O7    D T 502       4.523  24.268 298.807  0.75  8.16    -0.304 OA
ENDROOT
BRANCH   1   2
HETATM    2  C5    D T 502       4.071  24.458 297.445  0.75 10.64     0.125 A 
HETATM    3  C6    D T 502       4.999  24.973 296.520  0.75 18.74     0.154 A 
HETATM    4  C1    D T 502       4.597  25.172 295.209  0.75 21.18     0.041 A 
HETATM    5  O17   D T 502       6.257  25.265 296.905  0.75  5.03    -0.188 OA
HETATM    6  C2    D T 502       3.317  24.853 294.864  0.75  4.79     0.060 A 
HETATM    7  C3    D T 502       2.392  24.358 295.757  0.75 38.32     0.014 A 
HETATM    8 CL14   D T 502       2.813  25.084 293.229  0.75 13.77    -0.082 Cl
HETATM    9  C4    D T 502       2.821  24.164 297.082  0.75 41.22     0.028 A 
ENDBRANCH   1   2
BRANCH   1  10
HETATM   10  C8    D T 502       5.424  23.238 299.135  0.75 12.01     0.111 A 
HETATM   11  C9    D T 502       6.427  23.550 300.027  0.75  7.59     0.081 A 
HETATM   12  C10   D T 502       7.371  22.610 300.418  0.75  9.21     0.025 A 
HETATM   13 CL16   D T 502       6.529  25.158 300.687  0.75 22.03    -0.080 Cl
HETATM   14  C11   D T 502       7.286  21.318 299.885  0.75 25.58     0.059 A 
HETATM   15  C12   D T 502       6.276  20.988 298.981  0.75 18.79     0.013 A 
HETATM   16 CL15   D T 502       8.446  20.121 300.348  0.75 35.46    -0.082 Cl
HETATM   17  C13   D T 502       5.344  21.971 298.615  0.75  7.86     0.026 A 
ENDBRANCH   1  10
TORSDOF 2
ENDMDL
MODEL 5
REMARK VINA RESULT:    -7.306      8.875     11.770
REMARK INTER + INTRA:          -8.583
REMARK INTER:                  -8.311
REMARK INTRA:                  -0.271
REMARK UNBOUND:                -0.423
REMARK  2 active torsions:
REMARK  status: ('A' for Active; 'I' for Inactive)
REMARK    1  A    between atoms: C5_4  and  O7_13 
REMARK    2  A    between atoms: C8_10  and  O7_13 
ROOT
HETATM    1  O7    D T 502       6.451  22.262 297.890  0.75  8.16    -0.304 OA
ENDROOT
BRANCH   1   2
HETATM    2  C5    D T 502       5.543  22.930 296.984  0.75 10.64     0.125 A 
HETATM    3  C6    D T 502       4.312  22.301 296.719  0.75 18.74     0.154 A 
HETATM    4  C1    D T 502       3.421  22.913 295.851  0.75 21.18     0.041 A 
HETATM    5  O17   D T 502       4.006  21.125 297.301  0.75  5.03    -0.188 OA
HETATM    6  C2    D T 502       3.769  24.107 295.293  0.75  4.79     0.060 A 
HETATM    7  C3    D T 502       4.974  24.733 295.532  0.75 38.32     0.014 A 
HETATM    8 CL14   D T 502       2.659  24.883 294.224  0.75 13.77    -0.082 Cl
HETATM    9  C4    D T 502       5.862  24.094 296.415  0.75 41.22     0.028 A 
ENDBRANCH   1   2
BRANCH   1  10
HETATM   10  C8    D T 502       6.484  22.589 299.258  0.75 12.01     0.111 A 
HETATM   11  C9    D T 502       7.223  21.765 300.078  0.75  7.59     0.081 A 
HETATM   12  C10   D T 502       7.321  21.996 301.444  0.75  9.21     0.025 A 
HETATM   13 CL16   D T 502       8.057  20.395 299.403  0.75 22.03    -0.080 Cl
HETATM   14  C11   D T 502       6.648  23.098 301.984  0.75 25.58     0.059 A 
HETATM   15  C12   D T 502       5.896  23.942 301.166  0.75 18.79     0.013 A 
HETATM   16 CL15   D T 502       6.746  23.416 303.682  0.75 35.46    -0.082 Cl
HETATM   17  C13   D T 502       5.827  23.669 299.791  0.75  7.86     0.026 A 
ENDBRANCH   1  10
TORSDOF 2
ENDMDL
MODEL 6
REMARK VINA RESULT:    -7.245      8.649     11.591
REMARK INTER + INTRA:          -8.515
REMARK INTER:                  -8.003
REMARK INTRA:                  -0.512
REMARK UNBOUND:                -0.423
REMARK  2 active torsions:
REMARK  status: ('A' for Active; 'I' for Inactive)
REMARK    1  A    between atoms: C5_4  and  O7_13 
REMARK    2  A    between atoms: C8_10  and  O7_13 
ROOT
HETATM    1  O7    D T 502       5.189  21.437 298.315  0.75  8.16    -0.304 OA
ENDROOT
BRANCH   1   2
HETATM    2  C5    D T 502       4.631  22.309 297.303  0.75 10.64     0.125 A 
HETATM    3  C6    D T 502       5.410  22.551 296.156  0.75 18.74     0.154 A 
HETATM    4  C1    D T 502       4.907  23.384 295.169  0.75 21.18     0.041 A 
HETATM    5  O17   D T 502       6.623  21.980 296.020  0.75  5.03    -0.188 OA
HETATM    6  C2    D T 502       3.671  23.932 295.346  0.75  4.79     0.060 A 
HETATM    7  C3    D T 502       2.899  23.715 296.466  0.75 38.32     0.014 A 
HETATM    8 CL14   D T 502       3.032  24.959 294.115  0.75 13.77    -0.082 Cl
HETATM    9  C4    D T 502       3.429  22.866 297.454  0.75 41.22     0.028 A 
ENDBRANCH   1   2
BRANCH   1  10
HETATM   10  C8    D T 502       5.630  21.947 299.550  0.75 12.01     0.111 A 
HETATM   11  C9    D T 502       4.818  21.726 300.641  0.75  7.59     0.081 A 
HETATM   12  C10   D T 502       5.158  22.188 301.906  0.75  9.21     0.025 A 
HETATM   13 CL16   D T 502       3.327  20.850 300.446  0.75 22.03    -0.080 Cl
HETATM   14  C11   D T 502       6.357  22.893 302.059  0.75 25.58     0.059 A 
HETATM   15  C12   D T 502       7.190  23.124 300.964  0.75 18.79     0.013 A 
HETATM   16 CL15   D T 502       6.811  23.485 303.620  0.75 35.46    -0.082 Cl
HETATM   17  C13   D T 502       6.805  22.638 299.704  0.75  7.86     0.026 A 
ENDBRANCH   1  10
TORSDOF 2
ENDMDL
MODEL 7
REMARK VINA RESULT:    -7.150      7.920     10.122
REMARK INTER + INTRA:          -8.409
REMARK INTER:                  -7.907
REMARK INTRA:                  -0.502
REMARK UNBOUND:                -0.423
REMARK  2 active torsions:
REMARK  status: ('A' for Active; 'I' for Inactive)
REMARK    1  A    between atoms: C5_4  and  O7_13 
REMARK    2  A    between atoms: C8_10  and  O7_13 
ROOT
HETATM    1  O7    D T 502       6.401  22.942 298.941  0.75  8.16    -0.304 OA
ENDROOT
BRANCH   1   2
HETATM    2  C5    D T 502       6.218  21.863 299.888  0.75 10.64     0.125 A 
HETATM    3  C6    D T 502       6.106  22.206 301.248  0.75 18.74     0.154 A 
HETATM    4  C1    D T 502       5.934  21.196 302.181  0.75 21.18     0.041 A 
HETATM    5  O17   D T 502       6.163  23.496 301.634  0.75  5.03    -0.188 OA
HETATM    6  C2    D T 502       5.873  19.907 301.743  0.75  4.79     0.060 A 
HETATM    7  C3    D T 502       5.990  19.550 300.417  0.75 38.32     0.014 A 
HETATM    8 CL14   D T 502       5.643  18.644 302.897  0.75 13.77    -0.082 Cl
HETATM    9  C4    D T 502       6.164  20.591 299.488  0.75 41.22     0.028 A 
ENDBRANCH   1   2
BRANCH   1  10
HETATM   10  C8    D T 502       5.330  23.411 298.158  0.75 12.01     0.111 A 
HETATM   11  C9    D T 502       5.306  23.020 296.838  0.75  7.59     0.081 A 
HETATM   12  C10   D T 502       4.295  23.427 295.977  0.75  9.21     0.025 A 
HETATM   13 CL16   D T 502       6.566  21.991 296.216  0.75 22.03    -0.080 Cl
HETATM   14  C11   D T 502       3.284  24.255 296.479  0.75 25.58     0.059 A 
HETATM   15  C12   D T 502       3.296  24.659 297.814  0.75 18.79     0.013 A 
HETATM   16 CL15   D T 502       2.011  24.783 295.435  0.75 35.46    -0.082 Cl
HETATM   17  C13   D T 502       4.338  24.222 298.647  0.75  7.86     0.026 A 
ENDBRANCH   1  10
TORSDOF 2
ENDMDL
MODEL 8
REMARK VINA RESULT:    -6.990      2.259      6.268
REMARK INTER + INTRA:          -8.230
REMARK INTER:                  -7.887
REMARK INTRA:                  -0.343
REMARK UNBOUND:                -0.423
REMARK  2 active torsions:
REMARK  status: ('A' for Active; 'I' for Inactive)
REMARK    1  A    between atoms: C5_4  and  O7_13 
REMARK    2  A    between atoms: C8_10  and  O7_13 
ROOT
HETATM    1  O7    D T 502       5.197  14.697 304.103  0.75  8.16    -0.304 OA
ENDROOT
BRANCH   1   2
HETATM    2  C5    D T 502       6.057  15.435 303.203  0.75 10.64     0.125 A 
HETATM    3  C6    D T 502       5.556  16.636 302.666  0.75 18.74     0.154 A 
HETATM    4  C1    D T 502       6.353  17.364 301.797  0.75 21.18     0.041 A 
HETATM    5  O17   D T 502       4.322  17.068 302.994  0.75  5.03    -0.188 OA
HETATM    6  C2    D T 502       7.597  16.892 301.502  0.75  4.79     0.060 A 
HETATM    7  C3    D T 502       8.101  15.715 302.010  0.75 38.32     0.014 A 
HETATM    8 CL14   D T 502       8.601  17.802 300.433  0.75 13.77    -0.082 Cl
HETATM    9  C4    D T 502       7.276  14.991 302.889  0.75 41.22     0.028 A 
ENDBRANCH   1   2
BRANCH   1  10
HETATM   10  C8    D T 502       5.050  15.083 305.448  0.75 12.01     0.111 A 
HETATM   11  C9    D T 502       3.763  15.213 305.921  0.75  7.59     0.081 A 
HETATM   12  C10   D T 502       3.505  15.591 307.232  0.75  9.21     0.025 A 
HETATM   13 CL16   D T 502       2.416  14.902 304.863  0.75 22.03    -0.080 Cl
HETATM   14  C11   D T 502       4.591  15.842 308.080  0.75 25.58     0.059 A 
HETATM   15  C12   D T 502       5.899  15.714 307.615  0.75 18.79     0.013 A 
HETATM   16 CL15   D T 502       4.307  16.317 309.719  0.75 35.46    -0.082 Cl
HETATM   17  C13   D T 502       6.111  15.329 306.282  0.75  7.86     0.026 A 
ENDBRANCH   1  10
TORSDOF 2
ENDMDL
MODEL 9
REMARK VINA RESULT:    -6.970      7.774     10.554
REMARK INTER + INTRA:          -8.207
REMARK INTER:                  -7.705
REMARK INTRA:                  -0.502
REMARK UNBOUND:                -0.423
REMARK  2 active torsions:
REMARK  status: ('A' for Active; 'I' for Inactive)
REMARK    1  A    between atoms: C5_4  and  O7_13 
REMARK    2  A    between atoms: C8_10  and  O7_13 
ROOT
HETATM    1  O7    D T 502       6.195  22.394 299.009  0.75  8.16    -0.304 OA
ENDROOT
BRANCH   1   2
HETATM    2  C5    D T 502       5.165  22.918 298.137  0.75 10.64     0.125 A 
HETATM    3  C6    D T 502       4.721  24.232 298.376  0.75 18.74     0.154 A 
HETATM    4  C1    D T 502       3.733  24.763 297.562  0.75 21.18     0.041 A 
HETATM    5  O17   D T 502       5.251  24.961 299.378  0.75  5.03    -0.188 OA
HETATM    6  C2    D T 502       3.234  23.992 296.555  0.75  4.79     0.060 A 
HETATM    7  C3    D T 502       3.648  22.700 296.312  0.75 38.32     0.014 A 
HETATM    8 CL14   D T 502       2.014  24.651 295.528  0.75 13.77    -0.082 Cl
HETATM    9  C4    D T 502       4.652  22.182 297.150  0.75 41.22     0.028 A 
ENDBRANCH   1   2
BRANCH   1  10
HETATM   10  C8    D T 502       5.899  21.418 299.978  0.75 12.01     0.111 A 
HETATM   11  C9    D T 502       6.679  20.283 299.978  0.75  7.59     0.081 A 
HETATM   12  C10   D T 502       6.471  19.257 300.891  0.75  9.21     0.025 A 
HETATM   13 CL16   D T 502       7.959  20.113 298.811  0.75 22.03    -0.080 Cl
HETATM   14  C11   D T 502       5.440  19.397 301.828  0.75 25.58     0.059 A 
HETATM   15  C12   D T 502       4.642  20.541 301.840  0.75 18.79     0.013 A 
HETATM   16 CL15   D T 502       5.151  18.138 302.979  0.75 35.46    -0.082 Cl
HETATM   17  C13   D T 502       4.890  21.551 300.899  0.75  7.86     0.026 A 
ENDBRANCH   1  10
TORSDOF 2
ENDMDL
