MODEL 1
REMARK VINA RESULT:    -7.791      0.000      0.000
REMARK INTER + INTRA:          -9.042
REMARK INTER:                  -8.702
REMARK INTRA:                  -0.340
REMARK UNBOUND:                -0.340
REMARK  2 active torsions:
REMARK  status: ('A' for Active; 'I' for Inactive)
REMARK    1  A    between atoms: C5_4  and  O7_13 
REMARK    2  A    between atoms: C8_10  and  O7_13 
ROOT
HETATM    1  O7    D T 502       5.678   0.098  -7.666  0.75  8.16    -0.304 OA
ENDROOT
BRANCH   1   2
HETATM    2  C5    D T 502       4.952   1.054  -6.857  0.75 10.64     0.125 A 
HETATM    3  C6    D T 502       3.911   0.559  -6.049  0.75 18.74     0.154 A 
HETATM    4  C1    D T 502       3.192   1.449  -5.266  0.75 21.18     0.041 A 
HETATM    5  O17   D T 502       3.621  -0.757  -6.036  0.75  5.03    -0.188 OA
HETATM    6  C2    D T 502       3.527   2.769  -5.304  0.75  4.79     0.060 A 
HETATM    7  C3    D T 502       4.536   3.273  -6.096  0.75 38.32     0.014 A 
HETATM    8 CL14   D T 502       2.647   3.882  -4.320  0.75 13.77    -0.082 Cl
HETATM    9  C4    D T 502       5.251   2.353  -6.883  0.75 41.22     0.028 A 
ENDBRANCH   1   2
BRANCH   1  10
HETATM   10  C8    D T 502       6.173   0.448  -8.936  0.75 12.01     0.111 A 
HETATM   11  C9    D T 502       5.272   0.448  -9.977  0.75  7.59     0.081 A 
HETATM   12  C10   D T 502       5.655   0.776 -11.271  0.75  9.21     0.025 A 
HETATM   13 CL16   D T 502       3.609   0.026  -9.682  0.75 22.03    -0.080 Cl
HETATM   14  C11   D T 502       6.993   1.113 -11.505  0.75 25.58     0.059 A 
HETATM   15  C12   D T 502       7.917   1.118 -10.460  0.75 18.79     0.013 A 
HETATM   16 CL15   D T 502       7.506   1.526 -13.105  0.75 35.46    -0.082 Cl
HETATM   17  C13   D T 502       7.484   0.780  -9.169  0.75  7.86     0.026 A 
ENDBRANCH   1  10
TORSDOF 2
ENDMDL
MODEL 2
REMARK VINA RESULT:    -7.724      1.134      5.827
REMARK INTER + INTRA:          -8.967
REMARK INTER:                  -8.657
REMARK INTRA:                  -0.310
REMARK UNBOUND:                -0.340
REMARK  2 active torsions:
REMARK  status: ('A' for Active; 'I' for Inactive)
REMARK    1  A    between atoms: C5_4  and  O7_13 
REMARK    2  A    between atoms: C8_10  and  O7_13 
ROOT
HETATM    1  O7    D T 502       5.736   0.159  -7.647  0.75  8.16    -0.304 OA
ENDROOT
BRANCH   1   2
HETATM    2  C5    D T 502       6.194   0.484  -8.981  0.75 10.64     0.125 A 
HETATM    3  C6    D T 502       5.238   0.474 -10.014  0.75 18.74     0.154 A 
HETATM    4  C1    D T 502       5.645   0.775 -11.305  0.75 21.18     0.041 A 
HETATM    5  O17   D T 502       3.950   0.177  -9.752  0.75  5.03    -0.188 OA
HETATM    6  C2    D T 502       6.956   1.077 -11.521  0.75  4.79     0.060 A 
HETATM    7  C3    D T 502       7.908   1.083 -10.524  0.75 38.32     0.014 A 
HETATM    8 CL14   D T 502       7.468   1.469 -13.123  0.75 13.77    -0.082 Cl
HETATM    9  C4    D T 502       7.473   0.774  -9.223  0.75 41.22     0.028 A 
ENDBRANCH   1   2
BRANCH   1  10
HETATM   10  C8    D T 502       5.024   1.096  -6.875  0.75 12.01     0.111 A 
HETATM   11  C9    D T 502       3.988   0.611  -6.108  0.75  7.59     0.081 A 
HETATM   12  C10   D T 502       3.219   1.448  -5.311  0.75  9.21     0.025 A 
HETATM   13 CL16   D T 502       3.619  -1.091  -6.128  0.75 22.03    -0.080 Cl
HETATM   14  C11   D T 502       3.517   2.816  -5.298  0.75 25.58     0.059 A 
HETATM   15  C12   D T 502       4.563   3.321  -6.070  0.75 18.79     0.013 A 
HETATM   16 CL15   D T 502       2.579   3.889  -4.318  0.75 35.46    -0.082 Cl
HETATM   17  C13   D T 502       5.314   2.436  -6.860  0.75  7.86     0.026 A 
ENDBRANCH   1  10
TORSDOF 2
ENDMDL
MODEL 3
REMARK VINA RESULT:    -7.382      2.463      3.007
REMARK INTER + INTRA:          -8.585
REMARK INTER:                  -8.207
REMARK INTRA:                  -0.378
REMARK UNBOUND:                -0.340
REMARK  2 active torsions:
REMARK  status: ('A' for Active; 'I' for Inactive)
REMARK    1  A    between atoms: C5_4  and  O7_13 
REMARK    2  A    between atoms: C8_10  and  O7_13 
ROOT
HETATM    1  O7    D T 502       4.902   3.221  -7.666  0.75  8.16    -0.304 OA
ENDROOT
BRANCH   1   2
HETATM    2  C5    D T 502       4.497   2.385  -6.557  0.75 10.64     0.125 A 
HETATM    3  C6    D T 502       4.720   2.879  -5.258  0.75 18.74     0.154 A 
HETATM    4  C1    D T 502       4.349   2.101  -4.173  0.75 21.18     0.041 A 
HETATM    5  O17   D T 502       5.285   4.089  -5.074  0.75  5.03    -0.188 OA
HETATM    6  C2    D T 502       3.773   0.888  -4.407  0.75  4.79     0.060 A 
HETATM    7  C3    D T 502       3.555   0.383  -5.671  0.75 38.32     0.014 A 
HETATM    8 CL14   D T 502       3.293  -0.081  -3.061  0.75 13.77    -0.082 Cl
HETATM    9  C4    D T 502       3.941   1.190  -6.757  0.75 41.22     0.028 A 
ENDBRANCH   1   2
BRANCH   1  10
HETATM   10  C8    D T 502       5.512   2.669  -8.807  0.75 12.01     0.111 A 
HETATM   11  C9    D T 502       6.870   2.450  -8.742  0.75  7.59     0.081 A 
HETATM   12  C10   D T 502       7.573   1.911  -9.812  0.75  9.21     0.025 A 
HETATM   13 CL16   D T 502       7.744   2.854  -7.291  0.75 22.03    -0.080 Cl
HETATM   14  C11   D T 502       6.868   1.588 -10.978  0.75 25.58     0.059 A 
HETATM   15  C12   D T 502       5.492   1.805 -11.058  0.75 18.79     0.013 A 
HETATM   16 CL15   D T 502       7.710   0.917 -12.331  0.75 35.46    -0.082 Cl
HETATM   17  C13   D T 502       4.825   2.351  -9.951  0.75  7.86     0.026 A 
ENDBRANCH   1  10
TORSDOF 2
ENDMDL
MODEL 4
REMARK VINA RESULT:    -7.309      1.497      6.072
REMARK INTER + INTRA:          -8.504
REMARK INTER:                  -8.159
REMARK INTRA:                  -0.345
REMARK UNBOUND:                -0.340
REMARK  2 active torsions:
REMARK  status: ('A' for Active; 'I' for Inactive)
REMARK    1  A    between atoms: C5_4  and  O7_13 
REMARK    2  A    between atoms: C8_10  and  O7_13 
ROOT
HETATM    1  O7    D T 502       5.102   0.545  -6.776  0.75  8.16    -0.304 OA
ENDROOT
BRANCH   1   2
HETATM    2  C5    D T 502       5.542   0.679  -8.149  0.75 10.64     0.125 A 
HETATM    3  C6    D T 502       6.916   0.885  -8.371  0.75 18.74     0.154 A 
HETATM    4  C1    D T 502       7.370   1.022  -9.674  0.75 21.18     0.041 A 
HETATM    5  O17   D T 502       7.775   0.947  -7.335  0.75  5.03    -0.188 OA
HETATM    6  C2    D T 502       6.465   0.944 -10.691  0.75  4.79     0.060 A 
HETATM    7  C3    D T 502       5.115   0.751 -10.492  0.75 38.32     0.014 A 
HETATM    8 CL14   D T 502       7.024   1.098 -12.317  0.75 13.77    -0.082 Cl
HETATM    9  C4    D T 502       4.678   0.616  -9.162  0.75 41.22     0.028 A 
ENDBRANCH   1   2
BRANCH   1  10
HETATM   10  C8    D T 502       4.503   1.622  -6.097  0.75 12.01     0.111 A 
HETATM   11  C9    D T 502       3.789   1.320  -4.959  0.75  7.59     0.081 A 
HETATM   12  C10   D T 502       3.156   2.306  -4.214  0.75  9.21     0.025 A 
HETATM   13 CL16   D T 502       3.664  -0.334  -4.429  0.75 22.03    -0.080 Cl
HETATM   14  C11   D T 502       3.258   3.635  -4.643  0.75 25.58     0.059 A 
HETATM   15  C12   D T 502       3.978   3.956  -5.794  0.75 18.79     0.013 A 
HETATM   16 CL15   D T 502       2.481   4.890  -3.741  0.75 35.46    -0.082 Cl
HETATM   17  C13   D T 502       4.601   2.925  -6.514  0.75  7.86     0.026 A 
ENDBRANCH   1  10
TORSDOF 2
ENDMDL
MODEL 5
REMARK VINA RESULT:    -7.308      2.523      6.254
REMARK INTER + INTRA:          -8.502
REMARK INTER:                  -7.994
REMARK INTRA:                  -0.508
REMARK UNBOUND:                -0.340
REMARK  2 active torsions:
REMARK  status: ('A' for Active; 'I' for Inactive)
REMARK    1  A    between atoms: C5_4  and  O7_13 
REMARK    2  A    between atoms: C8_10  and  O7_13 
ROOT
HETATM    1  O7    D T 502       6.134   3.033  -7.233  0.75  8.16    -0.304 OA
ENDROOT
BRANCH   1   2
HETATM    2  C5    D T 502       6.446   2.553  -8.562  0.75 10.64     0.125 A 
HETATM    3  C6    D T 502       5.620   2.982  -9.617  0.75 18.74     0.154 A 
HETATM    4  C1    D T 502       5.889   2.536 -10.902  0.75 21.18     0.041 A 
HETATM    5  O17   D T 502       4.586   3.813  -9.381  0.75  5.03    -0.188 OA
HETATM    6  C2    D T 502       6.951   1.704 -11.094  0.75  4.79     0.060 A 
HETATM    7  C3    D T 502       7.766   1.265 -10.073  0.75 38.32     0.014 A 
HETATM    8 CL14   D T 502       7.302   1.157 -12.694  0.75 13.77    -0.082 Cl
HETATM    9  C4    D T 502       7.473   1.730  -8.778  0.75 41.22     0.028 A 
ENDBRANCH   1   2
BRANCH   1  10
HETATM   10  C8    D T 502       5.438   2.226  -6.314  0.75 12.01     0.111 A 
HETATM   11  C9    D T 502       6.149   1.761  -5.231  0.75  7.59     0.081 A 
HETATM   12  C10   D T 502       5.560   0.956  -4.265  0.75  9.21     0.025 A 
HETATM   13 CL16   D T 502       7.830   2.182  -5.053  0.75 22.03    -0.080 Cl
HETATM   14  C11   D T 502       4.209   0.619  -4.411  0.75 25.58     0.059 A 
HETATM   15  C12   D T 502       3.476   1.082  -5.503  0.75 18.79     0.013 A 
HETATM   16 CL15   D T 502       3.443  -0.385  -3.228  0.75 35.46    -0.082 Cl
HETATM   17  C13   D T 502       4.114   1.894  -6.454  0.75  7.86     0.026 A 
ENDBRANCH   1  10
TORSDOF 2
ENDMDL
MODEL 6
REMARK VINA RESULT:    -7.233      2.042      6.241
REMARK INTER + INTRA:          -8.419
REMARK INTER:                  -8.135
REMARK INTRA:                  -0.284
REMARK UNBOUND:                -0.340
REMARK  2 active torsions:
REMARK  status: ('A' for Active; 'I' for Inactive)
REMARK    1  A    between atoms: C5_4  and  O7_13 
REMARK    2  A    between atoms: C8_10  and  O7_13 
ROOT
HETATM    1  O7    D T 502       4.638   2.884  -7.736  0.75  8.16    -0.304 OA
ENDROOT
BRANCH   1   2
HETATM    2  C5    D T 502       5.422   2.348  -8.828  0.75 10.64     0.125 A 
HETATM    3  C6    D T 502       6.823   2.382  -8.697  0.75 18.74     0.154 A 
HETATM    4  C1    D T 502       7.604   1.881  -9.727  0.75 21.18     0.041 A 
HETATM    5  O17   D T 502       7.394   2.892  -7.588  0.75  5.03    -0.188 OA
HETATM    6  C2    D T 502       6.982   1.367 -10.826  0.75  4.79     0.060 A 
HETATM    7  C3    D T 502       5.612   1.334 -10.976  0.75 38.32     0.014 A 
HETATM    8 CL14   D T 502       7.947   0.727 -12.106  0.75 13.77    -0.082 Cl
HETATM    9  C4    D T 502       4.841   1.848  -9.919  0.75 41.22     0.028 A 
ENDBRANCH   1   2
BRANCH   1  10
HETATM   10  C8    D T 502       4.300   2.089  -6.626  0.75 12.01     0.111 A 
HETATM   11  C9    D T 502       3.963   2.751  -5.466  0.75  7.59     0.081 A 
HETATM   12  C10   D T 502       3.616   2.065  -4.310  0.75  9.21     0.025 A 
HETATM   13 CL16   D T 502       3.971   4.492  -5.430  0.75 22.03    -0.080 Cl
HETATM   14  C11   D T 502       3.611   0.665  -4.342  0.75 25.58     0.059 A 
HETATM   15  C12   D T 502       3.950  -0.020  -5.510  0.75 18.79     0.013 A 
HETATM   16 CL15   D T 502       3.185  -0.225  -2.921  0.75 35.46    -0.082 Cl
HETATM   17  C13   D T 502       4.294   0.718  -6.654  0.75  7.86     0.026 A 
ENDBRANCH   1  10
TORSDOF 2
ENDMDL
MODEL 7
REMARK VINA RESULT:    -7.209      1.644      2.054
REMARK INTER + INTRA:          -8.391
REMARK INTER:                  -7.869
REMARK INTRA:                  -0.522
REMARK UNBOUND:                -0.340
REMARK  2 active torsions:
REMARK  status: ('A' for Active; 'I' for Inactive)
REMARK    1  A    between atoms: C5_4  and  O7_13 
REMARK    2  A    between atoms: C8_10  and  O7_13 
ROOT
HETATM    1  O7    D T 502       5.747   0.792  -6.684  0.75  8.16    -0.304 OA
ENDROOT
BRANCH   1   2
HETATM    2  C5    D T 502       4.992   1.821  -6.000  0.75 10.64     0.125 A 
HETATM    3  C6    D T 502       3.789   1.437  -5.378  0.75 18.74     0.154 A 
HETATM    4  C1    D T 502       3.040   2.399  -4.719  0.75 21.18     0.041 A 
HETATM    5  O17   D T 502       3.375   0.156  -5.423  0.75  5.03    -0.188 OA
HETATM    6  C2    D T 502       3.504   3.681  -4.693  0.75  4.79     0.060 A 
HETATM    7  C3    D T 502       4.674   4.078  -5.303  0.75 38.32     0.014 A 
HETATM    8 CL14   D T 502       2.585   4.882  -3.860  0.75 13.77    -0.082 Cl
HETATM    9  C4    D T 502       5.417   3.085  -5.967  0.75 41.22     0.028 A 
ENDBRANCH   1   2
BRANCH   1  10
HETATM   10  C8    D T 502       5.966   0.854  -8.072  0.75 12.01     0.111 A 
HETATM   11  C9    D T 502       7.254   1.111  -8.488  0.75  7.59     0.081 A 
HETATM   12  C10   D T 502       7.581   1.195  -9.835  0.75  9.21     0.025 A 
HETATM   13 CL16   D T 502       8.514   1.341  -7.309  0.75 22.03    -0.080 Cl
HETATM   14  C11   D T 502       6.565   1.011 -10.780  0.75 25.58     0.059 A 
HETATM   15  C12   D T 502       5.256   0.749 -10.374  0.75 18.79     0.013 A 
HETATM   16 CL15   D T 502       6.935   1.111 -12.467  0.75 35.46    -0.082 Cl
HETATM   17  C13   D T 502       4.973   0.673  -9.002  0.75  7.86     0.026 A 
ENDBRANCH   1  10
TORSDOF 2
ENDMDL
MODEL 8
REMARK VINA RESULT:    -6.928      1.800      2.176
REMARK INTER + INTRA:          -8.078
REMARK INTER:                  -7.549
REMARK INTRA:                  -0.529
REMARK UNBOUND:                -0.340
REMARK  2 active torsions:
REMARK  status: ('A' for Active; 'I' for Inactive)
REMARK    1  A    between atoms: C5_4  and  O7_13 
REMARK    2  A    between atoms: C8_10  and  O7_13 
ROOT
HETATM    1  O7    D T 502       5.411   1.107  -6.423  0.75  8.16    -0.304 OA
ENDROOT
BRANCH   1   2
HETATM    2  C5    D T 502       5.070   2.366  -5.796  0.75 10.64     0.125 A 
HETATM    3  C6    D T 502       5.778   2.723  -4.633  0.75 18.74     0.154 A 
HETATM    4  C1    D T 502       5.472   3.920  -4.004  0.75 21.18     0.041 A 
HETATM    5  O17   D T 502       6.736   1.914  -4.140  0.75  5.03    -0.188 OA
HETATM    6  C2    D T 502       4.501   4.710  -4.544  0.75  4.79     0.060 A 
HETATM    7  C3    D T 502       3.791   4.373  -5.676  0.75 38.32     0.014 A 
HETATM    8 CL14   D T 502       4.125   6.210  -3.776  0.75 13.77    -0.082 Cl
HETATM    9  C4    D T 502       4.118   3.154  -6.296  0.75 41.22     0.028 A 
ENDBRANCH   1   2
BRANCH   1  10
HETATM   10  C8    D T 502       5.997   1.067  -7.701  0.75 12.01     0.111 A 
HETATM   11  C9    D T 502       5.242   0.521  -8.715  0.75  7.59     0.081 A 
HETATM   12  C10   D T 502       5.724   0.430 -10.014  0.75  9.21     0.025 A 
HETATM   13 CL16   D T 502       3.642  -0.078  -8.377  0.75 22.03    -0.080 Cl
HETATM   14  C11   D T 502       7.011   0.912 -10.283  0.75 25.58     0.059 A 
HETATM   15  C12   D T 502       7.787   1.468  -9.266  0.75 18.79     0.013 A 
HETATM   16 CL15   D T 502       7.646   0.814 -11.889  0.75 35.46    -0.082 Cl
HETATM   17  C13   D T 502       7.257   1.539  -7.968  0.75  7.86     0.026 A 
ENDBRANCH   1  10
TORSDOF 2
ENDMDL
MODEL 9
REMARK VINA RESULT:    -6.884      1.972      6.214
REMARK INTER + INTRA:          -8.029
REMARK INTER:                  -7.497
REMARK INTRA:                  -0.532
REMARK UNBOUND:                -0.340
REMARK  2 active torsions:
REMARK  status: ('A' for Active; 'I' for Inactive)
REMARK    1  A    between atoms: C5_4  and  O7_13 
REMARK    2  A    between atoms: C8_10  and  O7_13 
ROOT
HETATM    1  O7    D T 502       5.904   0.780  -5.797  0.75  8.16    -0.304 OA
ENDROOT
BRANCH   1   2
HETATM    2  C5    D T 502       6.335   0.835  -7.178  0.75 10.64     0.125 A 
HETATM    3  C6    D T 502       5.674  -0.002  -8.096  0.75 18.74     0.154 A 
HETATM    4  C1    D T 502       6.065   0.022  -9.425  0.75 21.18     0.041 A 
HETATM    5  O17   D T 502       4.677  -0.813  -7.688  0.75  5.03    -0.188 OA
HETATM    6  C2    D T 502       7.072   0.864  -9.793  0.75  4.79     0.060 A 
HETATM    7  C3    D T 502       7.737   1.685  -8.907  0.75 38.32     0.014 A 
HETATM    8 CL14   D T 502       7.555   0.912 -11.450  0.75 13.77    -0.082 Cl
HETATM    9  C4    D T 502       7.323   1.642  -7.564  0.75 41.22     0.028 A 
ENDBRANCH   1   2
BRANCH   1  10
HETATM   10  C8    D T 502       5.175   1.836  -5.221  0.75 12.01     0.111 A 
HETATM   11  C9    D T 502       5.833   2.616  -4.296  0.75  7.59     0.081 A 
HETATM   12  C10   D T 502       5.207   3.683  -3.665  0.75  9.21     0.025 A 
HETATM   13 CL16   D T 502       7.492   2.268  -3.895  0.75 22.03    -0.080 Cl
HETATM   14  C11   D T 502       3.873   3.959  -3.989  0.75 25.58     0.059 A 
HETATM   15  C12   D T 502       3.193   3.178  -4.924  0.75 18.79     0.013 A 
HETATM   16 CL15   D T 502       3.060   5.279  -3.222  0.75 35.46    -0.082 Cl
HETATM   17  C13   D T 502       3.868   2.111  -5.536  0.75  7.86     0.026 A 
ENDBRANCH   1  10
TORSDOF 2
ENDMDL
