MODEL 1
REMARK VINA RESULT:      -8.0      0.000      0.000
REMARK  2 active torsions:
REMARK  status: ('A' for Active; 'I' for Inactive)
REMARK    1  A    between atoms: C5_4  and  O7_13 
REMARK    2  A    between atoms: C8_10  and  O7_13 
ROOT
HETATM    1  O7    D T 502       6.476  15.125 306.709  0.75  8.16    -0.304 OA
ENDROOT
BRANCH   1   2
HETATM    2  C5    D T 502       6.431  15.404 305.290  0.75 10.64     0.125 A 
HETATM    3  C6    D T 502       6.414  14.303 304.413  0.75 18.74     0.154 A 
HETATM    4  C1    D T 502       6.375  14.535 303.047  0.75 21.18     0.041 A 
HETATM    5  O17   D T 502       6.433  13.045 304.896  0.75  5.03    -0.188 OA
HETATM    6  C2    D T 502       6.348  15.825 302.606  0.75  4.79     0.060 A 
HETATM    7  C3    D T 502       6.374  16.915 303.448  0.75 38.32     0.014 A 
HETATM    8 CL14   D T 502       6.284  16.122 300.907  0.75 13.77    -0.082 Cl
HETATM    9  C4    D T 502       6.414  16.656 304.829  0.75 41.22     0.028 A 
ENDBRANCH   1   2
BRANCH   1  10
HETATM   10  C8    D T 502       5.422  15.509 307.559  0.75 12.01     0.111 A 
HETATM   11  C9    D T 502       5.753  15.823 308.858  0.75  7.59     0.081 A 
HETATM   12  C10   D T 502       4.790  16.212 309.780  0.75  9.21     0.025 A 
HETATM   13 CL16   D T 502       7.413  15.734 309.375  0.75 22.03    -0.080 Cl
HETATM   14  C11   D T 502       3.456  16.281 309.362  0.75 25.58     0.059 A 
HETATM   15  C12   D T 502       3.106  15.966 308.049  0.75 18.79     0.013 A 
HETATM   16 CL15   D T 502       2.229  16.760 310.484  0.75 35.46    -0.082 Cl
HETATM   17  C13   D T 502       4.114  15.578 307.152  0.75  7.86     0.026 A 
ENDBRANCH   1  10
TORSDOF 2
ENDMDL
MODEL 2
REMARK VINA RESULT:      -7.9      1.427      6.090
REMARK  2 active torsions:
REMARK  status: ('A' for Active; 'I' for Inactive)
REMARK    1  A    between atoms: C5_4  and  O7_13 
REMARK    2  A    between atoms: C8_10  and  O7_13 
ROOT
HETATM    1  O7    D T 502       6.546  15.077 306.535  0.75  8.16    -0.304 OA
ENDROOT
BRANCH   1   2
HETATM    2  C5    D T 502       5.499  15.478 307.450  0.75 10.64     0.125 A 
HETATM    3  C6    D T 502       5.883  15.845 308.753  0.75 18.74     0.154 A 
HETATM    4  C1    D T 502       4.905  16.231 309.655  0.75 21.18     0.041 A 
HETATM    5  O17   D T 502       7.181  15.823 309.115  0.75  5.03    -0.188 OA
HETATM    6  C2    D T 502       3.606  16.247 309.242  0.75  4.79     0.060 A 
HETATM    7  C3    D T 502       3.210  15.882 307.973  0.75 38.32     0.014 A 
HETATM    8 CL14   D T 502       2.383  16.741 310.355  0.75 13.77    -0.082 Cl
HETATM    9  C4    D T 502       4.219  15.494 307.075  0.75 41.22     0.028 A 
ENDBRANCH   1   2
BRANCH   1  10
HETATM   10  C8    D T 502       6.496  15.429 305.174  0.75 12.01     0.111 A 
HETATM   11  C9    D T 502       6.381  14.399 304.267  0.75  7.59     0.081 A 
HETATM   12  C10   D T 502       6.324  14.635 302.900  0.75  9.21     0.025 A 
HETATM   13 CL16   D T 502       6.304  12.754 304.832  0.75 22.03    -0.080 Cl
HETATM   14  C11   D T 502       6.388  15.959 302.449  0.75 25.58     0.059 A 
HETATM   15  C12   D T 502       6.505  17.013 303.355  0.75 18.79     0.013 A 
HETATM   16 CL15   D T 502       6.323  16.291 300.752  0.75 35.46    -0.082 Cl
HETATM   17  C13   D T 502       6.557  16.725 304.727  0.75  7.86     0.026 A 
ENDBRANCH   1  10
TORSDOF 2
ENDMDL
MODEL 3
REMARK VINA RESULT:      -7.9      1.809      6.082
REMARK  2 active torsions:
REMARK  status: ('A' for Active; 'I' for Inactive)
REMARK    1  A    between atoms: C5_4  and  O7_13 
REMARK    2  A    between atoms: C8_10  and  O7_13 
ROOT
HETATM    1  O7    D T 502       6.672  15.266 306.548  0.75  8.16    -0.304 OA
ENDROOT
BRANCH   1   2
HETATM    2  C5    D T 502       5.600  15.558 307.475  0.75 10.64     0.125 A 
HETATM    3  C6    D T 502       5.953  15.820 308.812  0.75 18.74     0.154 A 
HETATM    4  C1    D T 502       4.950  16.100 309.726  0.75 21.18     0.041 A 
HETATM    5  O17   D T 502       7.245  15.801 309.194  0.75  5.03    -0.188 OA
HETATM    6  C2    D T 502       3.658  16.117 309.292  0.75  4.79     0.060 A 
HETATM    7  C3    D T 502       3.292  15.854 307.990  0.75 38.32     0.014 A 
HETATM    8 CL14   D T 502       2.404  16.480 310.422  0.75 13.77    -0.082 Cl
HETATM    9  C4    D T 502       4.326  15.573 307.079  0.75 41.22     0.028 A 
ENDBRANCH   1   2
BRANCH   1  10
HETATM   10  C8    D T 502       6.427  14.569 305.350  0.75 12.01     0.111 A 
HETATM   11  C9    D T 502       6.391  15.314 304.192  0.75  7.59     0.081 A 
HETATM   12  C10   D T 502       6.155  14.727 302.956  0.75  9.21     0.025 A 
HETATM   13 CL16   D T 502       6.643  17.035 304.263  0.75 22.03    -0.080 Cl
HETATM   14  C11   D T 502       5.951  13.343 302.903  0.75 25.58     0.059 A 
HETATM   15  C12   D T 502       5.985  12.575 304.067  0.75 18.79     0.013 A 
HETATM   16 CL15   D T 502       5.652  12.578 301.381  0.75 35.46    -0.082 Cl
HETATM   17  C13   D T 502       6.228  13.213 305.294  0.75  7.86     0.026 A 
ENDBRANCH   1  10
TORSDOF 2
ENDMDL
MODEL 4
REMARK VINA RESULT:      -7.8      9.565     12.635
REMARK  2 active torsions:
REMARK  status: ('A' for Active; 'I' for Inactive)
REMARK    1  A    between atoms: C5_4  and  O7_13 
REMARK    2  A    between atoms: C8_10  and  O7_13 
ROOT
HETATM    1  O7    D T 502       4.428  24.269 299.010  0.75  8.16    -0.304 OA
ENDROOT
BRANCH   1   2
HETATM    2  C5    D T 502       5.447  23.303 299.363  0.75 10.64     0.125 A 
HETATM    3  C6    D T 502       6.354  23.661 300.378  0.75 18.74     0.154 A 
HETATM    4  C1    D T 502       7.345  22.761 300.738  0.75 21.18     0.041 A 
HETATM    5  O17   D T 502       6.258  24.858 300.989  0.75  5.03    -0.188 OA
HETATM    6  C2    D T 502       7.397  21.558 300.098  0.75  4.79     0.060 A 
HETATM    7  C3    D T 502       6.524  21.194 299.096  0.75 38.32     0.014 A 
HETATM    8 CL14   D T 502       8.618  20.426 300.551  0.75 13.77    -0.082 Cl
HETATM    9  C4    D T 502       5.527  22.123 298.747  0.75 41.22     0.028 A 
ENDBRANCH   1   2
BRANCH   1  10
HETATM   10  C8    D T 502       4.012  24.430 297.675  0.75 12.01     0.111 A 
HETATM   11  C9    D T 502       4.918  24.997 296.805  0.75  7.59     0.081 A 
HETATM   12  C10   D T 502       4.610  25.204 295.467  0.75  9.21     0.025 A 
HETATM   13 CL16   D T 502       6.490  25.473 297.382  0.75 22.03    -0.080 Cl
HETATM   14  C11   D T 502       3.344  24.821 295.007  0.75 25.58     0.059 A 
HETATM   15  C12   D T 502       2.417  24.246 295.876  0.75 18.79     0.013 A 
HETATM   16 CL15   D T 502       2.925  25.065 293.347  0.75 35.46    -0.082 Cl
HETATM   17  C13   D T 502       2.773  24.056 297.220  0.75  7.86     0.026 A 
ENDBRANCH   1  10
TORSDOF 2
ENDMDL
MODEL 5
REMARK VINA RESULT:      -7.7      9.617     12.042
REMARK  2 active torsions:
REMARK  status: ('A' for Active; 'I' for Inactive)
REMARK    1  A    between atoms: C5_4  and  O7_13 
REMARK    2  A    between atoms: C8_10  and  O7_13 
ROOT
HETATM    1  O7    D T 502       4.677  24.111 298.622  0.75  8.16    -0.304 OA
ENDROOT
BRANCH   1   2
HETATM    2  C5    D T 502       4.159  24.370 297.296  0.75 10.64     0.125 A 
HETATM    3  C6    D T 502       5.081  24.753 296.303  0.75 18.74     0.154 A 
HETATM    4  C1    D T 502       4.618  25.013 295.024  0.75 21.18     0.041 A 
HETATM    5  O17   D T 502       6.392  24.862 296.595  0.75  5.03    -0.188 OA
HETATM    6  C2    D T 502       3.284  24.881 294.773  0.75  4.79     0.060 A 
HETATM    7  C3    D T 502       2.365  24.516 295.734  0.75 38.32     0.014 A 
HETATM    8 CL14   D T 502       2.701  25.188 293.178  0.75 13.77    -0.082 Cl
HETATM    9  C4    D T 502       2.858  24.258 297.025  0.75 41.22     0.028 A 
ENDBRANCH   1   2
BRANCH   1  10
HETATM   10  C8    D T 502       5.213  22.854 298.959  0.75 12.01     0.111 A 
HETATM   11  C9    D T 502       6.465  22.846 299.534  0.75  7.59     0.081 A 
HETATM   12  C10   D T 502       7.088  21.661 299.904  0.75  9.21     0.025 A 
HETATM   13 CL16   D T 502       7.301  24.348 299.808  0.75 22.03    -0.080 Cl
HETATM   14  C11   D T 502       6.412  20.455 299.681  0.75 25.58     0.059 A 
HETATM   15  C12   D T 502       5.144  20.448 299.100  0.75 18.79     0.013 A 
HETATM   16 CL15   D T 502       7.158  18.959 300.127  0.75 35.46    -0.082 Cl
HETATM   17  C13   D T 502       4.554  21.670 298.743  0.75  7.86     0.026 A 
ENDBRANCH   1  10
TORSDOF 2
ENDMDL
MODEL 6
REMARK VINA RESULT:      -7.7      1.876      2.091
REMARK  2 active torsions:
REMARK  status: ('A' for Active; 'I' for Inactive)
REMARK    1  A    between atoms: C5_4  and  O7_13 
REMARK    2  A    between atoms: C8_10  and  O7_13 
ROOT
HETATM    1  O7    D T 502       5.815  15.891 306.057  0.75  8.16    -0.304 OA
ENDROOT
BRANCH   1   2
HETATM    2  C5    D T 502       5.636  14.792 305.133  0.75 10.64     0.125 A 
HETATM    3  C6    D T 502       6.572  13.741 305.186  0.75 18.74     0.154 A 
HETATM    4  C1    D T 502       6.431  12.676 304.312  0.75 21.18     0.041 A 
HETATM    5  O17   D T 502       7.585  13.773 306.074  0.75  5.03    -0.188 OA
HETATM    6  C2    D T 502       5.386  12.683 303.437  0.75  4.79     0.060 A 
HETATM    7  C3    D T 502       4.466  13.706 303.364  0.75 38.32     0.014 A 
HETATM    8 CL14   D T 502       5.195  11.352 302.356  0.75 13.77    -0.082 Cl
HETATM    9  C4    D T 502       4.628  14.778 304.260  0.75 41.22     0.028 A 
ENDBRANCH   1   2
BRANCH   1  10
HETATM   10  C8    D T 502       4.901  16.118 307.102  0.75 12.01     0.111 A 
HETATM   11  C9    D T 502       5.373  15.967 308.387  0.75  7.59     0.081 A 
HETATM   12  C10   D T 502       4.555  16.165 309.491  0.75  9.21     0.025 A 
HETATM   13 CL16   D T 502       7.034  15.514 308.651  0.75 22.03    -0.080 Cl
HETATM   14  C11   D T 502       3.220  16.528 309.275  0.75 25.58     0.059 A 
HETATM   15  C12   D T 502       2.727  16.685 307.980  0.75 18.79     0.013 A 
HETATM   16 CL15   D T 502       2.171  16.781 310.627  0.75 35.46    -0.082 Cl
HETATM   17  C13   D T 502       3.592  16.475 306.895  0.75  7.86     0.026 A 
ENDBRANCH   1  10
TORSDOF 2
ENDMDL
MODEL 7
REMARK VINA RESULT:      -7.5      9.090     11.590
REMARK  2 active torsions:
REMARK  status: ('A' for Active; 'I' for Inactive)
REMARK    1  A    between atoms: C5_4  and  O7_13 
REMARK    2  A    between atoms: C8_10  and  O7_13 
ROOT
HETATM    1  O7    D T 502       4.669  23.605 299.071  0.75  8.16    -0.304 OA
ENDROOT
BRANCH   1   2
HETATM    2  C5    D T 502       4.293  23.992 297.729  0.75 10.64     0.125 A 
HETATM    3  C6    D T 502       2.985  23.683 297.307  0.75 18.74     0.154 A 
HETATM    4  C1    D T 502       2.595  24.036 296.025  0.75 21.18     0.041 A 
HETATM    5  O17   D T 502       2.130  23.055 298.138  0.75  5.03    -0.188 OA
HETATM    6  C2    D T 502       3.491  24.678 295.224  0.75  4.79     0.060 A 
HETATM    7  C3    D T 502       4.777  24.980 295.615  0.75 38.32     0.014 A 
HETATM    8 CL14   D T 502       3.007  25.134 293.631  0.75 13.77    -0.082 Cl
HETATM    9  C4    D T 502       5.153  24.612 296.919  0.75 41.22     0.028 A 
ENDBRANCH   1   2
BRANCH   1  10
HETATM   10  C8    D T 502       5.430  22.445 299.307  0.75 12.01     0.111 A 
HETATM   11  C9    D T 502       6.741  22.628 299.689  0.75  7.59     0.081 A 
HETATM   12  C10   D T 502       7.580  21.552 299.945  0.75  9.21     0.025 A 
HETATM   13 CL16   D T 502       7.376  24.240 299.859  0.75 22.03    -0.080 Cl
HETATM   14  C11   D T 502       7.066  20.257 299.807  0.75 25.58     0.059 A 
HETATM   15  C12   D T 502       5.741  20.057 299.420  0.75 18.79     0.013 A 
HETATM   16 CL15   D T 502       8.084  18.893 300.115  0.75 35.46    -0.082 Cl
HETATM   17  C13   D T 502       4.930  21.175 299.173  0.75  7.86     0.026 A 
ENDBRANCH   1  10
TORSDOF 2
ENDMDL
MODEL 8
REMARK VINA RESULT:      -7.5      9.154     12.194
REMARK  2 active torsions:
REMARK  status: ('A' for Active; 'I' for Inactive)
REMARK    1  A    between atoms: C5_4  and  O7_13 
REMARK    2  A    between atoms: C8_10  and  O7_13 
ROOT
HETATM    1  O7    D T 502       4.809  23.975 299.277  0.75  8.16    -0.304 OA
ENDROOT
BRANCH   1   2
HETATM    2  C5    D T 502       5.802  22.966 299.579  0.75 10.64     0.125 A 
HETATM    3  C6    D T 502       6.524  23.106 300.779  0.75 18.74     0.154 A 
HETATM    4  C1    D T 502       7.485  22.159 301.096  0.75 21.18     0.041 A 
HETATM    5  O17   D T 502       6.283  24.143 301.604  0.75  5.03    -0.188 OA
HETATM    6  C2    D T 502       7.687  21.121 300.235  0.75  4.79     0.060 A 
HETATM    7  C3    D T 502       6.997  20.972 299.051  0.75 38.32     0.014 A 
HETATM    8 CL14   D T 502       8.871  19.929 300.630  0.75 13.77    -0.082 Cl
HETATM    9  C4    D T 502       6.027  21.945 298.750  0.75 41.22     0.028 A 
ENDBRANCH   1   2
BRANCH   1  10
HETATM   10  C8    D T 502       4.434  24.250 297.949  0.75 12.01     0.111 A 
HETATM   11  C9    D T 502       3.189  23.815 297.551  0.75  7.59     0.081 A 
HETATM   12  C10   D T 502       2.721  24.032 296.262  0.75  9.21     0.025 A 
HETATM   13 CL16   D T 502       2.168  22.968 298.677  0.75 22.03    -0.080 Cl
HETATM   14  C11   D T 502       3.546  24.713 295.358  0.75 25.58     0.059 A 
HETATM   15  C12   D T 502       4.808  25.160 295.747  0.75 18.79     0.013 A 
HETATM   16 CL15   D T 502       2.995  25.000 293.743  0.75 35.46    -0.082 Cl
HETATM   17  C13   D T 502       5.239  24.917 297.060  0.75  7.86     0.026 A 
ENDBRANCH   1  10
TORSDOF 2
ENDMDL
MODEL 9
REMARK VINA RESULT:      -7.4      8.339     11.312
REMARK  2 active torsions:
REMARK  status: ('A' for Active; 'I' for Inactive)
REMARK    1  A    between atoms: C5_4  and  O7_13 
REMARK    2  A    between atoms: C8_10  and  O7_13 
ROOT
HETATM    1  O7    D T 502       5.560  23.952 300.256  0.75  8.16    -0.304 OA
ENDROOT
BRANCH   1   2
HETATM    2  C5    D T 502       6.403  22.790 300.437  0.75 10.64     0.125 A 
HETATM    3  C6    D T 502       6.860  22.517 301.741  0.75 18.74     0.154 A 
HETATM    4  C1    D T 502       7.673  21.414 301.948  0.75 21.18     0.041 A 
HETATM    5  O17   D T 502       6.511  23.315 302.768  0.75  5.03    -0.188 OA
HETATM    6  C2    D T 502       7.993  20.629 300.879  0.75  4.79     0.060 A 
HETATM    7  C3    D T 502       7.563  20.886 299.595  0.75 38.32     0.014 A 
HETATM    8 CL14   D T 502       8.992  19.245 301.132  0.75 13.77    -0.082 Cl
HETATM    9  C4    D T 502       6.740  22.011 299.408  0.75 41.22     0.028 A 
ENDBRANCH   1   2
BRANCH   1  10
HETATM   10  C8    D T 502       4.709  24.066 299.142  0.75 12.01     0.111 A 
HETATM   11  C9    D T 502       5.157  24.837 298.093  0.75  7.59     0.081 A 
HETATM   12  C10   D T 502       4.396  25.018 296.945  0.75  9.21     0.025 A 
HETATM   13 CL16   D T 502       6.712  25.614 298.191  0.75 22.03    -0.080 Cl
HETATM   14  C11   D T 502       3.145  24.392 296.870  0.75 25.58     0.059 A 
HETATM   15  C12   D T 502       2.679  23.608 297.924  0.75 18.79     0.013 A 
HETATM   16 CL15   D T 502       2.169  24.596 295.456  0.75 35.46    -0.082 Cl
HETATM   17  C13   D T 502       3.484  23.454 299.064  0.75  7.86     0.026 A 
ENDBRANCH   1  10
TORSDOF 2
ENDMDL
