MODEL 1
REMARK VINA RESULT:    -7.782      0.000      0.000
REMARK INTER + INTRA:         -11.308
REMARK INTER:                 -10.512
REMARK INTRA:                  -0.797
REMARK UNBOUND:                -0.797
REMARK  6 active torsions:
REMARK  status: ('A' for Active; 'I' for Inactive)
REMARK    1  A    between atoms: N6_6  and  O7_7 
REMARK    2  A    between atoms: O7_7  and  C8_8 
REMARK    3  A    between atoms: C8_8  and  C9_9 
REMARK    4  A    between atoms: C9_9  and  C10_10 
REMARK    5  A    between atoms: C10_10  and  O11_11 
REMARK    6  A    between atoms: O11_11  and  C12_12 
ROOT
HETATM    1  C8    D T 609     -20.600   6.463  11.656  1.00 42.96     0.177 C 
ENDROOT
BRANCH   1   2
HETATM    2  O7    D T 609     -22.015   6.629  12.167  1.00 45.57    -0.242 OA
BRANCH   2   3
HETATM    3  N6    D T 609     -22.914   7.672  11.619  1.00 35.78    -0.046 N 
HETATM    4  C1    D T 609     -24.205   7.132  11.056  1.00 32.37     0.209 C 
HETATM    5  N2    D T 609     -25.018   8.203  10.411  1.00 31.22    -0.064 NA
HETATM    6  CM1   D T 609     -23.891   6.027  10.034  1.00 29.06     0.051 C 
HETATM    7  CM2   D T 609     -25.023   6.498  12.203  1.00 32.53     0.051 C 
HETATM    8  C3    D T 609     -24.803   9.497  10.682  1.00 33.38     0.781 C 
HETATM    9  N4    D T 609     -23.819   9.874  11.550  1.00 32.85     0.137 NA
HETATM   10  NH1   D T 609     -25.572  10.431  10.093  1.00 33.22     0.062 N 
HETATM   11  C5    D T 609     -22.885   8.992  12.019  1.00 34.53     0.785 C 
HETATM   12  NH2   D T 609     -21.968   9.423  12.852  1.00 32.63     0.063 N 
ENDBRANCH   2   3
ENDBRANCH   1   2
BRANCH   1  13
HETATM   13  C9    D T 609     -19.719   6.122  12.935  1.00 41.72     0.068 C 
BRANCH  13  14
HETATM   14  C10   D T 609     -19.102   4.654  12.727  1.00 44.58     0.151 C 
BRANCH  14  15
HETATM   15  O11   D T 609     -20.041   3.880  11.881  1.00 45.50    -0.334 OA
BRANCH  15  16
HETATM   16  C12   D T 609     -20.864   2.899  12.547  1.00 41.06     0.084 A 
HETATM   17  C13   D T 609     -20.529   1.488  12.361  1.00 38.83     0.059 A 
HETATM   18  C14   D T 609     -21.316   0.456  12.970  1.00 39.01     0.078 A 
HETATM   19 CL1    D T 609     -19.172   1.047  11.389  1.00 34.26    -0.085 Cl
HETATM   20  C15   D T 609     -22.474   0.791  13.778  1.00 39.27     0.048 A 
HETATM   21  C16   D T 609     -22.828   2.209  13.984  1.00 40.25     0.049 A 
HETATM   22 CL2    D T 609     -23.428  -0.519  14.482  1.00 32.41    -0.086 Cl
HETATM   23  C17   D T 609     -22.015   3.255  13.369  1.00 40.73     0.090 A 
HETATM   24 CL3    D T 609     -24.239   2.677  14.965  1.00 40.57    -0.086 Cl
ENDBRANCH  15  16
ENDBRANCH  14  15
ENDBRANCH  13  14
ENDBRANCH   1  13
TORSDOF 6
ENDMDL
MODEL 2
REMARK VINA RESULT:    -7.575      1.844      2.254
REMARK INTER + INTRA:         -11.028
REMARK INTER:                  -9.855
REMARK INTRA:                  -1.173
REMARK UNBOUND:                -0.797
REMARK  6 active torsions:
REMARK  status: ('A' for Active; 'I' for Inactive)
REMARK    1  A    between atoms: N6_6  and  O7_7 
REMARK    2  A    between atoms: O7_7  and  C8_8 
REMARK    3  A    between atoms: C8_8  and  C9_9 
REMARK    4  A    between atoms: C9_9  and  C10_10 
REMARK    5  A    between atoms: C10_10  and  O11_11 
REMARK    6  A    between atoms: O11_11  and  C12_12 
ROOT
HETATM    1  C8    D T 609     -20.024   5.170  11.169  1.00 42.96     0.177 C 
ENDROOT
BRANCH   1   2
HETATM    2  O7    D T 609     -21.040   5.079  12.287  1.00 45.57    -0.242 OA
BRANCH   2   3
HETATM    3  N6    D T 609     -22.347   5.770  12.197  1.00 35.78    -0.046 N 
HETATM    4  C1    D T 609     -23.529   4.883  12.504  1.00 32.37     0.209 C 
HETATM    5  N2    D T 609     -24.823   5.591  12.284  1.00 31.22    -0.064 NA
HETATM    6  CM1   D T 609     -23.464   3.626  11.623  1.00 29.06     0.051 C 
HETATM    7  CM2   D T 609     -23.444   4.432  13.980  1.00 32.53     0.051 C 
HETATM    8  C3    D T 609     -24.884   6.927  12.231  1.00 33.38     0.781 C 
HETATM    9  N4    D T 609     -23.756   7.684  12.365  1.00 32.85     0.137 NA
HETATM   10  NH1   D T 609     -26.075   7.526  12.050  1.00 33.22     0.062 N 
HETATM   11  C5    D T 609     -22.505   7.132  12.350  1.00 34.53     0.785 C 
HETATM   12  NH2   D T 609     -21.463   7.918  12.484  1.00 32.63     0.063 N 
ENDBRANCH   2   3
ENDBRANCH   1   2
BRANCH   1  13
HETATM   13  C9    D T 609     -18.631   4.766  11.820  1.00 41.72     0.068 C 
BRANCH  13  14
HETATM   14  C10   D T 609     -18.905   4.360  13.350  1.00 44.58     0.151 C 
BRANCH  14  15
HETATM   15  O11   D T 609     -18.489   2.949  13.528  1.00 45.50    -0.334 OA
BRANCH  15  16
HETATM   16  C12   D T 609     -19.488   1.936  13.282  1.00 41.06     0.084 A 
HETATM   17  C13   D T 609     -19.187   0.908  12.288  1.00 38.83     0.059 A 
HETATM   18  C14   D T 609     -20.141  -0.116  11.973  1.00 39.01     0.078 A 
HETATM   19 CL1    D T 609     -17.666   0.919  11.471  1.00 34.26    -0.085 Cl
HETATM   20  C15   D T 609     -21.436  -0.144  12.626  1.00 39.27     0.048 A 
HETATM   21  C16   D T 609     -21.760   0.882  13.637  1.00 40.25     0.049 A 
HETATM   22 CL2    D T 609     -22.587  -1.407  12.180  1.00 32.41    -0.086 Cl
HETATM   23  C17   D T 609     -20.779   1.915  13.961  1.00 40.73     0.090 A 
HETATM   24 CL3    D T 609     -23.334   0.896  14.470  1.00 40.57    -0.086 Cl
ENDBRANCH  15  16
ENDBRANCH  14  15
ENDBRANCH  13  14
ENDBRANCH   1  13
TORSDOF 6
ENDMDL
MODEL 3
REMARK VINA RESULT:    -7.268      2.436      4.030
REMARK INTER + INTRA:         -10.614
REMARK INTER:                 -10.091
REMARK INTRA:                  -0.523
REMARK UNBOUND:                -0.797
REMARK  6 active torsions:
REMARK  status: ('A' for Active; 'I' for Inactive)
REMARK    1  A    between atoms: N6_6  and  O7_7 
REMARK    2  A    between atoms: O7_7  and  C8_8 
REMARK    3  A    between atoms: C8_8  and  C9_9 
REMARK    4  A    between atoms: C9_9  and  C10_10 
REMARK    5  A    between atoms: C10_10  and  O11_11 
REMARK    6  A    between atoms: O11_11  and  C12_12 
ROOT
HETATM    1  C8    D T 609     -24.407   5.465  12.482  1.00 42.96     0.177 C 
ENDROOT
BRANCH   1   2
HETATM    2  O7    D T 609     -24.165   6.797  11.805  1.00 45.57    -0.242 OA
BRANCH   2   3
HETATM    3  N6    D T 609     -24.534   8.073  12.462  1.00 35.78    -0.046 N 
HETATM    4  C1    D T 609     -23.402   9.067  12.549  1.00 32.37     0.209 C 
HETATM    5  N2    D T 609     -23.790  10.281  13.322  1.00 31.22    -0.064 NA
HETATM    6  CM1   D T 609     -22.186   8.394  13.207  1.00 29.06     0.051 C 
HETATM    7  CM2   D T 609     -22.994   9.485  11.119  1.00 32.53     0.051 C 
HETATM    8  C3    D T 609     -25.076  10.593  13.527  1.00 33.38     0.781 C 
HETATM    9  N4    D T 609     -26.073   9.796  13.043  1.00 32.85     0.137 NA
HETATM   10  NH1   D T 609     -25.382  11.709  14.213  1.00 33.22     0.062 N 
HETATM   11  C5    D T 609     -25.825   8.558  12.518  1.00 34.53     0.785 C 
HETATM   12  NH2   D T 609     -26.831   7.845  12.071  1.00 32.63     0.063 N 
ENDBRANCH   2   3
ENDBRANCH   1   2
BRANCH   1  13
HETATM   13  C9    D T 609     -24.459   4.392  11.311  1.00 41.72     0.068 C 
BRANCH  13  14
HETATM   14  C10   D T 609     -23.269   3.341  11.556  1.00 44.58     0.151 C 
BRANCH  14  15
HETATM   15  O11   D T 609     -22.124   4.078  12.139  1.00 45.50    -0.334 OA
BRANCH  15  16
HETATM   16  C12   D T 609     -20.896   3.341  12.321  1.00 41.06     0.084 A 
HETATM   17  C13   D T 609     -19.763   4.039  12.926  1.00 38.83     0.059 A 
HETATM   18  C14   D T 609     -18.505   3.380  13.115  1.00 39.01     0.078 A 
HETATM   19 CL1    D T 609     -19.931   5.686  13.417  1.00 34.26    -0.085 Cl
HETATM   20  C15   D T 609     -18.323   2.003  12.695  1.00 39.27     0.048 A 
HETATM   21  C16   D T 609     -19.455   1.275  12.087  1.00 40.25     0.049 A 
HETATM   22 CL2    D T 609     -16.744   1.245  12.923  1.00 32.41    -0.086 Cl
HETATM   23  C17   D T 609     -20.738   1.951  11.908  1.00 40.73     0.090 A 
HETATM   24 CL3    D T 609     -19.288  -0.416  11.553  1.00 40.57    -0.086 Cl
ENDBRANCH  15  16
ENDBRANCH  14  15
ENDBRANCH  13  14
ENDBRANCH   1  13
TORSDOF 6
ENDMDL
MODEL 4
REMARK VINA RESULT:    -7.257      4.090      6.951
REMARK INTER + INTRA:         -10.599
REMARK INTER:                  -9.833
REMARK INTRA:                  -0.767
REMARK UNBOUND:                -0.797
REMARK  6 active torsions:
REMARK  status: ('A' for Active; 'I' for Inactive)
REMARK    1  A    between atoms: N6_6  and  O7_7 
REMARK    2  A    between atoms: O7_7  and  C8_8 
REMARK    3  A    between atoms: C8_8  and  C9_9 
REMARK    4  A    between atoms: C9_9  and  C10_10 
REMARK    5  A    between atoms: C10_10  and  O11_11 
REMARK    6  A    between atoms: O11_11  and  C12_12 
ROOT
HETATM    1  C8    D T 609     -20.323   5.258  12.229  1.00 42.96     0.177 C 
ENDROOT
BRANCH   1   2
HETATM    2  O7    D T 609     -21.126   4.179  12.923  1.00 45.57    -0.242 OA
BRANCH   2   3
HETATM    3  N6    D T 609     -22.156   3.400  12.198  1.00 35.78    -0.046 N 
HETATM    4  C1    D T 609     -21.767   1.966  11.935  1.00 32.37     0.209 C 
HETATM    5  N2    D T 609     -22.782   1.260  11.101  1.00 31.22    -0.064 NA
HETATM    6  CM1   D T 609     -20.399   1.931  11.235  1.00 29.06     0.051 C 
HETATM    7  CM2   D T 609     -21.625   1.232  13.287  1.00 32.53     0.051 C 
HETATM    8  C3    D T 609     -24.030   1.731  10.980  1.00 33.38     0.781 C 
HETATM    9  N4    D T 609     -24.406   2.882  11.609  1.00 32.85     0.137 NA
HETATM   10  NH1   D T 609     -24.920   1.053  10.233  1.00 33.22     0.062 N 
HETATM   11  C5    D T 609     -23.501   3.712  12.211  1.00 34.53     0.785 C 
HETATM   12  NH2   D T 609     -23.931   4.803  12.797  1.00 32.63     0.063 N 
ENDBRANCH   2   3
ENDBRANCH   1   2
BRANCH   1  13
HETATM   13  C9    D T 609     -20.069   6.378  13.328  1.00 41.72     0.068 C 
BRANCH  13  14
HETATM   14  C10   D T 609     -21.414   7.247  13.461  1.00 44.58     0.151 C 
BRANCH  14  15
HETATM   15  O11   D T 609     -21.924   7.507  12.094  1.00 45.50    -0.334 OA
BRANCH  15  16
HETATM   16  C12   D T 609     -23.079   8.366  11.980  1.00 41.06     0.084 A 
HETATM   17  C13   D T 609     -24.015   8.110  10.888  1.00 38.83     0.059 A 
HETATM   18  C14   D T 609     -25.171   8.937  10.697  1.00 39.01     0.078 A 
HETATM   19 CL1    D T 609     -23.730   6.800   9.800  1.00 34.26    -0.085 Cl
HETATM   20  C15   D T 609     -25.430  10.058  11.580  1.00 39.27     0.048 A 
HETATM   21  C16   D T 609     -24.501  10.333  12.694  1.00 40.25     0.049 A 
HETATM   22 CL2    D T 609     -26.852  11.064  11.284  1.00 32.41    -0.086 Cl
HETATM   23  C17   D T 609     -23.332   9.479  12.889  1.00 40.73     0.090 A 
HETATM   24 CL3    D T 609     -24.770  11.696  13.808  1.00 40.57    -0.086 Cl
ENDBRANCH  15  16
ENDBRANCH  14  15
ENDBRANCH  13  14
ENDBRANCH   1  13
TORSDOF 6
ENDMDL
MODEL 5
REMARK VINA RESULT:    -7.243      4.635      7.827
REMARK INTER + INTRA:         -10.580
REMARK INTER:                 -10.160
REMARK INTRA:                  -0.420
REMARK UNBOUND:                -0.797
REMARK  6 active torsions:
REMARK  status: ('A' for Active; 'I' for Inactive)
REMARK    1  A    between atoms: N6_6  and  O7_7 
REMARK    2  A    between atoms: O7_7  and  C8_8 
REMARK    3  A    between atoms: C8_8  and  C9_9 
REMARK    4  A    between atoms: C9_9  and  C10_10 
REMARK    5  A    between atoms: C10_10  and  O11_11 
REMARK    6  A    between atoms: O11_11  and  C12_12 
ROOT
HETATM    1  C8    D T 609     -21.504   5.273  13.267  1.00 42.96     0.177 C 
ENDROOT
BRANCH   1   2
HETATM    2  O7    D T 609     -21.355   4.322  12.098  1.00 45.57    -0.242 OA
BRANCH   2   3
HETATM    3  N6    D T 609     -20.261   3.324  12.052  1.00 35.78    -0.046 N 
HETATM    4  C1    D T 609     -20.693   1.925  12.417  1.00 32.37     0.209 C 
HETATM    5  N2    D T 609     -19.537   0.986  12.472  1.00 31.22    -0.064 NA
HETATM    6  CM1   D T 609     -21.410   1.953  13.777  1.00 29.06     0.051 C 
HETATM    7  CM2   D T 609     -21.703   1.424  11.360  1.00 32.53     0.051 C 
HETATM    8  C3    D T 609     -18.375   1.277  11.873  1.00 33.38     0.781 C 
HETATM    9  N4    D T 609     -18.212   2.456  11.203  1.00 32.85     0.137 NA
HETATM   10  NH1   D T 609     -17.363   0.393  11.931  1.00 33.22     0.062 N 
HETATM   11  C5    D T 609     -19.126   3.469  11.280  1.00 34.53     0.785 C 
HETATM   12  NH2   D T 609     -18.906   4.575  10.610  1.00 32.63     0.063 N 
ENDBRANCH   2   3
ENDBRANCH   1   2
BRANCH   1  13
HETATM   13  C9    D T 609     -20.460   6.442  13.005  1.00 41.72     0.068 C 
BRANCH  13  14
HETATM   14  C10   D T 609     -21.291   7.799  12.782  1.00 44.58     0.151 C 
BRANCH  14  15
HETATM   15  O11   D T 609     -22.728   7.490  12.972  1.00 45.50    -0.334 OA
BRANCH  15  16
HETATM   16  C12   D T 609     -23.676   8.459  12.479  1.00 41.06     0.084 A 
HETATM   17  C13   D T 609     -24.229   8.255  11.142  1.00 38.83     0.059 A 
HETATM   18  C14   D T 609     -25.158   9.190  10.576  1.00 39.01     0.078 A 
HETATM   19 CL1    D T 609     -23.760   6.873  10.220  1.00 34.26    -0.085 Cl
HETATM   20  C15   D T 609     -25.558  10.371  11.317  1.00 39.27     0.048 A 
HETATM   21  C16   D T 609     -25.016  10.597  12.672  1.00 40.25     0.049 A 
HETATM   22 CL2    D T 609     -26.681  11.508  10.563  1.00 32.41    -0.086 Cl
HETATM   23  C17   D T 609     -24.080   9.634  13.246  1.00 40.73     0.090 A 
HETATM   24 CL3    D T 609     -25.474  12.030  13.625  1.00 40.57    -0.086 Cl
ENDBRANCH  15  16
ENDBRANCH  14  15
ENDBRANCH  13  14
ENDBRANCH   1  13
TORSDOF 6
ENDMDL
MODEL 6
REMARK VINA RESULT:    -7.215      2.106      3.903
REMARK INTER + INTRA:         -10.543
REMARK INTER:                 -10.172
REMARK INTRA:                  -0.371
REMARK UNBOUND:                -0.797
REMARK  6 active torsions:
REMARK  status: ('A' for Active; 'I' for Inactive)
REMARK    1  A    between atoms: N6_6  and  O7_7 
REMARK    2  A    between atoms: O7_7  and  C8_8 
REMARK    3  A    between atoms: C8_8  and  C9_9 
REMARK    4  A    between atoms: C9_9  and  C10_10 
REMARK    5  A    between atoms: C10_10  and  O11_11 
REMARK    6  A    between atoms: O11_11  and  C12_12 
ROOT
HETATM    1  C8    D T 609     -24.474   5.483  12.521  1.00 42.96     0.177 C 
ENDROOT
BRANCH   1   2
HETATM    2  O7    D T 609     -24.275   6.804  11.809  1.00 45.57    -0.242 OA
BRANCH   2   3
HETATM    3  N6    D T 609     -24.610   8.089  12.464  1.00 35.78    -0.046 N 
HETATM    4  C1    D T 609     -23.460   9.065  12.519  1.00 32.37     0.209 C 
HETATM    5  N2    D T 609     -23.811  10.291  13.291  1.00 31.22    -0.064 NA
HETATM    6  CM1   D T 609     -22.241   8.378  13.154  1.00 29.06     0.051 C 
HETATM    7  CM2   D T 609     -23.079   9.468  11.077  1.00 32.53     0.051 C 
HETATM    8  C3    D T 609     -25.087  10.625  13.522  1.00 33.38     0.781 C 
HETATM    9  N4    D T 609     -26.108   9.841  13.067  1.00 32.85     0.137 NA
HETATM   10  NH1   D T 609     -25.361  11.750  14.208  1.00 33.22     0.062 N 
HETATM   11  C5    D T 609     -25.891   8.596  12.546  1.00 34.53     0.785 C 
HETATM   12  NH2   D T 609     -26.918   7.896  12.126  1.00 32.63     0.063 N 
ENDBRANCH   2   3
ENDBRANCH   1   2
BRANCH   1  13
HETATM   13  C9    D T 609     -24.288   4.363  11.408  1.00 41.72     0.068 C 
BRANCH  13  14
HETATM   14  C10   D T 609     -24.555   2.938  12.099  1.00 44.58     0.151 C 
BRANCH  14  15
HETATM   15  O11   D T 609     -23.529   2.741  13.150  1.00 45.50    -0.334 OA
BRANCH  15  16
HETATM   16  C12   D T 609     -22.256   2.206  12.729  1.00 41.06     0.084 A 
HETATM   17  C13   D T 609     -21.964   0.810  13.047  1.00 38.83     0.059 A 
HETATM   18  C14   D T 609     -20.710   0.216  12.683  1.00 39.01     0.078 A 
HETATM   19 CL1    D T 609     -23.136  -0.146  13.880  1.00 34.26    -0.085 Cl
HETATM   20  C15   D T 609     -19.696   0.997  12.000  1.00 39.27     0.048 A 
HETATM   21  C16   D T 609     -19.970   2.408  11.663  1.00 40.25     0.049 A 
HETATM   22 CL2    D T 609     -18.156   0.227  11.600  1.00 32.41    -0.086 Cl
HETATM   23  C17   D T 609     -21.254   3.002  12.028  1.00 40.73     0.090 A 
HETATM   24 CL3    D T 609     -18.761   3.412  10.826  1.00 40.57    -0.086 Cl
ENDBRANCH  15  16
ENDBRANCH  14  15
ENDBRANCH  13  14
ENDBRANCH   1  13
TORSDOF 6
ENDMDL
MODEL 7
REMARK VINA RESULT:    -7.130      4.629      7.478
REMARK INTER + INTRA:         -10.428
REMARK INTER:                  -9.762
REMARK INTRA:                  -0.666
REMARK UNBOUND:                -0.797
REMARK  6 active torsions:
REMARK  status: ('A' for Active; 'I' for Inactive)
REMARK    1  A    between atoms: N6_6  and  O7_7 
REMARK    2  A    between atoms: O7_7  and  C8_8 
REMARK    3  A    between atoms: C8_8  and  C9_9 
REMARK    4  A    between atoms: C9_9  and  C10_10 
REMARK    5  A    between atoms: C10_10  and  O11_11 
REMARK    6  A    between atoms: O11_11  and  C12_12 
ROOT
HETATM    1  C8    D T 609     -20.843   4.848  13.026  1.00 42.96     0.177 C 
ENDROOT
BRANCH   1   2
HETATM    2  O7    D T 609     -21.447   3.804  12.111  1.00 45.57    -0.242 OA
BRANCH   2   3
HETATM    3  N6    D T 609     -21.957   2.518  12.642  1.00 35.78    -0.046 N 
HETATM    4  C1    D T 609     -23.457   2.377  12.565  1.00 32.37     0.209 C 
HETATM    5  N2    D T 609     -23.929   1.122  13.218  1.00 31.22    -0.064 NA
HETATM    6  CM1   D T 609     -24.117   3.594  13.232  1.00 29.06     0.051 C 
HETATM    7  CM2   D T 609     -23.881   2.364  11.079  1.00 32.53     0.051 C 
HETATM    8  C3    D T 609     -23.093   0.103  13.450  1.00 33.38     0.781 C 
HETATM    9  N4    D T 609     -21.774   0.188  13.106  1.00 32.85     0.137 NA
HETATM   10  NH1   D T 609     -23.564  -1.019  14.025  1.00 33.22     0.062 N 
HETATM   11  C5    D T 609     -21.202   1.365  12.707  1.00 34.53     0.785 C 
HETATM   12  NH2   D T 609     -19.929   1.376  12.390  1.00 32.63     0.063 N 
ENDBRANCH   2   3
ENDBRANCH   1   2
BRANCH   1  13
HETATM   13  C9    D T 609     -20.156   5.913  12.066  1.00 41.72     0.068 C 
BRANCH  13  14
HETATM   14  C10   D T 609     -20.934   7.307  12.245  1.00 44.58     0.151 C 
BRANCH  14  15
HETATM   15  O11   D T 609     -22.342   7.001  12.591  1.00 45.50    -0.334 OA
BRANCH  15  16
HETATM   16  C12   D T 609     -23.328   8.003  12.265  1.00 41.06     0.084 A 
HETATM   17  C13   D T 609     -24.068   7.852  11.014  1.00 38.83     0.059 A 
HETATM   18  C14   D T 609     -25.045   8.821  10.612  1.00 39.01     0.078 A 
HETATM   19 CL1    D T 609     -23.764   6.492   9.995  1.00 34.26    -0.085 Cl
HETATM   20  C15   D T 609     -25.311   9.986  11.435  1.00 39.27     0.048 A 
HETATM   21  C16   D T 609     -24.580  10.158  12.706  1.00 40.25     0.049 A 
HETATM   22 CL2    D T 609     -26.503  11.166  10.880  1.00 32.41    -0.086 Cl
HETATM   23  C17   D T 609     -23.594   9.160  13.114  1.00 40.73     0.090 A 
HETATM   24 CL3    D T 609     -24.867  11.568  13.755  1.00 40.57    -0.086 Cl
ENDBRANCH  15  16
ENDBRANCH  14  15
ENDBRANCH  13  14
ENDBRANCH   1  13
TORSDOF 6
ENDMDL
MODEL 8
REMARK VINA RESULT:    -7.118      2.100      3.835
REMARK INTER + INTRA:         -10.412
REMARK INTER:                  -9.697
REMARK INTRA:                  -0.715
REMARK UNBOUND:                -0.797
REMARK  6 active torsions:
REMARK  status: ('A' for Active; 'I' for Inactive)
REMARK    1  A    between atoms: N6_6  and  O7_7 
REMARK    2  A    between atoms: O7_7  and  C8_8 
REMARK    3  A    between atoms: C8_8  and  C9_9 
REMARK    4  A    between atoms: C9_9  and  C10_10 
REMARK    5  A    between atoms: C10_10  and  O11_11 
REMARK    6  A    between atoms: O11_11  and  C12_12 
ROOT
HETATM    1  C8    D T 609     -24.562   3.777  12.353  1.00 42.96     0.177 C 
ENDROOT
BRANCH   1   2
HETATM    2  O7    D T 609     -23.530   4.787  11.898  1.00 45.57    -0.242 OA
BRANCH   2   3
HETATM    3  N6    D T 609     -23.668   6.226  12.219  1.00 35.78    -0.046 N 
HETATM    4  C1    D T 609     -22.428   6.840  12.821  1.00 32.37     0.209 C 
HETATM    5  N2    D T 609     -22.656   8.254  13.236  1.00 31.22    -0.064 NA
HETATM    6  CM1   D T 609     -21.985   6.005  14.033  1.00 29.06     0.051 C 
HETATM    7  CM2   D T 609     -21.291   6.796  11.776  1.00 32.53     0.051 C 
HETATM    8  C3    D T 609     -23.681   8.965  12.748  1.00 33.38     0.781 C 
HETATM    9  N4    D T 609     -24.558   8.407  11.863  1.00 32.85     0.137 NA
HETATM   10  NH1   D T 609     -23.839  10.244  13.133  1.00 33.22     0.062 N 
HETATM   11  C5    D T 609     -24.566   7.067  11.593  1.00 34.53     0.785 C 
HETATM   12  NH2   D T 609     -25.437   6.598  10.731  1.00 32.63     0.063 N 
ENDBRANCH   2   3
ENDBRANCH   1   2
BRANCH   1  13
HETATM   13  C9    D T 609     -24.244   3.499  13.886  1.00 41.72     0.068 C 
BRANCH  13  14
HETATM   14  C10   D T 609     -23.769   1.970  14.018  1.00 44.58     0.151 C 
BRANCH  14  15
HETATM   15  O11   D T 609     -23.240   1.542  12.701  1.00 45.50    -0.334 OA
BRANCH  15  16
HETATM   16  C12   D T 609     -21.806   1.538  12.543  1.00 41.06     0.084 A 
HETATM   17  C13   D T 609     -21.153   0.261  12.266  1.00 38.83     0.059 A 
HETATM   18  C14   D T 609     -19.729   0.174  12.121  1.00 39.01     0.078 A 
HETATM   19 CL1    D T 609     -22.101  -1.174  12.114  1.00 34.26    -0.085 Cl
HETATM   20  C15   D T 609     -18.901   1.357  12.262  1.00 39.27     0.048 A 
HETATM   21  C16   D T 609     -19.538   2.660  12.537  1.00 40.25     0.049 A 
HETATM   22 CL2    D T 609     -17.149   1.193  12.105  1.00 32.41    -0.086 Cl
HETATM   23  C17   D T 609     -20.990   2.741  12.672  1.00 40.73     0.090 A 
HETATM   24 CL3    D T 609     -18.569   4.144  12.720  1.00 40.57    -0.086 Cl
ENDBRANCH  15  16
ENDBRANCH  14  15
ENDBRANCH  13  14
ENDBRANCH   1  13
TORSDOF 6
ENDMDL
MODEL 9
REMARK VINA RESULT:    -6.832      4.331      6.662
REMARK INTER + INTRA:         -10.025
REMARK INTER:                  -9.611
REMARK INTRA:                  -0.415
REMARK UNBOUND:                -0.797
REMARK  6 active torsions:
REMARK  status: ('A' for Active; 'I' for Inactive)
REMARK    1  A    between atoms: N6_6  and  O7_7 
REMARK    2  A    between atoms: O7_7  and  C8_8 
REMARK    3  A    between atoms: C8_8  and  C9_9 
REMARK    4  A    between atoms: C9_9  and  C10_10 
REMARK    5  A    between atoms: C10_10  and  O11_11 
REMARK    6  A    between atoms: O11_11  and  C12_12 
ROOT
HETATM    1  C8    D T 609     -20.759   0.246  12.622  1.00 42.96     0.177 C 
ENDROOT
BRANCH   1   2
HETATM    2  O7    D T 609     -20.648   1.466  11.732  1.00 45.57    -0.242 OA
BRANCH   2   3
HETATM    3  N6    D T 609     -20.748   2.836  12.287  1.00 35.78    -0.046 N 
HETATM    4  C1    D T 609     -19.432   3.573  12.337  1.00 32.37     0.209 C 
HETATM    5  N2    D T 609     -19.565   4.896  13.011  1.00 31.22    -0.064 NA
HETATM    6  CM1   D T 609     -18.395   2.711  13.074  1.00 29.06     0.051 C 
HETATM    7  CM2   D T 609     -18.927   3.790  10.893  1.00 32.53     0.051 C 
HETATM    8  C3    D T 609     -20.759   5.485  13.157  1.00 33.38     0.781 C 
HETATM    9  N4    D T 609     -21.896   4.882  12.703  1.00 32.85     0.137 NA
HETATM   10  NH1   D T 609     -20.832   6.688  13.755  1.00 33.22     0.062 N 
HETATM   11  C5    D T 609     -21.908   3.583  12.273  1.00 34.53     0.785 C 
HETATM   12  NH2   D T 609     -23.036   3.066  11.848  1.00 32.63     0.063 N 
ENDBRANCH   2   3
ENDBRANCH   1   2
BRANCH   1  13
HETATM   13  C9    D T 609     -22.056  -0.529  12.128  1.00 41.72     0.068 C 
BRANCH  13  14
HETATM   14  C10   D T 609     -23.144  -0.463  13.308  1.00 44.58     0.151 C 
BRANCH  14  15
HETATM   15  O11   D T 609     -24.378  -1.130  12.827  1.00 45.50    -0.334 OA
BRANCH  15  16
HETATM   16  C12   D T 609     -24.250  -2.496  12.378  1.00 41.06     0.084 A 
HETATM   17  C13   D T 609     -24.984  -2.892  11.178  1.00 38.83     0.059 A 
HETATM   18  C14   D T 609     -24.926  -4.237  10.686  1.00 39.01     0.078 A 
HETATM   19 CL1    D T 609     -25.945  -1.730  10.336  1.00 34.26    -0.085 Cl
HETATM   20  C15   D T 609     -24.144  -5.243  11.381  1.00 39.27     0.048 A 
HETATM   21  C16   D T 609     -23.389  -4.865  12.593  1.00 40.25     0.049 A 
HETATM   22 CL2    D T 609     -24.128  -6.894  10.752  1.00 32.41    -0.086 Cl
HETATM   23  C17   D T 609     -23.445  -3.490  13.080  1.00 40.73     0.090 A 
HETATM   24 CL3    D T 609     -22.413  -6.059  13.484  1.00 40.57    -0.086 Cl
ENDBRANCH  15  16
ENDBRANCH  14  15
ENDBRANCH  13  14
ENDBRANCH   1  13
TORSDOF 6
ENDMDL
