MODEL 1
REMARK VINA RESULT:    -7.382      0.000      0.000
REMARK INTER + INTRA:         -10.773
REMARK INTER:                  -9.971
REMARK INTRA:                  -0.802
REMARK UNBOUND:                -0.802
REMARK  6 active torsions:
REMARK  status: ('A' for Active; 'I' for Inactive)
REMARK    1  A    between atoms: N6_6  and  O7_7 
REMARK    2  A    between atoms: O7_7  and  C8_8 
REMARK    3  A    between atoms: C8_8  and  C9_9 
REMARK    4  A    between atoms: C9_9  and  C10_10 
REMARK    5  A    between atoms: C10_10  and  O11_11 
REMARK    6  A    between atoms: O11_11  and  C12_12 
ROOT
HETATM    1  C8    D T 609     -20.182   4.710  12.532  1.00 42.96     0.177 C 
ENDROOT
BRANCH   1   2
HETATM    2  O7    D T 609     -20.694   3.491  13.269  1.00 45.57    -0.242 OA
BRANCH   2   3
HETATM    3  N6    D T 609     -21.804   2.674  12.726  1.00 35.78    -0.046 N 
HETATM    4  C1    D T 609     -21.449   1.222  12.518  1.00 32.37     0.209 C 
HETATM    5  N2    D T 609     -22.557   0.471  11.861  1.00 31.22    -0.064 NA
HETATM    6  CM1   D T 609     -20.174   1.128  11.664  1.00 29.06     0.051 C 
HETATM    7  CM2   D T 609     -21.148   0.581  13.890  1.00 32.53     0.051 C 
HETATM    8  C3    D T 609     -23.810   0.943  11.857  1.00 33.38     0.781 C 
HETATM    9  N4    D T 609     -24.107   2.138  12.446  1.00 32.85     0.137 NA
HETATM   10  NH1   D T 609     -24.784   0.224  11.269  1.00 33.22     0.062 N 
HETATM   11  C5    D T 609     -23.137   2.998  12.876  1.00 34.53     0.785 C 
HETATM   12  NH2   D T 609     -23.495   4.130  13.435  1.00 32.63     0.063 N 
ENDBRANCH   2   3
ENDBRANCH   1   2
BRANCH   1  13
HETATM   13  C9    D T 609     -19.702   5.723  13.660  1.00 41.72     0.068 C 
BRANCH  13  14
HETATM   14  C10   D T 609     -20.666   7.007  13.608  1.00 44.58     0.151 C 
BRANCH  14  15
HETATM   15  O11   D T 609     -21.463   6.927  12.361  1.00 45.50    -0.334 OA
BRANCH  15  16
HETATM   16  C12   D T 609     -22.672   7.715  12.307  1.00 41.06     0.084 A 
HETATM   17  C13   D T 609     -23.694   7.331  11.336  1.00 38.83     0.059 A 
HETATM   18  C14   D T 609     -24.909   8.081  11.207  1.00 39.01     0.078 A 
HETATM   19 CL1    D T 609     -23.441   5.959  10.318  1.00 34.26    -0.085 Cl
HETATM   20  C15   D T 609     -25.146   9.249  12.033  1.00 39.27     0.048 A 
HETATM   21  C16   D T 609     -24.130   9.655  13.025  1.00 40.25     0.049 A 
HETATM   22 CL2    D T 609     -26.646  10.158  11.815  1.00 32.41    -0.086 Cl
HETATM   23  C17   D T 609     -22.899   8.877  13.158  1.00 40.73     0.090 A 
HETATM   24 CL3    D T 609     -24.367  11.079  14.065  1.00 40.57    -0.086 Cl
ENDBRANCH  15  16
ENDBRANCH  14  15
ENDBRANCH  13  14
ENDBRANCH   1  13
TORSDOF 6
ENDMDL
MODEL 2
REMARK VINA RESULT:    -7.356      2.259      3.659
REMARK INTER + INTRA:         -10.738
REMARK INTER:                  -9.997
REMARK INTRA:                  -0.741
REMARK UNBOUND:                -0.802
REMARK  6 active torsions:
REMARK  status: ('A' for Active; 'I' for Inactive)
REMARK    1  A    between atoms: N6_6  and  O7_7 
REMARK    2  A    between atoms: O7_7  and  C8_8 
REMARK    3  A    between atoms: C8_8  and  C9_9 
REMARK    4  A    between atoms: C9_9  and  C10_10 
REMARK    5  A    between atoms: C10_10  and  O11_11 
REMARK    6  A    between atoms: O11_11  and  C12_12 
ROOT
HETATM    1  C8    D T 609     -22.218   3.832  13.873  1.00 42.96     0.177 C 
ENDROOT
BRANCH   1   2
HETATM    2  O7    D T 609     -21.708   2.986  12.726  1.00 45.57    -0.242 OA
BRANCH   2   3
HETATM    3  N6    D T 609     -20.340   2.417  12.739  1.00 35.78    -0.046 N 
HETATM    4  C1    D T 609     -20.304   0.914  12.881  1.00 32.37     0.209 C 
HETATM    5  N2    D T 609     -18.909   0.404  13.009  1.00 31.22    -0.064 NA
HETATM    6  CM1   D T 609     -21.129   0.501  14.112  1.00 29.06     0.051 C 
HETATM    7  CM2   D T 609     -20.963   0.281  11.636  1.00 32.53     0.051 C 
HETATM    8  C3    D T 609     -17.860   1.144  12.628  1.00 33.38     0.781 C 
HETATM    9  N4    D T 609     -18.040   2.400  12.122  1.00 32.85     0.137 NA
HETATM   10  NH1   D T 609     -16.619   0.638  12.743  1.00 33.22     0.062 N 
HETATM   11  C5    D T 609     -19.247   3.037  12.169  1.00 34.53     0.785 C 
HETATM   12  NH2   D T 609     -19.348   4.244  11.663  1.00 32.63     0.063 N 
ENDBRANCH   2   3
ENDBRANCH   1   2
BRANCH   1  13
HETATM   13  C9    D T 609     -23.558   4.506  13.345  1.00 41.72     0.068 C 
BRANCH  13  14
HETATM   14  C10   D T 609     -23.474   4.575  11.742  1.00 44.58     0.151 C 
BRANCH  14  15
HETATM   15  O11   D T 609     -22.663   5.761  11.380  1.00 45.50    -0.334 OA
BRANCH  15  16
HETATM   16  C12   D T 609     -23.099   7.035  11.901  1.00 41.06     0.084 A 
HETATM   17  C13   D T 609     -22.190   7.758  12.788  1.00 38.83     0.059 A 
HETATM   18  C14   D T 609     -22.564   9.016  13.363  1.00 39.01     0.078 A 
HETATM   19 CL1    D T 609     -20.642   7.090  13.161  1.00 34.26    -0.085 Cl
HETATM   20  C15   D T 609     -23.864   9.596  13.086  1.00 39.27     0.048 A 
HETATM   21  C16   D T 609     -24.799   8.887  12.189  1.00 40.25     0.049 A 
HETATM   22 CL2    D T 609     -24.290  11.135  13.843  1.00 32.41    -0.086 Cl
HETATM   23  C17   D T 609     -24.405   7.610  11.597  1.00 40.73     0.090 A 
HETATM   24 CL3    D T 609     -26.407   9.552  11.813  1.00 40.57    -0.086 Cl
ENDBRANCH  15  16
ENDBRANCH  14  15
ENDBRANCH  13  14
ENDBRANCH   1  13
TORSDOF 6
ENDMDL
MODEL 3
REMARK VINA RESULT:    -7.339      3.960      6.856
REMARK INTER + INTRA:         -10.715
REMARK INTER:                  -9.990
REMARK INTRA:                  -0.725
REMARK UNBOUND:                -0.802
REMARK  6 active torsions:
REMARK  status: ('A' for Active; 'I' for Inactive)
REMARK    1  A    between atoms: N6_6  and  O7_7 
REMARK    2  A    between atoms: O7_7  and  C8_8 
REMARK    3  A    between atoms: C8_8  and  C9_9 
REMARK    4  A    between atoms: C9_9  and  C10_10 
REMARK    5  A    between atoms: C10_10  and  O11_11 
REMARK    6  A    between atoms: O11_11  and  C12_12 
ROOT
HETATM    1  C8    D T 609     -20.794   5.943  13.634  1.00 42.96     0.177 C 
ENDROOT
BRANCH   1   2
HETATM    2  O7    D T 609     -21.314   6.397  12.286  1.00 45.57    -0.242 OA
BRANCH   2   3
HETATM    3  N6    D T 609     -22.551   7.204  12.172  1.00 35.78    -0.046 N 
HETATM    4  C1    D T 609     -23.785   6.392  11.862  1.00 32.37     0.209 C 
HETATM    5  N2    D T 609     -24.976   7.260  11.640  1.00 31.22    -0.064 NA
HETATM    6  CM1   D T 609     -23.525   5.530  10.616  1.00 29.06     0.051 C 
HETATM    7  CM2   D T 609     -24.065   5.441  13.046  1.00 32.53     0.051 C 
HETATM    8  C3    D T 609     -25.004   8.527  12.072  1.00 33.38     0.781 C 
HETATM    9  N4    D T 609     -23.930   9.067  12.720  1.00 32.85     0.137 NA
HETATM   10  NH1   D T 609     -26.107   9.270  11.867  1.00 33.22     0.062 N 
HETATM   11  C5    D T 609     -22.722   8.433  12.777  1.00 34.53     0.785 C 
HETATM   12  NH2   D T 609     -21.733   9.009  13.418  1.00 32.63     0.063 N 
ENDBRANCH   2   3
ENDBRANCH   1   2
BRANCH   1  13
HETATM   13  C9    D T 609     -19.395   5.245  13.341  1.00 41.72     0.068 C 
BRANCH  13  14
HETATM   14  C10   D T 609     -19.396   4.772  11.805  1.00 44.58     0.151 C 
BRANCH  14  15
HETATM   15  O11   D T 609     -19.137   3.313  11.780  1.00 45.50    -0.334 OA
BRANCH  15  16
HETATM   16  C12   D T 609     -20.049   2.476  12.523  1.00 41.06     0.084 A 
HETATM   17  C13   D T 609     -19.480   1.539  13.491  1.00 38.83     0.059 A 
HETATM   18  C14   D T 609     -20.320   0.659  14.248  1.00 39.01     0.078 A 
HETATM   19 CL1    D T 609     -17.771   1.480  13.727  1.00 34.26    -0.085 Cl
HETATM   20  C15   D T 609     -21.758   0.669  14.061  1.00 39.27     0.048 A 
HETATM   21  C16   D T 609     -22.357   1.610  13.092  1.00 40.25     0.049 A 
HETATM   22 CL2    D T 609     -22.748  -0.457  14.996  1.00 32.41    -0.086 Cl
HETATM   23  C17   D T 609     -21.494   2.512  12.333  1.00 40.73     0.090 A 
HETATM   24 CL3    D T 609     -24.116   1.667  12.822  1.00 40.57    -0.086 Cl
ENDBRANCH  15  16
ENDBRANCH  14  15
ENDBRANCH  13  14
ENDBRANCH   1  13
TORSDOF 6
ENDMDL
MODEL 4
REMARK VINA RESULT:    -7.250      2.108      3.073
REMARK INTER + INTRA:         -10.595
REMARK INTER:                 -10.242
REMARK INTRA:                  -0.352
REMARK UNBOUND:                -0.802
REMARK  6 active torsions:
REMARK  status: ('A' for Active; 'I' for Inactive)
REMARK    1  A    between atoms: N6_6  and  O7_7 
REMARK    2  A    between atoms: O7_7  and  C8_8 
REMARK    3  A    between atoms: C8_8  and  C9_9 
REMARK    4  A    between atoms: C9_9  and  C10_10 
REMARK    5  A    between atoms: C10_10  and  O11_11 
REMARK    6  A    between atoms: O11_11  and  C12_12 
ROOT
HETATM    1  C8    D T 609     -21.314   4.610  13.689  1.00 42.96     0.177 C 
ENDROOT
BRANCH   1   2
HETATM    2  O7    D T 609     -21.143   3.647  12.533  1.00 45.57    -0.242 OA
BRANCH   2   3
HETATM    3  N6    D T 609     -19.998   2.710  12.476  1.00 35.78    -0.046 N 
HETATM    4  C1    D T 609     -20.367   1.275  12.764  1.00 32.37     0.209 C 
HETATM    5  N2    D T 609     -19.165   0.394  12.812  1.00 31.22    -0.064 NA
HETATM    6  CM1   D T 609     -21.122   1.204  14.102  1.00 29.06     0.051 C 
HETATM    7  CM2   D T 609     -21.318   0.773  11.656  1.00 32.53     0.051 C 
HETATM    8  C3    D T 609     -18.003   0.771  12.262  1.00 33.38     0.781 C 
HETATM    9  N4    D T 609     -17.883   1.987  11.651  1.00 32.85     0.137 NA
HETATM   10  NH1   D T 609     -16.949  -0.063  12.311  1.00 33.22     0.062 N 
HETATM   11  C5    D T 609     -18.850   2.947  11.746  1.00 34.53     0.785 C 
HETATM   12  NH2   D T 609     -18.669   4.093  11.132  1.00 32.63     0.063 N 
ENDBRANCH   2   3
ENDBRANCH   1   2
BRANCH   1  13
HETATM   13  C9    D T 609     -20.324   5.818  13.391  1.00 41.72     0.068 C 
BRANCH  13  14
HETATM   14  C10   D T 609     -21.203   7.159  13.296  1.00 44.58     0.151 C 
BRANCH  14  15
HETATM   15  O11   D T 609     -22.632   6.770  13.337  1.00 45.50    -0.334 OA
BRANCH  15  16
HETATM   16  C12   D T 609     -23.589   7.750  12.879  1.00 41.06     0.084 A 
HETATM   17  C13   D T 609     -24.108   7.613  11.520  1.00 38.83     0.059 A 
HETATM   18  C14   D T 609     -25.042   8.561  10.987  1.00 39.01     0.078 A 
HETATM   19 CL1    D T 609     -23.589   6.297  10.530  1.00 34.26    -0.085 Cl
HETATM   20  C15   D T 609     -25.485   9.688  11.785  1.00 39.27     0.048 A 
HETATM   21  C16   D T 609     -24.978   9.845  13.164  1.00 40.25     0.049 A 
HETATM   22 CL2    D T 609     -26.614  10.846  11.073  1.00 32.41    -0.086 Cl
HETATM   23  C17   D T 609     -24.035   8.868  13.703  1.00 40.73     0.090 A 
HETATM   24 CL3    D T 609     -25.488  11.209  14.188  1.00 40.57    -0.086 Cl
ENDBRANCH  15  16
ENDBRANCH  14  15
ENDBRANCH  13  14
ENDBRANCH   1  13
TORSDOF 6
ENDMDL
MODEL 5
REMARK VINA RESULT:    -7.171      4.204      7.340
REMARK INTER + INTRA:         -10.489
REMARK INTER:                  -9.629
REMARK INTRA:                  -0.859
REMARK UNBOUND:                -0.802
REMARK  6 active torsions:
REMARK  status: ('A' for Active; 'I' for Inactive)
REMARK    1  A    between atoms: N6_6  and  O7_7 
REMARK    2  A    between atoms: O7_7  and  C8_8 
REMARK    3  A    between atoms: C8_8  and  C9_9 
REMARK    4  A    between atoms: C9_9  and  C10_10 
REMARK    5  A    between atoms: C10_10  and  O11_11 
REMARK    6  A    between atoms: O11_11  and  C12_12 
ROOT
HETATM    1  C8    D T 609     -23.828   3.145  12.489  1.00 42.96     0.177 C 
ENDROOT
BRANCH   1   2
HETATM    2  O7    D T 609     -22.647   3.944  11.979  1.00 45.57    -0.242 OA
BRANCH   2   3
HETATM    3  N6    D T 609     -22.528   5.397  12.247  1.00 35.78    -0.046 N 
HETATM    4  C1    D T 609     -21.231   5.792  12.908  1.00 32.37     0.209 C 
HETATM    5  N2    D T 609     -21.211   7.240  13.263  1.00 31.22    -0.064 NA
HETATM    6  CM1   D T 609     -21.024   4.940  14.171  1.00 29.06     0.051 C 
HETATM    7  CM2   D T 609     -20.066   5.493  11.939  1.00 32.53     0.051 C 
HETATM    8  C3    D T 609     -22.053   8.109  12.689  1.00 33.38     0.781 C 
HETATM    9  N4    D T 609     -22.969   7.688  11.768  1.00 32.85     0.137 NA
HETATM   10  NH1   D T 609     -21.988   9.410  13.025  1.00 33.22     0.062 N 
HETATM   11  C5    D T 609     -23.214   6.364  11.540  1.00 34.53     0.785 C 
HETATM   12  NH2   D T 609     -24.108   6.030  10.639  1.00 32.63     0.063 N 
ENDBRANCH   2   3
ENDBRANCH   1   2
BRANCH   1  13
HETATM   13  C9    D T 609     -24.132   2.065  11.363  1.00 41.72     0.068 C 
BRANCH  13  14
HETATM   14  C10   D T 609     -24.311   0.641  12.085  1.00 44.58     0.151 C 
BRANCH  14  15
HETATM   15  O11   D T 609     -23.093  -0.160  11.817  1.00 45.50    -0.334 OA
BRANCH  15  16
HETATM   16  C12   D T 609     -21.849   0.345  12.350  1.00 41.06     0.084 A 
HETATM   17  C13   D T 609     -21.616   0.208  13.786  1.00 38.83     0.059 A 
HETATM   18  C14   D T 609     -20.416   0.707  14.390  1.00 39.01     0.078 A 
HETATM   19 CL1    D T 609     -22.800  -0.560  14.780  1.00 34.26    -0.085 Cl
HETATM   20  C15   D T 609     -19.408   1.374  13.587  1.00 39.27     0.048 A 
HETATM   21  C16   D T 609     -19.619   1.521  12.133  1.00 40.25     0.049 A 
HETATM   22 CL2    D T 609     -17.960   1.999  14.384  1.00 32.41    -0.086 Cl
HETATM   23  C17   D T 609     -20.840   0.998  11.523  1.00 40.73     0.090 A 
HETATM   24 CL3    D T 609     -18.417   2.330  11.099  1.00 40.57    -0.086 Cl
ENDBRANCH  15  16
ENDBRANCH  14  15
ENDBRANCH  13  14
ENDBRANCH   1  13
TORSDOF 6
ENDMDL
MODEL 6
REMARK VINA RESULT:    -7.135      4.223      7.403
REMARK INTER + INTRA:         -10.440
REMARK INTER:                  -9.466
REMARK INTRA:                  -0.974
REMARK UNBOUND:                -0.802
REMARK  6 active torsions:
REMARK  status: ('A' for Active; 'I' for Inactive)
REMARK    1  A    between atoms: N6_6  and  O7_7 
REMARK    2  A    between atoms: O7_7  and  C8_8 
REMARK    3  A    between atoms: C8_8  and  C9_9 
REMARK    4  A    between atoms: C9_9  and  C10_10 
REMARK    5  A    between atoms: C10_10  and  O11_11 
REMARK    6  A    between atoms: O11_11  and  C12_12 
ROOT
HETATM    1  C8    D T 609     -24.394   2.649  11.169  1.00 42.96     0.177 C 
ENDROOT
BRANCH   1   2
HETATM    2  O7    D T 609     -24.559   3.776  12.166  1.00 45.57    -0.242 OA
BRANCH   2   3
HETATM    3  N6    D T 609     -23.403   4.593  12.602  1.00 35.78    -0.046 N 
HETATM    4  C1    D T 609     -23.406   5.999  12.053  1.00 32.37     0.209 C 
HETATM    5  N2    D T 609     -22.166   6.739  12.422  1.00 31.22    -0.064 NA
HETATM    6  CM1   D T 609     -23.550   5.947  10.523  1.00 29.06     0.051 C 
HETATM    7  CM2   D T 609     -24.631   6.751  12.618  1.00 32.53     0.051 C 
HETATM    8  C3    D T 609     -21.388   6.334  13.434  1.00 33.38     0.781 C 
HETATM    9  N4    D T 609     -21.705   5.216  14.152  1.00 32.85     0.137 NA
HETATM   10  NH1   D T 609     -20.288   7.042  13.746  1.00 33.22     0.062 N 
HETATM   11  C5    D T 609     -22.688   4.353  13.757  1.00 34.53     0.785 C 
HETATM   12  NH2   D T 609     -22.940   3.298  14.496  1.00 32.63     0.063 N 
ENDBRANCH   2   3
ENDBRANCH   1   2
BRANCH   1  13
HETATM   13  C9    D T 609     -24.548   1.308  12.009  1.00 41.72     0.068 C 
BRANCH  13  14
HETATM   14  C10   D T 609     -23.974   0.101  11.117  1.00 44.58     0.151 C 
BRANCH  14  15
HETATM   15  O11   D T 609     -23.058  -0.696  11.966  1.00 45.50    -0.334 OA
BRANCH  15  16
HETATM   16  C12   D T 609     -21.853  -0.042  12.421  1.00 41.06     0.084 A 
HETATM   17  C13   D T 609     -21.623   0.039  13.862  1.00 38.83     0.059 A 
HETATM   18  C14   D T 609     -20.462   0.695  14.388  1.00 39.01     0.078 A 
HETATM   19 CL1    D T 609     -22.764  -0.656  14.955  1.00 34.26    -0.085 Cl
HETATM   20  C15   D T 609     -19.493   1.305  13.498  1.00 39.27     0.048 A 
HETATM   21  C16   D T 609     -19.701   1.232  12.038  1.00 40.25     0.049 A 
HETATM   22 CL2    D T 609     -18.094   2.128  14.197  1.00 32.41    -0.086 Cl
HETATM   23  C17   D T 609     -20.882   0.552  11.510  1.00 40.73     0.090 A 
HETATM   24 CL3    D T 609     -18.545   1.963  10.899  1.00 40.57    -0.086 Cl
ENDBRANCH  15  16
ENDBRANCH  14  15
ENDBRANCH  13  14
ENDBRANCH   1  13
TORSDOF 6
ENDMDL
MODEL 7
REMARK VINA RESULT:    -6.859      4.314      7.510
REMARK INTER + INTRA:         -10.067
REMARK INTER:                 -10.018
REMARK INTRA:                  -0.048
REMARK UNBOUND:                -0.802
REMARK  6 active torsions:
REMARK  status: ('A' for Active; 'I' for Inactive)
REMARK    1  A    between atoms: N6_6  and  O7_7 
REMARK    2  A    between atoms: O7_7  and  C8_8 
REMARK    3  A    between atoms: C8_8  and  C9_9 
REMARK    4  A    between atoms: C9_9  and  C10_10 
REMARK    5  A    between atoms: C10_10  and  O11_11 
REMARK    6  A    between atoms: O11_11  and  C12_12 
ROOT
HETATM    1  C8    D T 609     -24.373   4.633  11.457  1.00 42.96     0.177 C 
ENDROOT
BRANCH   1   2
HETATM    2  O7    D T 609     -24.468   5.193  12.861  1.00 45.57    -0.242 OA
BRANCH   2   3
HETATM    3  N6    D T 609     -24.412   6.652  13.112  1.00 35.78    -0.046 N 
HETATM    4  C1    D T 609     -23.029   7.242  12.985  1.00 32.37     0.209 C 
HETATM    5  N2    D T 609     -23.006   8.684  13.362  1.00 31.22    -0.064 NA
HETATM    6  CM1   D T 609     -22.056   6.452  13.876  1.00 29.06     0.051 C 
HETATM    7  CM2   D T 609     -22.557   7.094  11.522  1.00 32.53     0.051 C 
HETATM    8  C3    D T 609     -24.129   9.413  13.394  1.00 33.38     0.781 C 
HETATM    9  N4    D T 609     -25.336   8.848  13.094  1.00 32.85     0.137 NA
HETATM   10  NH1   D T 609     -24.061  10.716  13.721  1.00 33.22     0.062 N 
HETATM   11  C5    D T 609     -25.492   7.498  12.953  1.00 34.53     0.785 C 
HETATM   12  NH2   D T 609     -26.680   7.023  12.663  1.00 32.63     0.063 N 
ENDBRANCH   2   3
ENDBRANCH   1   2
BRANCH   1  13
HETATM   13  C9    D T 609     -23.815   3.153  11.623  1.00 41.72     0.068 C 
BRANCH  13  14
HETATM   14  C10   D T 609     -24.154   2.666  13.116  1.00 44.58     0.151 C 
BRANCH  14  15
HETATM   15  O11   D T 609     -22.945   2.872  13.947  1.00 45.50    -0.334 OA
BRANCH  15  16
HETATM   16  C12   D T 609     -21.719   2.272  13.476  1.00 41.06     0.084 A 
HETATM   17  C13   D T 609     -21.414   0.911  13.913  1.00 38.83     0.059 A 
HETATM   18  C14   D T 609     -20.204   0.258  13.507  1.00 39.01     0.078 A 
HETATM   19 CL1    D T 609     -22.518   0.070  14.940  1.00 34.26    -0.085 Cl
HETATM   20  C15   D T 609     -19.246   0.943  12.660  1.00 39.27     0.048 A 
HETATM   21  C16   D T 609     -19.534   2.317  12.201  1.00 40.25     0.049 A 
HETATM   22 CL2    D T 609     -17.755   0.107  12.211  1.00 32.41    -0.086 Cl
HETATM   23  C17   D T 609     -20.775   2.970  12.611  1.00 40.73     0.090 A 
HETATM   24 CL3    D T 609     -18.394   3.204  11.160  1.00 40.57    -0.086 Cl
ENDBRANCH  15  16
ENDBRANCH  14  15
ENDBRANCH  13  14
ENDBRANCH   1  13
TORSDOF 6
ENDMDL
MODEL 8
REMARK VINA RESULT:    -6.852      5.496      9.517
REMARK INTER + INTRA:         -10.057
REMARK INTER:                  -9.666
REMARK INTRA:                  -0.391
REMARK UNBOUND:                -0.802
REMARK  6 active torsions:
REMARK  status: ('A' for Active; 'I' for Inactive)
REMARK    1  A    between atoms: N6_6  and  O7_7 
REMARK    2  A    between atoms: O7_7  and  C8_8 
REMARK    3  A    between atoms: C8_8  and  C9_9 
REMARK    4  A    between atoms: C9_9  and  C10_10 
REMARK    5  A    between atoms: C10_10  and  O11_11 
REMARK    6  A    between atoms: O11_11  and  C12_12 
ROOT
HETATM    1  C8    D T 609     -20.735   0.469  13.824  1.00 42.96     0.177 C 
ENDROOT
BRANCH   1   2
HETATM    2  O7    D T 609     -20.395   1.440  12.713  1.00 45.57    -0.242 OA
BRANCH   2   3
HETATM    3  N6    D T 609     -20.427   2.904  12.936  1.00 35.78    -0.046 N 
HETATM    4  C1    D T 609     -19.085   3.576  12.780  1.00 32.37     0.209 C 
HETATM    5  N2    D T 609     -19.148   5.024  13.130  1.00 31.22    -0.064 NA
HETATM    6  CM1   D T 609     -18.054   2.865  13.673  1.00 29.06     0.051 C 
HETATM    7  CM2   D T 609     -18.623   3.430  11.314  1.00 32.53     0.051 C 
HETATM    8  C3    D T 609     -20.314   5.682  13.164  1.00 33.38     0.781 C 
HETATM    9  N4    D T 609     -21.486   5.038  12.891  1.00 32.85     0.137 NA
HETATM   10  NH1   D T 609     -20.323   6.993  13.466  1.00 33.22     0.062 N 
HETATM   11  C5    D T 609     -21.559   3.678  12.777  1.00 34.53     0.785 C 
HETATM   12  NH2   D T 609     -22.719   3.125  12.512  1.00 32.63     0.063 N 
ENDBRANCH   2   3
ENDBRANCH   1   2
BRANCH   1  13
HETATM   13  C9    D T 609     -21.498  -0.736  13.121  1.00 41.72     0.068 C 
BRANCH  13  14
HETATM   14  C10   D T 609     -22.767  -1.112  14.032  1.00 44.58     0.151 C 
BRANCH  14  15
HETATM   15  O11   D T 609     -23.817  -1.662  13.143  1.00 45.50    -0.334 OA
BRANCH  15  16
HETATM   16  C12   D T 609     -23.715  -3.061  12.800  1.00 41.06     0.084 A 
HETATM   17  C13   D T 609     -24.468  -3.535  11.640  1.00 38.83     0.059 A 
HETATM   18  C14   D T 609     -24.435  -4.915  11.253  1.00 39.01     0.078 A 
HETATM   19 CL1    D T 609     -25.420  -2.426  10.721  1.00 34.26    -0.085 Cl
HETATM   20  C15   D T 609     -23.661  -5.876  12.014  1.00 39.27     0.048 A 
HETATM   21  C16   D T 609     -22.888  -5.421  13.187  1.00 40.25     0.049 A 
HETATM   22 CL2    D T 609     -23.677  -7.571  11.515  1.00 32.41    -0.086 Cl
HETATM   23  C17   D T 609     -22.918  -4.010  13.568  1.00 40.73     0.090 A 
HETATM   24 CL3    D T 609     -21.920  -6.556  14.158  1.00 40.57    -0.086 Cl
ENDBRANCH  15  16
ENDBRANCH  14  15
ENDBRANCH  13  14
ENDBRANCH   1  13
TORSDOF 6
ENDMDL
MODEL 9
REMARK VINA RESULT:    -6.837      1.478      2.352
REMARK INTER + INTRA:         -10.038
REMARK INTER:                  -9.598
REMARK INTRA:                  -0.439
REMARK UNBOUND:                -0.802
REMARK  6 active torsions:
REMARK  status: ('A' for Active; 'I' for Inactive)
REMARK    1  A    between atoms: N6_6  and  O7_7 
REMARK    2  A    between atoms: O7_7  and  C8_8 
REMARK    3  A    between atoms: C8_8  and  C9_9 
REMARK    4  A    between atoms: C9_9  and  C10_10 
REMARK    5  A    between atoms: C10_10  and  O11_11 
REMARK    6  A    between atoms: O11_11  and  C12_12 
ROOT
HETATM    1  C8    D T 609     -21.328   4.539  13.405  1.00 42.96     0.177 C 
ENDROOT
BRANCH   1   2
HETATM    2  O7    D T 609     -21.361   3.264  12.590  1.00 45.57    -0.242 OA
BRANCH   2   3
HETATM    3  N6    D T 609     -21.748   1.971  13.200  1.00 35.78    -0.046 N 
HETATM    4  C1    D T 609     -23.194   1.600  12.981  1.00 32.37     0.209 C 
HETATM    5  N2    D T 609     -23.562   0.354  13.713  1.00 31.22    -0.064 NA
HETATM    6  CM1   D T 609     -24.091   2.761  13.439  1.00 29.06     0.051 C 
HETATM    7  CM2   D T 609     -23.430   1.386  11.470  1.00 32.53     0.051 C 
HETATM    8  C3    D T 609     -22.627  -0.503  14.142  1.00 33.38     0.781 C 
HETATM    9  N4    D T 609     -21.301  -0.252  13.931  1.00 32.85     0.137 NA
HETATM   10  NH1   D T 609     -23.004  -1.625  14.782  1.00 33.22     0.062 N 
HETATM   11  C5    D T 609     -20.854   0.954  13.471  1.00 34.53     0.785 C 
HETATM   12  NH2   D T 609     -19.566   1.126  13.290  1.00 32.63     0.063 N 
ENDBRANCH   2   3
ENDBRANCH   1   2
BRANCH   1  13
HETATM   13  C9    D T 609     -20.519   5.589  12.526  1.00 41.72     0.068 C 
BRANCH  13  14
HETATM   14  C10   D T 609     -21.135   7.045  12.811  1.00 44.58     0.151 C 
BRANCH  14  15
HETATM   15  O11   D T 609     -22.515   6.863  13.320  1.00 45.50    -0.334 OA
BRANCH  15  16
HETATM   16  C12   D T 609     -23.497   7.838  12.908  1.00 41.06     0.084 A 
HETATM   17  C13   D T 609     -24.196   7.612  11.645  1.00 38.83     0.059 A 
HETATM   18  C14   D T 609     -25.166   8.550  11.160  1.00 39.01     0.078 A 
HETATM   19 CL1    D T 609     -23.850   6.201  10.712  1.00 34.26    -0.085 Cl
HETATM   20  C15   D T 609     -25.466   9.754  11.909  1.00 39.27     0.048 A 
HETATM   21  C16   D T 609     -24.777  10.003  13.191  1.00 40.25     0.049 A 
HETATM   22 CL2    D T 609     -26.648  10.894  11.254  1.00 32.41    -0.086 Cl
HETATM   23  C17   D T 609     -23.798   9.036  13.684  1.00 40.73     0.090 A 
HETATM   24 CL3    D T 609     -25.107  11.464  14.153  1.00 40.57    -0.086 Cl
ENDBRANCH  15  16
ENDBRANCH  14  15
ENDBRANCH  13  14
ENDBRANCH   1  13
TORSDOF 6
ENDMDL
