MODEL 1
REMARK VINA RESULT:    -7.750      0.000      0.000
REMARK INTER + INTRA:         -11.223
REMARK INTER:                 -10.468
REMARK INTRA:                  -0.755
REMARK UNBOUND:                -0.755
REMARK  6 active torsions:
REMARK  status: ('A' for Active; 'I' for Inactive)
REMARK    1  A    between atoms: N6_6  and  O7_7 
REMARK    2  A    between atoms: O7_7  and  C8_8 
REMARK    3  A    between atoms: C8_8  and  C9_9 
REMARK    4  A    between atoms: C9_9  and  C10_10 
REMARK    5  A    between atoms: C10_10  and  O11_11 
REMARK    6  A    between atoms: O11_11  and  C12_12 
ROOT
HETATM    1  C8    D T 609     -20.665   5.599  11.895  1.00 42.96     0.177 C 
ENDROOT
BRANCH   1   2
HETATM    2  O7    D T 609     -22.044   5.813  12.483  1.00 45.57    -0.242 OA
BRANCH   2   3
HETATM    3  N6    D T 609     -22.936   6.884  11.984  1.00 35.78    -0.046 N 
HETATM    4  C1    D T 609     -24.274   6.387  11.495  1.00 32.37     0.209 C 
HETATM    5  N2    D T 609     -25.085   7.485  10.894  1.00 31.22    -0.064 NA
HETATM    6  CM1   D T 609     -24.054   5.273  10.459  1.00 29.06     0.051 C 
HETATM    7  CM2   D T 609     -25.047   5.781  12.687  1.00 32.53     0.051 C 
HETATM    8  C3    D T 609     -24.813   8.771  11.150  1.00 33.38     0.781 C 
HETATM    9  N4    D T 609     -23.770   9.115  11.961  1.00 32.85     0.137 NA
HETATM   10  NH1   D T 609     -25.582   9.730  10.603  1.00 33.22     0.062 N 
HETATM   11  C5    D T 609     -22.841   8.204  12.379  1.00 34.53     0.785 C 
HETATM   12  NH2   D T 609     -21.865   8.603  13.159  1.00 32.63     0.063 N 
ENDBRANCH   2   3
ENDBRANCH   1   2
BRANCH   1  13
HETATM   13  C9    D T 609     -19.694   5.402  13.139  1.00 41.72     0.068 C 
BRANCH  13  14
HETATM   14  C10   D T 609     -19.021   3.950  13.009  1.00 44.58     0.151 C 
BRANCH  14  15
HETATM   15  O11   D T 609     -19.936   3.094  12.215  1.00 45.50    -0.334 OA
BRANCH  15  16
HETATM   16  C12   D T 609     -20.736   2.139  12.945  1.00 41.06     0.084 A 
HETATM   17  C13   D T 609     -20.431   0.720  12.774  1.00 38.83     0.059 A 
HETATM   18  C14   D T 609     -21.199  -0.286  13.448  1.00 39.01     0.078 A 
HETATM   19 CL1    D T 609     -19.133   0.238  11.743  1.00 34.26    -0.085 Cl
HETATM   20  C15   D T 609     -22.307   0.084  14.308  1.00 39.27     0.048 A 
HETATM   21  C16   D T 609     -22.631   1.512  14.499  1.00 40.25     0.049 A 
HETATM   22 CL2    D T 609     -23.242  -1.195  15.091  1.00 32.41    -0.086 Cl
HETATM   23  C17   D T 609     -21.837   2.532  13.819  1.00 40.73     0.090 A 
HETATM   24 CL3    D T 609     -23.981   2.022  15.542  1.00 40.57    -0.086 Cl
ENDBRANCH  15  16
ENDBRANCH  14  15
ENDBRANCH  13  14
ENDBRANCH   1  13
TORSDOF 6
ENDMDL
MODEL 2
REMARK VINA RESULT:    -7.334      4.444      7.603
REMARK INTER + INTRA:         -10.662
REMARK INTER:                 -10.299
REMARK INTRA:                  -0.362
REMARK UNBOUND:                -0.755
REMARK  6 active torsions:
REMARK  status: ('A' for Active; 'I' for Inactive)
REMARK    1  A    between atoms: N6_6  and  O7_7 
REMARK    2  A    between atoms: O7_7  and  C8_8 
REMARK    3  A    between atoms: C8_8  and  C9_9 
REMARK    4  A    between atoms: C9_9  and  C10_10 
REMARK    5  A    between atoms: C10_10  and  O11_11 
REMARK    6  A    between atoms: O11_11  and  C12_12 
ROOT
HETATM    1  C8    D T 609     -21.901   4.757  13.824  1.00 42.96     0.177 C 
ENDROOT
BRANCH   1   2
HETATM    2  O7    D T 609     -21.647   3.869  12.624  1.00 45.57    -0.242 OA
BRANCH   2   3
HETATM    3  N6    D T 609     -20.451   2.998  12.551  1.00 35.78    -0.046 N 
HETATM    4  C1    D T 609     -20.727   1.553  12.891  1.00 32.37     0.209 C 
HETATM    5  N2    D T 609     -19.474   0.745  12.919  1.00 31.22    -0.064 NA
HETATM    6  CM1   D T 609     -21.428   1.478  14.256  1.00 29.06     0.051 C 
HETATM    7  CM2   D T 609     -21.684   0.965  11.831  1.00 32.53     0.051 C 
HETATM    8  C3    D T 609     -18.356   1.172  12.318  1.00 33.38     0.781 C 
HETATM    9  N4    D T 609     -18.328   2.374  11.671  1.00 32.85     0.137 NA
HETATM   10  NH1   D T 609     -17.254   0.402  12.351  1.00 33.22     0.062 N 
HETATM   11  C5    D T 609     -19.346   3.280  11.774  1.00 34.53     0.785 C 
HETATM   12  NH2   D T 609     -19.254   4.415  11.124  1.00 32.63     0.063 N 
ENDBRANCH   2   3
ENDBRANCH   1   2
BRANCH   1  13
HETATM   13  C9    D T 609     -20.639   5.721  13.919  1.00 41.72     0.068 C 
BRANCH  13  14
HETATM   14  C10   D T 609     -21.142   7.216  13.622  1.00 44.58     0.151 C 
BRANCH  14  15
HETATM   15  O11   D T 609     -21.867   7.204  12.328  1.00 45.50    -0.334 OA
BRANCH  15  16
HETATM   16  C12   D T 609     -23.100   7.953  12.263  1.00 41.06     0.084 A 
HETATM   17  C13   D T 609     -24.061   7.595  11.221  1.00 38.83     0.059 A 
HETATM   18  C14   D T 609     -25.296   8.310  11.079  1.00 39.01     0.078 A 
HETATM   19 CL1    D T 609     -23.709   6.300  10.135  1.00 34.26    -0.085 Cl
HETATM   20  C15   D T 609     -25.614   9.415  11.963  1.00 39.27     0.048 A 
HETATM   21  C16   D T 609     -24.661   9.792  13.026  1.00 40.25     0.049 A 
HETATM   22 CL2    D T 609     -27.135  10.284  11.728  1.00 32.41    -0.086 Cl
HETATM   23  C17   D T 609     -23.410   9.051  13.172  1.00 40.73     0.090 A 
HETATM   24 CL3    D T 609     -25.000  11.140  14.138  1.00 40.57    -0.086 Cl
ENDBRANCH  15  16
ENDBRANCH  14  15
ENDBRANCH  13  14
ENDBRANCH   1  13
TORSDOF 6
ENDMDL
MODEL 3
REMARK VINA RESULT:    -7.178      4.303      7.414
REMARK INTER + INTRA:         -10.450
REMARK INTER:                  -9.810
REMARK INTRA:                  -0.640
REMARK UNBOUND:                -0.755
REMARK  6 active torsions:
REMARK  status: ('A' for Active; 'I' for Inactive)
REMARK    1  A    between atoms: N6_6  and  O7_7 
REMARK    2  A    between atoms: O7_7  and  C8_8 
REMARK    3  A    between atoms: C8_8  and  C9_9 
REMARK    4  A    between atoms: C9_9  and  C10_10 
REMARK    5  A    between atoms: C10_10  and  O11_11 
REMARK    6  A    between atoms: O11_11  and  C12_12 
ROOT
HETATM    1  C8    D T 609     -20.543   4.949  12.529  1.00 42.96     0.177 C 
ENDROOT
BRANCH   1   2
HETATM    2  O7    D T 609     -21.062   3.746  13.287  1.00 45.57    -0.242 OA
BRANCH   2   3
HETATM    3  N6    D T 609     -21.814   2.670  12.600  1.00 35.78    -0.046 N 
HETATM    4  C1    D T 609     -21.110   1.334  12.606  1.00 32.37     0.209 C 
HETATM    5  N2    D T 609     -21.849   0.318  11.803  1.00 31.22    -0.064 NA
HETATM    6  CM1   D T 609     -19.688   1.507  12.051  1.00 29.06     0.051 C 
HETATM    7  CM2   D T 609     -20.995   0.838  14.064  1.00 32.53     0.051 C 
HETATM    8  C3    D T 609     -23.142   0.482  11.492  1.00 33.38     0.781 C 
HETATM    9  N4    D T 609     -23.819   1.598  11.892  1.00 32.85     0.137 NA
HETATM   10  NH1   D T 609     -23.775  -0.468  10.782  1.00 33.22     0.062 N 
HETATM   11  C5    D T 609     -23.184   2.679  12.437  1.00 34.53     0.785 C 
HETATM   12  NH2   D T 609     -23.897   3.717  12.801  1.00 32.63     0.063 N 
ENDBRANCH   2   3
ENDBRANCH   1   2
BRANCH   1  13
HETATM   13  C9    D T 609     -20.475   6.130  13.592  1.00 41.72     0.068 C 
BRANCH  13  14
HETATM   14  C10   D T 609     -21.392   7.331  13.049  1.00 44.58     0.151 C 
BRANCH  14  15
HETATM   15  O11   D T 609     -22.804   6.879  13.088  1.00 45.50    -0.334 OA
BRANCH  15  16
HETATM   16  C12   D T 609     -23.808   7.837  12.689  1.00 41.06     0.084 A 
HETATM   17  C13   D T 609     -24.442   7.657  11.385  1.00 38.83     0.059 A 
HETATM   18  C14   D T 609     -25.430   8.583  10.911  1.00 39.01     0.078 A 
HETATM   19 CL1    D T 609     -23.997   6.319  10.390  1.00 34.26    -0.085 Cl
HETATM   20  C15   D T 609     -25.813   9.728  11.714  1.00 39.27     0.048 A 
HETATM   21  C16   D T 609     -25.189   9.928  13.038  1.00 40.25     0.049 A 
HETATM   22 CL2    D T 609     -27.013  10.857  11.072  1.00 32.41    -0.086 Cl
HETATM   23  C17   D T 609     -24.193   8.974  13.519  1.00 40.73     0.090 A 
HETATM   24 CL3    D T 609     -25.622  11.316  14.065  1.00 40.57    -0.086 Cl
ENDBRANCH  15  16
ENDBRANCH  14  15
ENDBRANCH  13  14
ENDBRANCH   1  13
TORSDOF 6
ENDMDL
MODEL 4
REMARK VINA RESULT:    -7.081      2.162      3.956
REMARK INTER + INTRA:         -10.321
REMARK INTER:                  -9.616
REMARK INTRA:                  -0.705
REMARK UNBOUND:                -0.755
REMARK  6 active torsions:
REMARK  status: ('A' for Active; 'I' for Inactive)
REMARK    1  A    between atoms: N6_6  and  O7_7 
REMARK    2  A    between atoms: O7_7  and  C8_8 
REMARK    3  A    between atoms: C8_8  and  C9_9 
REMARK    4  A    between atoms: C9_9  and  C10_10 
REMARK    5  A    between atoms: C10_10  and  O11_11 
REMARK    6  A    between atoms: O11_11  and  C12_12 
ROOT
HETATM    1  C8    D T 609     -23.969   2.438  11.515  1.00 42.96     0.177 C 
ENDROOT
BRANCH   1   2
HETATM    2  O7    D T 609     -24.041   3.466  12.624  1.00 45.57    -0.242 OA
BRANCH   2   3
HETATM    3  N6    D T 609     -23.817   4.905  12.354  1.00 35.78    -0.046 N 
HETATM    4  C1    D T 609     -22.525   5.439  12.924  1.00 32.37     0.209 C 
HETATM    5  N2    D T 609     -22.404   6.912  12.730  1.00 31.22    -0.064 NA
HETATM    6  CM1   D T 609     -22.453   5.102  14.422  1.00 29.06     0.051 C 
HETATM    7  CM2   D T 609     -21.342   4.738  12.222  1.00 32.53     0.051 C 
HETATM    8  C3    D T 609     -23.143   7.557  11.817  1.00 33.38     0.781 C 
HETATM    9  N4    D T 609     -24.042   6.881  11.045  1.00 32.85     0.137 NA
HETATM   10  NH1   D T 609     -22.988   8.884  11.661  1.00 33.22     0.062 N 
HETATM   11  C5    D T 609     -24.385   5.581  11.294  1.00 34.53     0.785 C 
HETATM   12  NH2   D T 609     -25.256   4.993  10.510  1.00 32.63     0.063 N 
ENDBRANCH   2   3
ENDBRANCH   1   2
BRANCH   1  13
HETATM   13  C9    D T 609     -24.116   1.024  12.229  1.00 41.72     0.068 C 
BRANCH  13  14
HETATM   14  C10   D T 609     -24.018   1.264  13.814  1.00 44.58     0.151 C 
BRANCH  14  15
HETATM   15  O11   D T 609     -22.978   0.352  14.349  1.00 45.50    -0.334 OA
BRANCH  15  16
HETATM   16  C12   D T 609     -21.653   0.471  13.790  1.00 41.06     0.084 A 
HETATM   17  C13   D T 609     -21.162  -0.625  12.957  1.00 38.83     0.059 A 
HETATM   18  C14   D T 609     -19.846  -0.588  12.388  1.00 39.01     0.078 A 
HETATM   19 CL1    D T 609     -22.171  -1.992  12.654  1.00 34.26    -0.085 Cl
HETATM   20  C15   D T 609     -18.967   0.539  12.638  1.00 39.27     0.048 A 
HETATM   21  C16   D T 609     -19.442   1.660  13.473  1.00 40.25     0.049 A 
HETATM   22 CL2    D T 609     -17.343   0.523  11.939  1.00 32.41    -0.086 Cl
HETATM   23  C17   D T 609     -20.788   1.620  14.039  1.00 40.73     0.090 A 
HETATM   24 CL3    D T 609     -18.404   3.066  13.813  1.00 40.57    -0.086 Cl
ENDBRANCH  15  16
ENDBRANCH  14  15
ENDBRANCH  13  14
ENDBRANCH   1  13
TORSDOF 6
ENDMDL
MODEL 5
REMARK VINA RESULT:    -6.868      4.283      6.545
REMARK INTER + INTRA:         -10.032
REMARK INTER:                  -9.575
REMARK INTRA:                  -0.457
REMARK UNBOUND:                -0.755
REMARK  6 active torsions:
REMARK  status: ('A' for Active; 'I' for Inactive)
REMARK    1  A    between atoms: N6_6  and  O7_7 
REMARK    2  A    between atoms: O7_7  and  C8_8 
REMARK    3  A    between atoms: C8_8  and  C9_9 
REMARK    4  A    between atoms: C9_9  and  C10_10 
REMARK    5  A    between atoms: C10_10  and  O11_11 
REMARK    6  A    between atoms: O11_11  and  C12_12 
ROOT
HETATM    1  C8    D T 609     -21.278   0.194  13.704  1.00 42.96     0.177 C 
ENDROOT
BRANCH   1   2
HETATM    2  O7    D T 609     -20.786   1.151  12.639  1.00 45.57    -0.242 OA
BRANCH   2   3
HETATM    3  N6    D T 609     -20.791   2.615  12.859  1.00 35.78    -0.046 N 
HETATM    4  C1    D T 609     -19.428   3.254  12.753  1.00 32.37     0.209 C 
HETATM    5  N2    D T 609     -19.468   4.704  13.099  1.00 31.22    -0.064 NA
HETATM    6  CM1   D T 609     -18.450   2.521  13.685  1.00 29.06     0.051 C 
HETATM    7  CM2   D T 609     -18.914   3.095  11.305  1.00 32.53     0.051 C 
HETATM    8  C3    D T 609     -20.619   5.390  13.089  1.00 33.38     0.781 C 
HETATM    9  N4    D T 609     -21.795   4.773  12.772  1.00 32.85     0.137 NA
HETATM   10  NH1   D T 609     -20.608   6.701  13.388  1.00 33.22     0.062 N 
HETATM   11  C5    D T 609     -21.897   3.415  12.656  1.00 34.53     0.785 C 
HETATM   12  NH2   D T 609     -23.059   2.890  12.348  1.00 32.63     0.063 N 
ENDBRANCH   2   3
ENDBRANCH   1   2
BRANCH   1  13
HETATM   13  C9    D T 609     -22.294  -0.783  12.967  1.00 41.72     0.068 C 
BRANCH  13  14
HETATM   14  C10   D T 609     -23.254  -1.423  14.083  1.00 44.58     0.151 C 
BRANCH  14  15
HETATM   15  O11   D T 609     -24.335  -2.161  13.385  1.00 45.50    -0.334 OA
BRANCH  15  16
HETATM   16  C12   D T 609     -24.014  -3.480  12.893  1.00 41.06     0.084 A 
HETATM   17  C13   D T 609     -24.746  -3.970  11.726  1.00 38.83     0.059 A 
HETATM   18  C14   D T 609     -24.499  -5.280  11.196  1.00 39.01     0.078 A 
HETATM   19 CL1    D T 609     -25.932  -2.968  10.973  1.00 34.26    -0.085 Cl
HETATM   20  C15   D T 609     -23.521  -6.153  11.817  1.00 39.27     0.048 A 
HETATM   21  C16   D T 609     -22.767  -5.679  12.994  1.00 40.25     0.049 A 
HETATM   22 CL2    D T 609     -23.275  -7.769  11.145  1.00 32.41    -0.086 Cl
HETATM   23  C17   D T 609     -23.015  -4.339  13.521  1.00 40.73     0.090 A 
HETATM   24 CL3    D T 609     -21.557  -6.710  13.795  1.00 40.57    -0.086 Cl
ENDBRANCH  15  16
ENDBRANCH  14  15
ENDBRANCH  13  14
ENDBRANCH   1  13
TORSDOF 6
ENDMDL
MODEL 6
REMARK VINA RESULT:    -6.827      2.926      4.482
REMARK INTER + INTRA:          -9.977
REMARK INTER:                  -9.576
REMARK INTRA:                  -0.401
REMARK UNBOUND:                -0.755
REMARK  6 active torsions:
REMARK  status: ('A' for Active; 'I' for Inactive)
REMARK    1  A    between atoms: N6_6  and  O7_7 
REMARK    2  A    between atoms: O7_7  and  C8_8 
REMARK    3  A    between atoms: C8_8  and  C9_9 
REMARK    4  A    between atoms: C9_9  and  C10_10 
REMARK    5  A    between atoms: C10_10  and  O11_11 
REMARK    6  A    between atoms: O11_11  and  C12_12 
ROOT
HETATM    1  C8    D T 609     -22.650   2.829  13.672  1.00 42.96     0.177 C 
ENDROOT
BRANCH   1   2
HETATM    2  O7    D T 609     -22.212   3.603  12.447  1.00 45.57    -0.242 OA
BRANCH   2   3
HETATM    3  N6    D T 609     -22.526   5.043  12.294  1.00 35.78    -0.046 N 
HETATM    4  C1    D T 609     -21.386   5.960  12.666  1.00 32.37     0.209 C 
HETATM    5  N2    D T 609     -21.790   7.394  12.609  1.00 31.22    -0.064 NA
HETATM    6  CM1   D T 609     -20.895   5.610  14.079  1.00 29.06     0.051 C 
HETATM    7  CM2   D T 609     -20.216   5.725  11.685  1.00 32.53     0.051 C 
HETATM    8  C3    D T 609     -22.872   7.785  11.924  1.00 33.38     0.781 C 
HETATM    9  N4    D T 609     -23.648   6.875  11.265  1.00 32.85     0.137 NA
HETATM   10  NH1   D T 609     -23.190   9.092  11.882  1.00 33.22     0.062 N 
HETATM   11  C5    D T 609     -23.492   5.527  11.435  1.00 34.53     0.785 C 
HETATM   12  NH2   D T 609     -24.271   4.709  10.770  1.00 32.63     0.063 N 
ENDBRANCH   2   3
ENDBRANCH   1   2
BRANCH   1  13
HETATM   13  C9    D T 609     -24.241   2.852  13.647  1.00 41.72     0.068 C 
BRANCH  13  14
HETATM   14  C10   D T 609     -24.731   1.685  12.660  1.00 44.58     0.151 C 
BRANCH  14  15
HETATM   15  O11   D T 609     -23.582   0.780  12.417  1.00 45.50    -0.334 OA
BRANCH  15  16
HETATM   16  C12   D T 609     -23.866  -0.634  12.346  1.00 41.06     0.084 A 
HETATM   17  C13   D T 609     -23.663  -1.431  13.554  1.00 38.83     0.059 A 
HETATM   18  C14   D T 609     -23.901  -2.846  13.553  1.00 39.01     0.078 A 
HETATM   19 CL1    D T 609     -23.123  -0.671  15.006  1.00 34.26    -0.085 Cl
HETATM   20  C15   D T 609     -24.339  -3.519  12.345  1.00 39.27     0.048 A 
HETATM   21  C16   D T 609     -24.554  -2.733  11.113  1.00 40.25     0.049 A 
HETATM   22 CL2    D T 609     -24.589  -5.268  12.386  1.00 32.41    -0.086 Cl
HETATM   23  C17   D T 609     -24.321  -1.291  11.125  1.00 40.73     0.090 A 
HETATM   24 CL3    D T 609     -25.090  -3.508   9.603  1.00 40.57    -0.086 Cl
ENDBRANCH  15  16
ENDBRANCH  14  15
ENDBRANCH  13  14
ENDBRANCH   1  13
TORSDOF 6
ENDMDL
MODEL 7
REMARK VINA RESULT:    -6.805      4.584      7.233
REMARK INTER + INTRA:          -9.947
REMARK INTER:                  -9.136
REMARK INTRA:                  -0.811
REMARK UNBOUND:                -0.755
REMARK  6 active torsions:
REMARK  status: ('A' for Active; 'I' for Inactive)
REMARK    1  A    between atoms: N6_6  and  O7_7 
REMARK    2  A    between atoms: O7_7  and  C8_8 
REMARK    3  A    between atoms: C8_8  and  C9_9 
REMARK    4  A    between atoms: C9_9  and  C10_10 
REMARK    5  A    between atoms: C10_10  and  O11_11 
REMARK    6  A    between atoms: O11_11  and  C12_12 
ROOT
HETATM    1  C8    D T 609     -20.115   3.104  13.216  1.00 42.96     0.177 C 
ENDROOT
BRANCH   1   2
HETATM    2  O7    D T 609     -21.154   2.369  12.397  1.00 45.57    -0.242 OA
BRANCH   2   3
HETATM    3  N6    D T 609     -21.726   1.082  12.857  1.00 35.78    -0.046 N 
HETATM    4  C1    D T 609     -23.231   1.086  12.964  1.00 32.37     0.209 C 
HETATM    5  N2    D T 609     -23.747  -0.187  13.543  1.00 31.22    -0.064 NA
HETATM    6  CM1   D T 609     -23.675   2.273  13.833  1.00 29.06     0.051 C 
HETATM    7  CM2   D T 609     -23.831   1.279  11.554  1.00 32.53     0.051 C 
HETATM    8  C3    D T 609     -22.999  -1.298  13.558  1.00 33.38     0.781 C 
HETATM    9  N4    D T 609     -21.730  -1.291  13.053  1.00 32.85     0.137 NA
HETATM   10  NH1   D T 609     -23.510  -2.431  14.072  1.00 33.22     0.062 N 
HETATM   11  C5    D T 609     -21.091  -0.134  12.705  1.00 34.53     0.785 C 
HETATM   12  NH2   D T 609     -19.873  -0.201  12.225  1.00 32.63     0.063 N 
ENDBRANCH   2   3
ENDBRANCH   1   2
BRANCH   1  13
HETATM   13  C9    D T 609     -19.705   4.373  12.348  1.00 41.72     0.068 C 
BRANCH  13  14
HETATM   14  C10   D T 609     -19.812   5.667  13.293  1.00 44.58     0.151 C 
BRANCH  14  15
HETATM   15  O11   D T 609     -21.194   5.727  13.829  1.00 45.50    -0.334 OA
BRANCH  15  16
HETATM   16  C12   D T 609     -22.215   6.241  12.948  1.00 41.06     0.084 A 
HETATM   17  C13   D T 609     -22.347   7.692  12.830  1.00 38.83     0.059 A 
HETATM   18  C14   D T 609     -23.355   8.277  11.994  1.00 39.01     0.078 A 
HETATM   19 CL1    D T 609     -21.284   8.726  13.714  1.00 34.26    -0.085 Cl
HETATM   20  C15   D T 609     -24.275   7.437  11.252  1.00 39.27     0.048 A 
HETATM   21  C16   D T 609     -24.158   5.968  11.351  1.00 40.25     0.049 A 
HETATM   22 CL2    D T 609     -25.519   8.205  10.259  1.00 32.41    -0.086 Cl
HETATM   23  C17   D T 609     -23.122   5.380  12.196  1.00 40.73     0.090 A 
HETATM   24 CL3    D T 609     -25.263   4.890  10.464  1.00 40.57    -0.086 Cl
ENDBRANCH  15  16
ENDBRANCH  14  15
ENDBRANCH  13  14
ENDBRANCH   1  13
TORSDOF 6
ENDMDL
MODEL 8
REMARK VINA RESULT:    -6.801      3.601      4.918
REMARK INTER + INTRA:          -9.942
REMARK INTER:                  -9.263
REMARK INTRA:                  -0.679
REMARK UNBOUND:                -0.755
REMARK  6 active torsions:
REMARK  status: ('A' for Active; 'I' for Inactive)
REMARK    1  A    between atoms: N6_6  and  O7_7 
REMARK    2  A    between atoms: O7_7  and  C8_8 
REMARK    3  A    between atoms: C8_8  and  C9_9 
REMARK    4  A    between atoms: C9_9  and  C10_10 
REMARK    5  A    between atoms: C10_10  and  O11_11 
REMARK    6  A    between atoms: O11_11  and  C12_12 
ROOT
HETATM    1  C8    D T 609     -21.084   1.148  11.941  1.00 42.96     0.177 C 
ENDROOT
BRANCH   1   2
HETATM    2  O7    D T 609     -21.820   2.107  12.853  1.00 45.57    -0.242 OA
BRANCH   2   3
HETATM    3  N6    D T 609     -22.293   3.422  12.364  1.00 35.78    -0.046 N 
HETATM    4  C1    D T 609     -23.795   3.532  12.262  1.00 32.37     0.209 C 
HETATM    5  N2    D T 609     -24.214   4.827  11.654  1.00 31.22    -0.064 NA
HETATM    6  CM1   D T 609     -24.333   2.362  11.423  1.00 29.06     0.051 C 
HETATM    7  CM2   D T 609     -24.401   3.419  13.678  1.00 32.53     0.051 C 
HETATM    8  C3    D T 609     -23.383   5.876  11.610  1.00 33.38     0.781 C 
HETATM    9  N4    D T 609     -22.116   5.784  12.110  1.00 32.85     0.137 NA
HETATM   10  NH1   D T 609     -23.808   7.033  11.070  1.00 33.22     0.062 N 
HETATM   11  C5    D T 609     -21.566   4.589  12.484  1.00 34.53     0.785 C 
HETATM   12  NH2   D T 609     -20.344   4.574  12.958  1.00 32.63     0.063 N 
ENDBRANCH   2   3
ENDBRANCH   1   2
BRANCH   1  13
HETATM   13  C9    D T 609     -21.127  -0.262  12.677  1.00 41.72     0.068 C 
BRANCH  13  14
HETATM   14  C10   D T 609     -22.362  -0.242  13.702  1.00 44.58     0.151 C 
BRANCH  14  15
HETATM   15  O11   D T 609     -23.574  -0.670  12.963  1.00 45.50    -0.334 OA
BRANCH  15  16
HETATM   16  C12   D T 609     -23.675  -2.071  12.627  1.00 41.06     0.084 A 
HETATM   17  C13   D T 609     -24.471  -2.436  11.457  1.00 38.83     0.059 A 
HETATM   18  C14   D T 609     -24.637  -3.809  11.077  1.00 39.01     0.078 A 
HETATM   19 CL1    D T 609     -25.234  -1.205  10.517  1.00 34.26    -0.085 Cl
HETATM   20  C15   D T 609     -24.025  -4.869  11.856  1.00 39.27     0.048 A 
HETATM   21  C16   D T 609     -23.212  -4.523  13.039  1.00 40.25     0.049 A 
HETATM   22 CL2    D T 609     -24.284  -6.547  11.364  1.00 32.41    -0.086 Cl
HETATM   23  C17   D T 609     -23.038  -3.122  13.413  1.00 40.73     0.090 A 
HETATM   24 CL3    D T 609     -22.439  -5.784  14.031  1.00 40.57    -0.086 Cl
ENDBRANCH  15  16
ENDBRANCH  14  15
ENDBRANCH  13  14
ENDBRANCH   1  13
TORSDOF 6
ENDMDL
MODEL 9
REMARK VINA RESULT:    -6.697      3.572      5.007
REMARK INTER + INTRA:          -9.802
REMARK INTER:                  -9.442
REMARK INTRA:                  -0.360
REMARK UNBOUND:                -0.755
REMARK  6 active torsions:
REMARK  status: ('A' for Active; 'I' for Inactive)
REMARK    1  A    between atoms: N6_6  and  O7_7 
REMARK    2  A    between atoms: O7_7  and  C8_8 
REMARK    3  A    between atoms: C8_8  and  C9_9 
REMARK    4  A    between atoms: C9_9  and  C10_10 
REMARK    5  A    between atoms: C10_10  and  O11_11 
REMARK    6  A    between atoms: O11_11  and  C12_12 
ROOT
HETATM    1  C8    D T 609     -20.938   1.660  13.371  1.00 42.96     0.177 C 
ENDROOT
BRANCH   1   2
HETATM    2  O7    D T 609     -21.268   2.664  12.287  1.00 45.57    -0.242 OA
BRANCH   2   3
HETATM    3  N6    D T 609     -21.313   4.117  12.573  1.00 35.78    -0.046 N 
HETATM    4  C1    D T 609     -22.675   4.616  12.990  1.00 32.37     0.209 C 
HETATM    5  N2    D T 609     -22.695   6.098  13.149  1.00 31.22    -0.064 NA
HETATM    6  CM1   D T 609     -23.715   4.188  11.942  1.00 29.06     0.051 C 
HETATM    7  CM2   D T 609     -23.057   3.958  14.334  1.00 32.53     0.051 C 
HETATM    8  C3    D T 609     -21.563   6.797  13.303  1.00 33.38     0.781 C 
HETATM    9  N4    D T 609     -20.351   6.169  13.305  1.00 32.85     0.137 NA
HETATM   10  NH1   D T 609     -21.627   8.131  13.463  1.00 33.22     0.062 N 
HETATM   11  C5    D T 609     -20.210   4.857  12.949  1.00 34.53     0.785 C 
HETATM   12  NH2   D T 609     -19.015   4.316  12.974  1.00 32.63     0.063 N 
ENDBRANCH   2   3
ENDBRANCH   1   2
BRANCH   1  13
HETATM   13  C9    D T 609     -21.463   0.259  12.833  1.00 41.72     0.068 C 
BRANCH  13  14
HETATM   14  C10   D T 609     -22.666   0.547  11.810  1.00 44.58     0.151 C 
BRANCH  14  15
HETATM   15  O11   D T 609     -23.887  -0.100  12.349  1.00 45.50    -0.334 OA
BRANCH  15  16
HETATM   16  C12   D T 609     -24.059  -1.507  12.072  1.00 41.06     0.084 A 
HETATM   17  C13   D T 609     -23.902  -2.445  13.181  1.00 38.83     0.059 A 
HETATM   18  C14   D T 609     -24.033  -3.859  12.976  1.00 39.01     0.078 A 
HETATM   19 CL1    D T 609     -23.545  -1.854  14.763  1.00 34.26    -0.085 Cl
HETATM   20  C15   D T 609     -24.315  -4.389  11.656  1.00 39.27     0.048 A 
HETATM   21  C16   D T 609     -24.482  -3.460  10.520  1.00 40.25     0.049 A 
HETATM   22 CL2    D T 609     -24.437  -6.140  11.449  1.00 32.41    -0.086 Cl
HETATM   23  C17   D T 609     -24.358  -2.021  10.739  1.00 40.73     0.090 A 
HETATM   24 CL3    D T 609     -24.827  -4.057   8.879  1.00 40.57    -0.086 Cl
ENDBRANCH  15  16
ENDBRANCH  14  15
ENDBRANCH  13  14
ENDBRANCH   1  13
TORSDOF 6
ENDMDL
