MODEL 1
REMARK VINA RESULT:    -7.778      0.000      0.000
REMARK INTER + INTRA:         -10.899
REMARK INTER:                 -10.506
REMARK INTRA:                  -0.393
REMARK UNBOUND:                -0.393
REMARK  6 active torsions:
REMARK  status: ('A' for Active; 'I' for Inactive)
REMARK    1  A    between atoms: N6_6  and  O7_7 
REMARK    2  A    between atoms: O7_7  and  C8_8 
REMARK    3  A    between atoms: C8_8  and  C9_9 
REMARK    4  A    between atoms: C9_9  and  C10_10 
REMARK    5  A    between atoms: C10_10  and  O11_11 
REMARK    6  A    between atoms: O11_11  and  C12_12 
ROOT
HETATM    1  C8    D T 609     -21.395   4.325  12.974  1.00 42.96     0.177 C 
ENDROOT
BRANCH   1   2
HETATM    2  O7    D T 609     -21.325   3.119  12.060  1.00 45.57    -0.242 OA
BRANCH   2   3
HETATM    3  N6    D T 609     -20.149   2.218  12.064  1.00 35.78    -0.046 N 
HETATM    4  C1    D T 609     -20.466   0.803  12.483  1.00 32.37     0.209 C 
HETATM    5  N2    D T 609     -19.234  -0.031  12.587  1.00 31.22    -0.064 NA
HETATM    6  CM1   D T 609     -21.198   0.825  13.834  1.00 29.06     0.051 C 
HETATM    7  CM2   D T 609     -21.415   0.175  11.439  1.00 32.53     0.051 C 
HETATM    8  C3    D T 609     -18.094   0.334  11.986  1.00 33.38     0.781 C 
HETATM    9  N4    D T 609     -18.024   1.494  11.270  1.00 32.85     0.137 NA
HETATM   10  NH1   D T 609     -17.012  -0.458  12.089  1.00 33.22     0.062 N 
HETATM   11  C5    D T 609     -19.021   2.428  11.297  1.00 34.53     0.785 C 
HETATM   12  NH2   D T 609     -18.888   3.520  10.583  1.00 32.63     0.063 N 
ENDBRANCH   2   3
ENDBRANCH   1   2
BRANCH   1  13
HETATM   13  C9    D T 609     -20.886   5.554  12.103  1.00 41.72     0.068 C 
BRANCH  13  14
HETATM   14  C10   D T 609     -21.637   6.871  12.631  1.00 44.58     0.151 C 
BRANCH  14  15
HETATM   15  O11   D T 609     -23.047   6.510  12.913  1.00 45.50    -0.334 OA
BRANCH  15  16
HETATM   16  C12   D T 609     -24.063   7.414  12.425  1.00 41.06     0.084 A 
HETATM   17  C13   D T 609     -24.641   7.143  11.110  1.00 38.83     0.059 A 
HETATM   18  C14   D T 609     -25.636   8.010  10.549  1.00 39.01     0.078 A 
HETATM   19 CL1    D T 609     -24.119   5.768  10.207  1.00 34.26    -0.085 Cl
HETATM   20  C15   D T 609     -26.083   9.185  11.272  1.00 39.27     0.048 A 
HETATM   21  C16   D T 609     -25.517   9.476  12.605  1.00 40.25     0.049 A 
HETATM   22 CL2    D T 609     -27.289  10.238  10.524  1.00 32.41    -0.086 Cl
HETATM   23  C17   D T 609     -24.512   8.581  13.173  1.00 40.73     0.090 A 
HETATM   24 CL3    D T 609     -26.028  10.904  13.536  1.00 40.57    -0.086 Cl
ENDBRANCH  15  16
ENDBRANCH  14  15
ENDBRANCH  13  14
ENDBRANCH   1  13
TORSDOF 6
ENDMDL
MODEL 2
REMARK VINA RESULT:    -7.576      5.220      8.864
REMARK INTER + INTRA:         -10.627
REMARK INTER:                  -9.991
REMARK INTRA:                  -0.636
REMARK UNBOUND:                -0.393
REMARK  6 active torsions:
REMARK  status: ('A' for Active; 'I' for Inactive)
REMARK    1  A    between atoms: N6_6  and  O7_7 
REMARK    2  A    between atoms: O7_7  and  C8_8 
REMARK    3  A    between atoms: C8_8  and  C9_9 
REMARK    4  A    between atoms: C9_9  and  C10_10 
REMARK    5  A    between atoms: C10_10  and  O11_11 
REMARK    6  A    between atoms: O11_11  and  C12_12 
ROOT
HETATM    1  C8    D T 609     -22.210   8.067  12.646  1.00 42.96     0.177 C 
ENDROOT
BRANCH   1   2
HETATM    2  O7    D T 609     -23.668   7.770  12.934  1.00 45.57    -0.242 OA
BRANCH   2   3
HETATM    3  N6    D T 609     -24.753   8.550  12.293  1.00 35.78    -0.046 N 
HETATM    4  C1    D T 609     -25.606   7.742  11.346  1.00 32.37     0.209 C 
HETATM    5  N2    D T 609     -26.604   8.594  10.638  1.00 31.22    -0.064 NA
HETATM    6  CM1   D T 609     -24.702   7.036  10.323  1.00 29.06     0.051 C 
HETATM    7  CM2   D T 609     -26.351   6.654  12.151  1.00 32.53     0.051 C 
HETATM    8  C3    D T 609     -26.943   9.802  11.106  1.00 33.38     0.781 C 
HETATM    9  N4    D T 609     -26.371  10.296  12.243  1.00 32.85     0.137 NA
HETATM   10  NH1   D T 609     -27.862  10.531  10.447  1.00 33.22     0.062 N 
HETATM   11  C5    D T 609     -25.297   9.695  12.837  1.00 34.53     0.785 C 
HETATM   12  NH2   D T 609     -24.798  10.222  13.930  1.00 32.63     0.063 N 
ENDBRANCH   2   3
ENDBRANCH   1   2
BRANCH   1  13
HETATM   13  C9    D T 609     -21.412   6.767  13.094  1.00 41.72     0.068 C 
BRANCH  13  14
HETATM   14  C10   D T 609     -21.264   5.816  11.809  1.00 44.58     0.151 C 
BRANCH  14  15
HETATM   15  O11   D T 609     -22.266   4.730  11.927  1.00 45.50    -0.334 OA
BRANCH  15  16
HETATM   16  C12   D T 609     -21.759   3.394  12.133  1.00 41.06     0.084 A 
HETATM   17  C13   D T 609     -22.618   2.273  11.753  1.00 38.83     0.059 A 
HETATM   18  C14   D T 609     -22.193   0.918  11.950  1.00 39.01     0.078 A 
HETATM   19 CL1    D T 609     -24.171   2.575  11.064  1.00 34.26    -0.085 Cl
HETATM   20  C15   D T 609     -20.902   0.629  12.545  1.00 39.27     0.048 A 
HETATM   21  C16   D T 609     -20.015   1.745  12.932  1.00 40.25     0.049 A 
HETATM   22 CL2    D T 609     -20.438  -1.058  12.795  1.00 32.41    -0.086 Cl
HETATM   23  C17   D T 609     -20.451   3.122  12.717  1.00 40.73     0.090 A 
HETATM   24 CL3    D T 609     -18.421   1.448  13.666  1.00 40.57    -0.086 Cl
ENDBRANCH  15  16
ENDBRANCH  14  15
ENDBRANCH  13  14
ENDBRANCH   1  13
TORSDOF 6
ENDMDL
MODEL 3
REMARK VINA RESULT:    -7.536      1.562      2.457
REMARK INTER + INTRA:         -10.572
REMARK INTER:                 -10.349
REMARK INTRA:                  -0.223
REMARK UNBOUND:                -0.393
REMARK  6 active torsions:
REMARK  status: ('A' for Active; 'I' for Inactive)
REMARK    1  A    between atoms: N6_6  and  O7_7 
REMARK    2  A    between atoms: O7_7  and  C8_8 
REMARK    3  A    between atoms: C8_8  and  C9_9 
REMARK    4  A    between atoms: C9_9  and  C10_10 
REMARK    5  A    between atoms: C10_10  and  O11_11 
REMARK    6  A    between atoms: O11_11  and  C12_12 
ROOT
HETATM    1  C8    D T 609     -20.614   3.736  12.612  1.00 42.96     0.177 C 
ENDROOT
BRANCH   1   2
HETATM    2  O7    D T 609     -20.249   2.573  11.713  1.00 45.57    -0.242 OA
BRANCH   2   3
HETATM    3  N6    D T 609     -20.811   1.221  11.940  1.00 35.78    -0.046 N 
HETATM    4  C1    D T 609     -19.875   0.285  12.667  1.00 32.37     0.209 C 
HETATM    5  N2    D T 609     -20.437  -1.092  12.764  1.00 31.22    -0.064 NA
HETATM    6  CM1   D T 609     -18.524   0.249  11.934  1.00 29.06     0.051 C 
HETATM    7  CM2   D T 609     -19.628   0.833  14.089  1.00 32.53     0.051 C 
HETATM    8  C3    D T 609     -21.745  -1.323  12.598  1.00 33.38     0.781 C 
HETATM    9  N4    D T 609     -22.604  -0.299  12.320  1.00 32.85     0.137 NA
HETATM   10  NH1   D T 609     -22.214  -2.579  12.714  1.00 33.22     0.062 N 
HETATM   11  C5    D T 609     -22.163   0.953  11.995  1.00 34.53     0.785 C 
HETATM   12  NH2   D T 609     -23.045   1.890  11.740  1.00 32.63     0.063 N 
ENDBRANCH   2   3
ENDBRANCH   1   2
BRANCH   1  13
HETATM   13  C9    D T 609     -20.274   5.046  11.777  1.00 41.72     0.068 C 
BRANCH  13  14
HETATM   14  C10   D T 609     -21.135   6.254  12.390  1.00 44.58     0.151 C 
BRANCH  14  15
HETATM   15  O11   D T 609     -22.548   5.811  12.473  1.00 45.50    -0.334 OA
BRANCH  15  16
HETATM   16  C12   D T 609     -23.558   6.780  12.118  1.00 41.06     0.084 A 
HETATM   17  C13   D T 609     -24.341   6.535  10.907  1.00 38.83     0.059 A 
HETATM   18  C14   D T 609     -25.344   7.465  10.478  1.00 39.01     0.078 A 
HETATM   19 CL1    D T 609     -24.055   5.115   9.970  1.00 34.26    -0.085 Cl
HETATM   20  C15   D T 609     -25.597   8.679  11.231  1.00 39.27     0.048 A 
HETATM   21  C16   D T 609     -24.822   8.944  12.460  1.00 40.25     0.049 A 
HETATM   22 CL2    D T 609     -26.823   9.807  10.643  1.00 32.41    -0.086 Cl
HETATM   23  C17   D T 609     -23.809   7.986  12.896  1.00 40.73     0.090 A 
HETATM   24 CL3    D T 609     -25.089  10.417  13.422  1.00 40.57    -0.086 Cl
ENDBRANCH  15  16
ENDBRANCH  14  15
ENDBRANCH  13  14
ENDBRANCH   1  13
TORSDOF 6
ENDMDL
MODEL 4
REMARK VINA RESULT:    -7.535      5.730      9.047
REMARK INTER + INTRA:         -10.572
REMARK INTER:                 -10.068
REMARK INTRA:                  -0.503
REMARK UNBOUND:                -0.393
REMARK  6 active torsions:
REMARK  status: ('A' for Active; 'I' for Inactive)
REMARK    1  A    between atoms: N6_6  and  O7_7 
REMARK    2  A    between atoms: O7_7  and  C8_8 
REMARK    3  A    between atoms: C8_8  and  C9_9 
REMARK    4  A    between atoms: C9_9  and  C10_10 
REMARK    5  A    between atoms: C10_10  and  O11_11 
REMARK    6  A    between atoms: O11_11  and  C12_12 
ROOT
HETATM    1  C8    D T 609     -22.382   8.300  12.520  1.00 42.96     0.177 C 
ENDROOT
BRANCH   1   2
HETATM    2  O7    D T 609     -23.822   8.000  12.879  1.00 45.57    -0.242 OA
BRANCH   2   3
HETATM    3  N6    D T 609     -24.940   8.766  12.279  1.00 35.78    -0.046 N 
HETATM    4  C1    D T 609     -25.835   7.941  11.386  1.00 32.37     0.209 C 
HETATM    5  N2    D T 609     -26.868   8.779  10.714  1.00 31.22    -0.064 NA
HETATM    6  CM1   D T 609     -24.977   7.222  10.332  1.00 29.06     0.051 C 
HETATM    7  CM2   D T 609     -26.535   6.864  12.243  1.00 32.53     0.051 C 
HETATM    8  C3    D T 609     -27.189   9.993  11.179  1.00 33.38     0.781 C 
HETATM    9  N4    D T 609     -26.565  10.506  12.279  1.00 32.85     0.137 NA
HETATM   10  NH1   D T 609     -28.142  10.708  10.553  1.00 33.22     0.062 N 
HETATM   11  C5    D T 609     -25.462   9.918  12.830  1.00 34.53     0.785 C 
HETATM   12  NH2   D T 609     -24.913  10.464  13.889  1.00 32.63     0.063 N 
ENDBRANCH   2   3
ENDBRANCH   1   2
BRANCH   1  13
HETATM   13  C9    D T 609     -21.542   7.055  13.041  1.00 41.72     0.068 C 
BRANCH  13  14
HETATM   14  C10   D T 609     -22.071   5.751  12.267  1.00 44.58     0.151 C 
BRANCH  14  15
HETATM   15  O11   D T 609     -20.891   5.019  11.748  1.00 45.50    -0.334 OA
BRANCH  15  16
HETATM   16  C12   D T 609     -20.805   3.612  12.061  1.00 41.06     0.084 A 
HETATM   17  C13   D T 609     -19.759   2.830  11.403  1.00 38.83     0.059 A 
HETATM   18  C14   D T 609     -19.628   1.423  11.645  1.00 39.01     0.078 A 
HETATM   19 CL1    D T 609     -18.668   3.600  10.310  1.00 34.26    -0.085 Cl
HETATM   20  C15   D T 609     -20.541   0.740  12.542  1.00 39.27     0.048 A 
HETATM   21  C16   D T 609     -21.602   1.511  13.223  1.00 40.25     0.049 A 
HETATM   22 CL2    D T 609     -20.356  -1.001  12.783  1.00 32.41    -0.086 Cl
HETATM   23  C17   D T 609     -21.721   2.946  12.978  1.00 40.73     0.090 A 
HETATM   24 CL3    D T 609     -22.749   0.725  14.333  1.00 40.57    -0.086 Cl
ENDBRANCH  15  16
ENDBRANCH  14  15
ENDBRANCH  13  14
ENDBRANCH   1  13
TORSDOF 6
ENDMDL
MODEL 5
REMARK VINA RESULT:    -7.408      4.969      7.917
REMARK INTER + INTRA:         -10.400
REMARK INTER:                  -9.702
REMARK INTRA:                  -0.698
REMARK UNBOUND:                -0.393
REMARK  6 active torsions:
REMARK  status: ('A' for Active; 'I' for Inactive)
REMARK    1  A    between atoms: N6_6  and  O7_7 
REMARK    2  A    between atoms: O7_7  and  C8_8 
REMARK    3  A    between atoms: C8_8  and  C9_9 
REMARK    4  A    between atoms: C9_9  and  C10_10 
REMARK    5  A    between atoms: C10_10  and  O11_11 
REMARK    6  A    between atoms: O11_11  and  C12_12 
ROOT
HETATM    1  C8    D T 609     -24.260   2.579  11.008  1.00 42.96     0.177 C 
ENDROOT
BRANCH   1   2
HETATM    2  O7    D T 609     -22.924   3.221  11.322  1.00 45.57    -0.242 OA
BRANCH   2   3
HETATM    3  N6    D T 609     -22.816   4.670  11.608  1.00 35.78    -0.046 N 
HETATM    4  C1    D T 609     -21.521   5.065  12.278  1.00 32.37     0.209 C 
HETATM    5  N2    D T 609     -21.511   6.508  12.652  1.00 31.22    -0.064 NA
HETATM    6  CM1   D T 609     -21.312   4.198  13.530  1.00 29.06     0.051 C 
HETATM    7  CM2   D T 609     -20.353   4.786  11.307  1.00 32.53     0.051 C 
HETATM    8  C3    D T 609     -22.358   7.379  12.088  1.00 33.38     0.781 C 
HETATM    9  N4    D T 609     -23.269   6.965  11.160  1.00 32.85     0.137 NA
HETATM   10  NH1   D T 609     -22.302   8.676  12.441  1.00 33.22     0.062 N 
HETATM   11  C5    D T 609     -23.506   5.642  10.912  1.00 34.53     0.785 C 
HETATM   12  NH2   D T 609     -24.395   5.314  10.005  1.00 32.63     0.063 N 
ENDBRANCH   2   3
ENDBRANCH   1   2
BRANCH   1  13
HETATM   13  C9    D T 609     -24.381   1.337  11.993  1.00 41.72     0.068 C 
BRANCH  13  14
HETATM   14  C10   D T 609     -24.265   0.000  11.111  1.00 44.58     0.151 C 
BRANCH  14  15
HETATM   15  O11   D T 609     -23.274  -0.891  11.760  1.00 45.50    -0.334 OA
BRANCH  15  16
HETATM   16  C12   D T 609     -22.001  -0.306  12.111  1.00 41.06     0.084 A 
HETATM   17  C13   D T 609     -21.659  -0.217  13.529  1.00 38.83     0.059 A 
HETATM   18  C14   D T 609     -20.424   0.374  13.955  1.00 39.01     0.078 A 
HETATM   19 CL1    D T 609     -22.756  -0.821  14.717  1.00 34.26    -0.085 Cl
HETATM   20  C15   D T 609     -19.489   0.910  12.984  1.00 39.27     0.048 A 
HETATM   21  C16   D T 609     -19.810   0.826  11.545  1.00 40.25     0.049 A 
HETATM   22 CL2    D T 609     -17.995   1.655  13.562  1.00 32.41    -0.086 Cl
HETATM   23  C17   D T 609     -21.066   0.213  11.120  1.00 40.73     0.090 A 
HETATM   24 CL3    D T 609     -18.700   1.467  10.311  1.00 40.57    -0.086 Cl
ENDBRANCH  15  16
ENDBRANCH  14  15
ENDBRANCH  13  14
ENDBRANCH   1  13
TORSDOF 6
ENDMDL
MODEL 6
REMARK VINA RESULT:    -7.383      5.265      8.973
REMARK INTER + INTRA:         -10.366
REMARK INTER:                  -9.901
REMARK INTRA:                  -0.465
REMARK UNBOUND:                -0.393
REMARK  6 active torsions:
REMARK  status: ('A' for Active; 'I' for Inactive)
REMARK    1  A    between atoms: N6_6  and  O7_7 
REMARK    2  A    between atoms: O7_7  and  C8_8 
REMARK    3  A    between atoms: C8_8  and  C9_9 
REMARK    4  A    between atoms: C9_9  and  C10_10 
REMARK    5  A    between atoms: C10_10  and  O11_11 
REMARK    6  A    between atoms: O11_11  and  C12_12 
ROOT
HETATM    1  C8    D T 609     -20.588  -0.361  13.208  1.00 42.96     0.177 C 
ENDROOT
BRANCH   1   2
HETATM    2  O7    D T 609     -20.599   0.654  12.083  1.00 45.57    -0.242 OA
BRANCH   2   3
HETATM    3  N6    D T 609     -20.656   2.108  12.361  1.00 35.78    -0.046 N 
HETATM    4  C1    D T 609     -19.311   2.793  12.306  1.00 32.37     0.209 C 
HETATM    5  N2    D T 609     -19.405   4.225  12.708  1.00 31.22    -0.064 NA
HETATM    6  CM1   D T 609     -18.328   2.054  13.227  1.00 29.06     0.051 C 
HETATM    7  CM2   D T 609     -18.767   2.706  10.864  1.00 32.53     0.051 C 
HETATM    8  C3    D T 609     -20.576   4.875  12.702  1.00 33.38     0.781 C 
HETATM    9  N4    D T 609     -21.726   4.235  12.338  1.00 32.85     0.137 NA
HETATM   10  NH1   D T 609     -20.612   6.173  13.053  1.00 33.22     0.062 N 
HETATM   11  C5    D T 609     -21.783   2.881  12.167  1.00 34.53     0.785 C 
HETATM   12  NH2   D T 609     -22.921   2.332  11.816  1.00 32.63     0.063 N 
ENDBRANCH   2   3
ENDBRANCH   1   2
BRANCH   1  13
HETATM   13  C9    D T 609     -21.562   0.223  14.322  1.00 41.72     0.068 C 
BRANCH  13  14
HETATM   14  C10   D T 609     -22.768  -0.820  14.511  1.00 44.58     0.151 C 
BRANCH  14  15
HETATM   15  O11   D T 609     -23.400  -1.032  13.187  1.00 45.50    -0.334 OA
BRANCH  15  16
HETATM   16  C12   D T 609     -23.484  -2.394  12.714  1.00 41.06     0.084 A 
HETATM   17  C13   D T 609     -24.199  -2.638  11.463  1.00 38.83     0.059 A 
HETATM   18  C14   D T 609     -24.345  -3.967  10.944  1.00 39.01     0.078 A 
HETATM   19 CL1    D T 609     -24.889  -1.316  10.595  1.00 34.26    -0.085 Cl
HETATM   20  C15   D T 609     -23.795  -5.103  11.658  1.00 39.27     0.048 A 
HETATM   21  C16   D T 609     -23.063  -4.880  12.922  1.00 40.25     0.049 A 
HETATM   22 CL2    D T 609     -24.028  -6.723  10.992  1.00 32.41    -0.086 Cl
HETATM   23  C17   D T 609     -22.910  -3.522  13.438  1.00 40.73     0.090 A 
HETATM   24 CL3    D T 609     -22.367  -6.236  13.840  1.00 40.57    -0.086 Cl
ENDBRANCH  15  16
ENDBRANCH  14  15
ENDBRANCH  13  14
ENDBRANCH   1  13
TORSDOF 6
ENDMDL
MODEL 7
REMARK VINA RESULT:    -7.192      5.345      8.893
REMARK INTER + INTRA:         -10.108
REMARK INTER:                  -9.961
REMARK INTRA:                  -0.148
REMARK UNBOUND:                -0.393
REMARK  6 active torsions:
REMARK  status: ('A' for Active; 'I' for Inactive)
REMARK    1  A    between atoms: N6_6  and  O7_7 
REMARK    2  A    between atoms: O7_7  and  C8_8 
REMARK    3  A    between atoms: C8_8  and  C9_9 
REMARK    4  A    between atoms: C9_9  and  C10_10 
REMARK    5  A    between atoms: C10_10  and  O11_11 
REMARK    6  A    between atoms: O11_11  and  C12_12 
ROOT
HETATM    1  C8    D T 609     -22.811   6.575  11.952  1.00 42.96     0.177 C 
ENDROOT
BRANCH   1   2
HETATM    2  O7    D T 609     -24.146   6.814  12.628  1.00 45.57    -0.242 OA
BRANCH   2   3
HETATM    3  N6    D T 609     -25.138   7.756  12.059  1.00 35.78    -0.046 N 
HETATM    4  C1    D T 609     -25.394   8.968  12.923  1.00 32.37     0.209 C 
HETATM    5  N2    D T 609     -26.483   9.821  12.367  1.00 31.22    -0.064 NA
HETATM    6  CM1   D T 609     -25.761   8.510  14.344  1.00 29.06     0.051 C 
HETATM    7  CM2   D T 609     -24.096   9.799  13.013  1.00 32.53     0.051 C 
HETATM    8  C3    D T 609     -26.859   9.722  11.086  1.00 33.38     0.781 C 
HETATM    9  N4    D T 609     -26.262   8.823  10.251  1.00 32.85     0.137 NA
HETATM   10  NH1   D T 609     -27.833  10.525  10.621  1.00 33.22     0.062 N 
HETATM   11  C5    D T 609     -25.417   7.853  10.711  1.00 34.53     0.785 C 
HETATM   12  NH2   D T 609     -24.876   7.021   9.853  1.00 32.63     0.063 N 
ENDBRANCH   2   3
ENDBRANCH   1   2
BRANCH   1  13
HETATM   13  C9    D T 609     -21.709   6.976  13.026  1.00 41.72     0.068 C 
BRANCH  13  14
HETATM   14  C10   D T 609     -20.847   5.662  13.355  1.00 44.58     0.151 C 
BRANCH  14  15
HETATM   15  O11   D T 609     -20.825   4.814  12.139  1.00 45.50    -0.334 OA
BRANCH  15  16
HETATM   16  C12   D T 609     -20.792   3.385  12.340  1.00 41.06     0.084 A 
HETATM   17  C13   D T 609     -19.790   2.616  11.604  1.00 38.83     0.059 A 
HETATM   18  C14   D T 609     -19.713   1.190  11.733  1.00 39.01     0.078 A 
HETATM   19 CL1    D T 609     -18.686   3.426  10.553  1.00 34.26    -0.085 Cl
HETATM   20  C15   D T 609     -20.639   0.476  12.591  1.00 39.27     0.048 A 
HETATM   21  C16   D T 609     -21.656   1.232  13.350  1.00 40.25     0.049 A 
HETATM   22 CL2    D T 609     -20.521  -1.285  12.693  1.00 32.41    -0.086 Cl
HETATM   23  C17   D T 609     -21.720   2.686  13.221  1.00 40.73     0.090 A 
HETATM   24 CL3    D T 609     -22.817   0.408  14.418  1.00 40.57    -0.086 Cl
ENDBRANCH  15  16
ENDBRANCH  14  15
ENDBRANCH  13  14
ENDBRANCH   1  13
TORSDOF 6
ENDMDL
MODEL 8
REMARK VINA RESULT:    -7.124      5.143      7.495
REMARK INTER + INTRA:         -10.016
REMARK INTER:                  -9.218
REMARK INTRA:                  -0.798
REMARK UNBOUND:                -0.393
REMARK  6 active torsions:
REMARK  status: ('A' for Active; 'I' for Inactive)
REMARK    1  A    between atoms: N6_6  and  O7_7 
REMARK    2  A    between atoms: O7_7  and  C8_8 
REMARK    3  A    between atoms: C8_8  and  C9_9 
REMARK    4  A    between atoms: C9_9  and  C10_10 
REMARK    5  A    between atoms: C10_10  and  O11_11 
REMARK    6  A    between atoms: O11_11  and  C12_12 
ROOT
HETATM    1  C8    D T 609     -21.249  -1.336  12.900  1.00 42.96     0.177 C 
ENDROOT
BRANCH   1   2
HETATM    2  O7    D T 609     -20.919  -0.367  11.784  1.00 45.57    -0.242 OA
BRANCH   2   3
HETATM    3  N6    D T 609     -20.545   1.037  12.071  1.00 35.78    -0.046 N 
HETATM    4  C1    D T 609     -19.111   1.368  11.732  1.00 32.37     0.209 C 
HETATM    5  N2    D T 609     -18.751   2.754  12.148  1.00 31.22    -0.064 NA
HETATM    6  CM1   D T 609     -18.180   0.356  12.419  1.00 29.06     0.051 C 
HETATM    7  CM2   D T 609     -18.916   1.232  10.206  1.00 32.53     0.051 C 
HETATM    8  C3    D T 609     -19.693   3.673  12.395  1.00 33.38     0.781 C 
HETATM    9  N4    D T 609     -21.017   3.361  12.285  1.00 32.85     0.137 NA
HETATM   10  NH1   D T 609     -19.324   4.917  12.750  1.00 33.22     0.062 N 
HETATM   11  C5    D T 609     -21.452   2.076  12.126  1.00 34.53     0.785 C 
HETATM   12  NH2   D T 609     -22.740   1.848  12.025  1.00 32.63     0.063 N 
ENDBRANCH   2   3
ENDBRANCH   1   2
BRANCH   1  13
HETATM   13  C9    D T 609     -22.282  -2.372  12.277  1.00 41.72     0.068 C 
BRANCH  13  14
HETATM   14  C10   D T 609     -23.675  -2.204  13.058  1.00 44.58     0.151 C 
BRANCH  14  15
HETATM   15  O11   D T 609     -24.749  -2.759  12.200  1.00 45.50    -0.334 OA
BRANCH  15  16
HETATM   16  C12   D T 609     -24.997  -2.087  10.946  1.00 41.06     0.084 A 
HETATM   17  C13   D T 609     -24.962  -2.889   9.724  1.00 38.83     0.059 A 
HETATM   18  C14   D T 609     -25.174  -2.288   8.441  1.00 39.01     0.078 A 
HETATM   19 CL1    D T 609     -24.652  -4.585   9.817  1.00 34.26    -0.085 Cl
HETATM   20  C15   D T 609     -25.416  -0.862   8.325  1.00 39.27     0.048 A 
HETATM   21  C16   D T 609     -25.462  -0.032   9.546  1.00 40.25     0.049 A 
HETATM   22 CL2    D T 609     -25.642  -0.164   6.717  1.00 32.41    -0.086 Cl
HETATM   23  C17   D T 609     -25.256  -0.656  10.851  1.00 40.73     0.090 A 
HETATM   24 CL3    D T 609     -25.756   1.721   9.463  1.00 40.57    -0.086 Cl
ENDBRANCH  15  16
ENDBRANCH  14  15
ENDBRANCH  13  14
ENDBRANCH   1  13
TORSDOF 6
ENDMDL
MODEL 9
REMARK VINA RESULT:    -7.048      6.232     10.188
REMARK INTER + INTRA:          -9.913
REMARK INTER:                  -9.397
REMARK INTRA:                  -0.516
REMARK UNBOUND:                -0.393
REMARK  6 active torsions:
REMARK  status: ('A' for Active; 'I' for Inactive)
REMARK    1  A    between atoms: N6_6  and  O7_7 
REMARK    2  A    between atoms: O7_7  and  C8_8 
REMARK    3  A    between atoms: C8_8  and  C9_9 
REMARK    4  A    between atoms: C9_9  and  C10_10 
REMARK    5  A    between atoms: C10_10  and  O11_11 
REMARK    6  A    between atoms: O11_11  and  C12_12 
ROOT
HETATM    1  C8    D T 609     -21.482  -1.393  12.808  1.00 42.96     0.177 C 
ENDROOT
BRANCH   1   2
HETATM    2  O7    D T 609     -21.110  -0.405  11.721  1.00 45.57    -0.242 OA
BRANCH   2   3
HETATM    3  N6    D T 609     -20.627   0.956  12.052  1.00 35.78    -0.046 N 
HETATM    4  C1    D T 609     -19.182   1.197  11.688  1.00 32.37     0.209 C 
HETATM    5  N2    D T 609     -18.712   2.534  12.148  1.00 31.22    -0.064 NA
HETATM    6  CM1   D T 609     -18.311   0.093  12.309  1.00 29.06     0.051 C 
HETATM    7  CM2   D T 609     -19.035   1.109  10.153  1.00 32.53     0.051 C 
HETATM    8  C3    D T 609     -19.578   3.509  12.455  1.00 33.38     0.781 C 
HETATM    9  N4    D T 609     -20.924   3.298  12.369  1.00 32.85     0.137 NA
HETATM   10  NH1   D T 609     -19.110   4.707  12.848  1.00 33.22     0.062 N 
HETATM   11  C5    D T 609     -21.455   2.054  12.172  1.00 34.53     0.785 C 
HETATM   12  NH2   D T 609     -22.758   1.924  12.098  1.00 32.63     0.063 N 
ENDBRANCH   2   3
ENDBRANCH   1   2
BRANCH   1  13
HETATM   13  C9    D T 609     -23.071  -1.430  12.828  1.00 41.72     0.068 C 
BRANCH  13  14
HETATM   14  C10   D T 609     -23.519  -2.762  13.606  1.00 44.58     0.151 C 
BRANCH  14  15
HETATM   15  O11   D T 609     -24.573  -3.426  12.802  1.00 45.50    -0.334 OA
BRANCH  15  16
HETATM   16  C12   D T 609     -24.209  -4.655  12.136  1.00 41.06     0.084 A 
HETATM   17  C13   D T 609     -24.082  -4.629  10.680  1.00 38.83     0.059 A 
HETATM   18  C14   D T 609     -23.748  -5.815   9.948  1.00 39.01     0.078 A 
HETATM   19 CL1    D T 609     -24.345  -3.155   9.820  1.00 34.26    -0.085 Cl
HETATM   20  C15   D T 609     -23.541  -7.074  10.637  1.00 39.27     0.048 A 
HETATM   21  C16   D T 609     -23.658  -7.124  12.109  1.00 40.25     0.049 A 
HETATM   22 CL2    D T 609     -23.161  -8.514   9.685  1.00 32.41    -0.086 Cl
HETATM   23  C17   D T 609     -23.988  -5.908  12.848  1.00 40.73     0.090 A 
HETATM   24 CL3    D T 609     -23.414  -8.641  13.006  1.00 40.57    -0.086 Cl
ENDBRANCH  15  16
ENDBRANCH  14  15
ENDBRANCH  13  14
ENDBRANCH   1  13
TORSDOF 6
ENDMDL
