MODEL 1
REMARK VINA RESULT:    -7.543      0.000      0.000
REMARK INTER + INTRA:         -11.346
REMARK INTER:                 -10.188
REMARK INTRA:                  -1.158
REMARK UNBOUND:                -1.158
REMARK  6 active torsions:
REMARK  status: ('A' for Active; 'I' for Inactive)
REMARK    1  A    between atoms: N6_6  and  O7_7 
REMARK    2  A    between atoms: O7_7  and  C8_8 
REMARK    3  A    between atoms: C8_8  and  C9_9 
REMARK    4  A    between atoms: C9_9  and  C10_10 
REMARK    5  A    between atoms: C10_10  and  O11_11 
REMARK    6  A    between atoms: O11_11  and  C12_12 
ROOT
HETATM    1  C8    D T 609     -20.095   5.766  11.575  1.00 42.96     0.177 C 
ENDROOT
BRANCH   1   2
HETATM    2  O7    D T 609     -21.044   5.655  12.749  1.00 45.57    -0.242 OA
BRANCH   2   3
HETATM    3  N6    D T 609     -22.434   6.163  12.665  1.00 35.78    -0.046 N 
HETATM    4  C1    D T 609     -23.486   5.102  12.876  1.00 32.37     0.209 C 
HETATM    5  N2    D T 609     -24.861   5.639  12.665  1.00 31.22    -0.064 NA
HETATM    6  CM1   D T 609     -23.227   3.932  11.914  1.00 29.06     0.051 C 
HETATM    7  CM2   D T 609     -23.369   4.564  14.319  1.00 32.53     0.051 C 
HETATM    8  C3    D T 609     -25.107   6.955  12.700  1.00 33.38     0.781 C 
HETATM    9  N4    D T 609     -24.099   7.847  12.919  1.00 32.85     0.137 NA
HETATM   10  NH1   D T 609     -26.366   7.395  12.523  1.00 33.22     0.062 N 
HETATM   11  C5    D T 609     -22.783   7.477  12.905  1.00 34.53     0.785 C 
HETATM   12  NH2   D T 609     -21.864   8.388  13.124  1.00 32.63     0.063 N 
ENDBRANCH   2   3
ENDBRANCH   1   2
BRANCH   1  13
HETATM   13  C9    D T 609     -19.003   4.630  11.797  1.00 41.72     0.068 C 
BRANCH  13  14
HETATM   14  C10   D T 609     -18.980   4.273  13.363  1.00 44.58     0.151 C 
BRANCH  14  15
HETATM   15  O11   D T 609     -18.539   2.865  13.502  1.00 45.50    -0.334 OA
BRANCH  15  16
HETATM   16  C12   D T 609     -19.543   1.845  13.311  1.00 41.06     0.084 A 
HETATM   17  C13   D T 609     -19.242   0.755  12.384  1.00 38.83     0.059 A 
HETATM   18  C14   D T 609     -20.199  -0.280  12.124  1.00 39.01     0.078 A 
HETATM   19 CL1    D T 609     -17.715   0.710  11.579  1.00 34.26    -0.085 Cl
HETATM   20  C15   D T 609     -21.498  -0.261  12.769  1.00 39.27     0.048 A 
HETATM   21  C16   D T 609     -21.825   0.826  13.714  1.00 40.25     0.049 A 
HETATM   22 CL2    D T 609     -22.655  -1.543  12.391  1.00 32.41    -0.086 Cl
HETATM   23  C17   D T 609     -20.838   1.871  13.980  1.00 40.73     0.090 A 
HETATM   24 CL3    D T 609     -23.404   0.898  14.531  1.00 40.57    -0.086 Cl
ENDBRANCH  15  16
ENDBRANCH  14  15
ENDBRANCH  13  14
ENDBRANCH   1  13
TORSDOF 6
ENDMDL
MODEL 2
REMARK VINA RESULT:    -7.530      1.798      2.086
REMARK INTER + INTRA:         -11.329
REMARK INTER:                 -10.521
REMARK INTRA:                  -0.808
REMARK UNBOUND:                -1.158
REMARK  6 active torsions:
REMARK  status: ('A' for Active; 'I' for Inactive)
REMARK    1  A    between atoms: N6_6  and  O7_7 
REMARK    2  A    between atoms: O7_7  and  C8_8 
REMARK    3  A    between atoms: C8_8  and  C9_9 
REMARK    4  A    between atoms: C9_9  and  C10_10 
REMARK    5  A    between atoms: C10_10  and  O11_11 
REMARK    6  A    between atoms: O11_11  and  C12_12 
ROOT
HETATM    1  C8    D T 609     -20.666   6.311  11.859  1.00 42.96     0.177 C 
ENDROOT
BRANCH   1   2
HETATM    2  O7    D T 609     -22.067   6.478  12.406  1.00 45.57    -0.242 OA
BRANCH   2   3
HETATM    3  N6    D T 609     -22.990   7.501  11.857  1.00 35.78    -0.046 N 
HETATM    4  C1    D T 609     -24.280   6.933  11.317  1.00 32.37     0.209 C 
HETATM    5  N2    D T 609     -25.118   7.984  10.673  1.00 31.22    -0.064 NA
HETATM    6  CM1   D T 609     -23.961   5.822  10.305  1.00 29.06     0.051 C 
HETATM    7  CM2   D T 609     -25.072   6.299  12.483  1.00 32.53     0.051 C 
HETATM    8  C3    D T 609     -24.920   9.284  10.925  1.00 33.38     0.781 C 
HETATM    9  N4    D T 609     -23.932   9.686  11.775  1.00 32.85     0.137 NA
HETATM   10  NH1   D T 609     -25.712  10.198  10.336  1.00 33.22     0.062 N 
HETATM   11  C5    D T 609     -22.978   8.826  12.241  1.00 34.53     0.785 C 
HETATM   12  NH2   D T 609     -22.056   9.281  13.058  1.00 32.63     0.063 N 
ENDBRANCH   2   3
ENDBRANCH   1   2
BRANCH   1  13
HETATM   13  C9    D T 609     -19.768   5.884  13.102  1.00 41.72     0.068 C 
BRANCH  13  14
HETATM   14  C10   D T 609     -19.151   4.436  12.785  1.00 44.58     0.151 C 
BRANCH  14  15
HETATM   15  O11   D T 609     -20.127   3.698  11.948  1.00 45.50    -0.334 OA
BRANCH  15  16
HETATM   16  C12   D T 609     -20.934   2.702  12.611  1.00 41.06     0.084 A 
HETATM   17  C13   D T 609     -20.575   1.297  12.423  1.00 38.83     0.059 A 
HETATM   18  C14   D T 609     -21.345   0.251  13.031  1.00 39.01     0.078 A 
HETATM   19 CL1    D T 609     -19.210   0.882  11.452  1.00 34.26    -0.085 Cl
HETATM   20  C15   D T 609     -22.509   0.565  13.837  1.00 39.27     0.048 A 
HETATM   21  C16   D T 609     -22.889   1.977  14.046  1.00 40.25     0.049 A 
HETATM   22 CL2    D T 609     -23.442  -0.763  14.538  1.00 32.41    -0.086 Cl
HETATM   23  C17   D T 609     -22.091   3.037  13.432  1.00 40.73     0.090 A 
HETATM   24 CL3    D T 609     -24.307   2.418  15.026  1.00 40.57    -0.086 Cl
ENDBRANCH  15  16
ENDBRANCH  14  15
ENDBRANCH  13  14
ENDBRANCH   1  13
TORSDOF 6
ENDMDL
MODEL 3
REMARK VINA RESULT:    -7.106      4.281      7.032
REMARK INTER + INTRA:         -10.757
REMARK INTER:                  -9.984
REMARK INTRA:                  -0.773
REMARK UNBOUND:                -1.158
REMARK  6 active torsions:
REMARK  status: ('A' for Active; 'I' for Inactive)
REMARK    1  A    between atoms: N6_6  and  O7_7 
REMARK    2  A    between atoms: O7_7  and  C8_8 
REMARK    3  A    between atoms: C8_8  and  C9_9 
REMARK    4  A    between atoms: C9_9  and  C10_10 
REMARK    5  A    between atoms: C10_10  and  O11_11 
REMARK    6  A    between atoms: O11_11  and  C12_12 
ROOT
HETATM    1  C8    D T 609     -20.504   5.324  12.271  1.00 42.96     0.177 C 
ENDROOT
BRANCH   1   2
HETATM    2  O7    D T 609     -21.031   4.063  12.923  1.00 45.57    -0.242 OA
BRANCH   2   3
HETATM    3  N6    D T 609     -22.031   3.207  12.243  1.00 35.78    -0.046 N 
HETATM    4  C1    D T 609     -21.552   1.799  11.980  1.00 32.37     0.209 C 
HETATM    5  N2    D T 609     -22.547   1.017  11.192  1.00 31.22    -0.064 NA
HETATM    6  CM1   D T 609     -20.212   1.851  11.230  1.00 29.06     0.051 C 
HETATM    7  CM2   D T 609     -21.311   1.094  13.334  1.00 32.53     0.051 C 
HETATM    8  C3    D T 609     -23.828   1.398  11.112  1.00 33.38     0.781 C 
HETATM    9  N4    D T 609     -24.259   2.529  11.744  1.00 32.85     0.137 NA
HETATM   10  NH1   D T 609     -24.696   0.652  10.406  1.00 33.22     0.062 N 
HETATM   11  C5    D T 609     -23.392   3.426  12.303  1.00 34.53     0.785 C 
HETATM   12  NH2   D T 609     -23.876   4.492  12.896  1.00 32.63     0.063 N 
ENDBRANCH   2   3
ENDBRANCH   1   2
BRANCH   1  13
HETATM   13  C9    D T 609     -20.137   6.305  13.469  1.00 41.72     0.068 C 
BRANCH  13  14
HETATM   14  C10   D T 609     -21.177   7.529  13.436  1.00 44.58     0.151 C 
BRANCH  14  15
HETATM   15  O11   D T 609     -22.038   7.361  12.241  1.00 45.50    -0.334 OA
BRANCH  15  16
HETATM   16  C12   D T 609     -23.197   8.216  12.147  1.00 41.06     0.084 A 
HETATM   17  C13   D T 609     -24.142   7.969  11.059  1.00 38.83     0.059 A 
HETATM   18  C14   D T 609     -25.302   8.793  10.887  1.00 39.01     0.078 A 
HETATM   19 CL1    D T 609     -23.860   6.673   9.955  1.00 34.26    -0.085 Cl
HETATM   20  C15   D T 609     -25.559   9.903  11.785  1.00 39.27     0.048 A 
HETATM   21  C16   D T 609     -24.622  10.170  12.896  1.00 40.25     0.049 A 
HETATM   22 CL2    D T 609     -26.987  10.908  11.512  1.00 32.41    -0.086 Cl
HETATM   23  C17   D T 609     -23.447   9.318  13.069  1.00 40.73     0.090 A 
HETATM   24 CL3    D T 609     -24.887  11.518  14.026  1.00 40.57    -0.086 Cl
ENDBRANCH  15  16
ENDBRANCH  14  15
ENDBRANCH  13  14
ENDBRANCH   1  13
TORSDOF 6
ENDMDL
MODEL 4
REMARK VINA RESULT:    -7.001      4.639      7.704
REMARK INTER + INTRA:         -10.614
REMARK INTER:                 -10.261
REMARK INTRA:                  -0.353
REMARK UNBOUND:                -1.158
REMARK  6 active torsions:
REMARK  status: ('A' for Active; 'I' for Inactive)
REMARK    1  A    between atoms: N6_6  and  O7_7 
REMARK    2  A    between atoms: O7_7  and  C8_8 
REMARK    3  A    between atoms: C8_8  and  C9_9 
REMARK    4  A    between atoms: C9_9  and  C10_10 
REMARK    5  A    between atoms: C10_10  and  O11_11 
REMARK    6  A    between atoms: O11_11  and  C12_12 
ROOT
HETATM    1  C8    D T 609     -22.320   4.316  12.704  1.00 42.96     0.177 C 
ENDROOT
BRANCH   1   2
HETATM    2  O7    D T 609     -21.729   3.235  13.583  1.00 45.57    -0.242 OA
BRANCH   2   3
HETATM    3  N6    D T 609     -20.507   2.499  13.179  1.00 35.78    -0.046 N 
HETATM    4  C1    D T 609     -20.784   1.169  12.521  1.00 32.37     0.209 C 
HETATM    5  N2    D T 609     -19.527   0.418  12.243  1.00 31.22    -0.064 NA
HETATM    6  CM1   D T 609     -21.703   0.335  13.428  1.00 29.06     0.051 C 
HETATM    7  CM2   D T 609     -21.530   1.417  11.191  1.00 32.53     0.051 C 
HETATM    8  C3    D T 609     -18.340   1.037  12.209  1.00 33.38     0.781 C 
HETATM    9  N4    D T 609     -18.246   2.378  12.442  1.00 32.85     0.137 NA
HETATM   10  NH1   D T 609     -17.232   0.324  11.935  1.00 33.22     0.062 N 
HETATM   11  C5    D T 609     -19.297   3.110  12.918  1.00 34.53     0.785 C 
HETATM   12  NH2   D T 609     -19.138   4.397  13.118  1.00 32.63     0.063 N 
ENDBRANCH   2   3
ENDBRANCH   1   2
BRANCH   1  13
HETATM   13  C9    D T 609     -22.786   5.469  13.697  1.00 41.72     0.068 C 
BRANCH  13  14
HETATM   14  C10   D T 609     -21.718   6.664  13.595  1.00 44.58     0.151 C 
BRANCH  14  15
HETATM   15  O11   D T 609     -21.932   7.356  12.302  1.00 45.50    -0.334 OA
BRANCH  15  16
HETATM   16  C12   D T 609     -23.104   8.192  12.196  1.00 41.06     0.084 A 
HETATM   17  C13   D T 609     -24.035   7.927  11.100  1.00 38.83     0.059 A 
HETATM   18  C14   D T 609     -25.208   8.732  10.917  1.00 39.01     0.078 A 
HETATM   19 CL1    D T 609     -23.722   6.634  10.001  1.00 34.26    -0.085 Cl
HETATM   20  C15   D T 609     -25.490   9.839  11.810  1.00 39.27     0.048 A 
HETATM   21  C16   D T 609     -24.567  10.123  12.928  1.00 40.25     0.049 A 
HETATM   22 CL2    D T 609     -26.932  10.819  11.523  1.00 32.41    -0.086 Cl
HETATM   23  C17   D T 609     -23.381   9.291  13.114  1.00 40.73     0.090 A 
HETATM   24 CL3    D T 609     -24.865  11.469  14.054  1.00 40.57    -0.086 Cl
ENDBRANCH  15  16
ENDBRANCH  14  15
ENDBRANCH  13  14
ENDBRANCH   1  13
TORSDOF 6
ENDMDL
MODEL 5
REMARK VINA RESULT:    -6.896      4.371      7.575
REMARK INTER + INTRA:         -10.473
REMARK INTER:                  -9.681
REMARK INTRA:                  -0.792
REMARK UNBOUND:                -1.158
REMARK  6 active torsions:
REMARK  status: ('A' for Active; 'I' for Inactive)
REMARK    1  A    between atoms: N6_6  and  O7_7 
REMARK    2  A    between atoms: O7_7  and  C8_8 
REMARK    3  A    between atoms: C8_8  and  C9_9 
REMARK    4  A    between atoms: C9_9  and  C10_10 
REMARK    5  A    between atoms: C10_10  and  O11_11 
REMARK    6  A    between atoms: O11_11  and  C12_12 
ROOT
HETATM    1  C8    D T 609     -22.958   4.438  13.695  1.00 42.96     0.177 C 
ENDROOT
BRANCH   1   2
HETATM    2  O7    D T 609     -22.408   3.432  12.707  1.00 45.57    -0.242 OA
BRANCH   2   3
HETATM    3  N6    D T 609     -21.007   2.955  12.794  1.00 35.78    -0.046 N 
HETATM    4  C1    D T 609     -20.881   1.468  13.019  1.00 32.37     0.209 C 
HETATM    5  N2    D T 609     -19.461   1.059  13.217  1.00 31.22    -0.064 NA
HETATM    6  CM1   D T 609     -21.718   1.067  14.244  1.00 29.06     0.051 C 
HETATM    7  CM2   D T 609     -21.454   0.727  11.790  1.00 32.53     0.051 C 
HETATM    8  C3    D T 609     -18.449   1.846  12.830  1.00 33.38     0.781 C 
HETATM    9  N4    D T 609     -18.691   3.057  12.250  1.00 32.85     0.137 NA
HETATM   10  NH1   D T 609     -17.183   1.429  13.010  1.00 33.22     0.062 N 
HETATM   11  C5    D T 609     -19.938   3.616  12.224  1.00 34.53     0.785 C 
HETATM   12  NH2   D T 609     -20.099   4.785  11.649  1.00 32.63     0.063 N 
ENDBRANCH   2   3
ENDBRANCH   1   2
BRANCH   1  13
HETATM   13  C9    D T 609     -24.198   5.120  12.967  1.00 41.72     0.068 C 
BRANCH  13  14
HETATM   14  C10   D T 609     -23.860   5.201  11.398  1.00 44.58     0.151 C 
BRANCH  14  15
HETATM   15  O11   D T 609     -23.060   6.428  11.168  1.00 45.50    -0.334 OA
BRANCH  15  16
HETATM   16  C12   D T 609     -23.576   7.656  11.724  1.00 41.06     0.084 A 
HETATM   17  C13   D T 609     -22.793   8.315  12.769  1.00 38.83     0.059 A 
HETATM   18  C14   D T 609     -23.254   9.525  13.385  1.00 39.01     0.078 A 
HETATM   19 CL1    D T 609     -21.294   7.629  13.280  1.00 34.26    -0.085 Cl
HETATM   20  C15   D T 609     -24.518  10.117  12.993  1.00 39.27     0.048 A 
HETATM   21  C16   D T 609     -25.325   9.474  11.936  1.00 40.25     0.049 A 
HETATM   22 CL2    D T 609     -25.056  11.592  13.805  1.00 32.41    -0.086 Cl
HETATM   23  C17   D T 609     -24.842   8.247  11.306  1.00 40.73     0.090 A 
HETATM   24 CL3    D T 609     -26.884  10.157  11.417  1.00 40.57    -0.086 Cl
ENDBRANCH  15  16
ENDBRANCH  14  15
ENDBRANCH  13  14
ENDBRANCH   1  13
TORSDOF 6
ENDMDL
MODEL 6
REMARK VINA RESULT:    -6.895      1.998      3.863
REMARK INTER + INTRA:         -10.471
REMARK INTER:                  -9.595
REMARK INTRA:                  -0.876
REMARK UNBOUND:                -1.158
REMARK  6 active torsions:
REMARK  status: ('A' for Active; 'I' for Inactive)
REMARK    1  A    between atoms: N6_6  and  O7_7 
REMARK    2  A    between atoms: O7_7  and  C8_8 
REMARK    3  A    between atoms: C8_8  and  C9_9 
REMARK    4  A    between atoms: C9_9  and  C10_10 
REMARK    5  A    between atoms: C10_10  and  O11_11 
REMARK    6  A    between atoms: O11_11  and  C12_12 
ROOT
HETATM    1  C8    D T 609     -24.639   3.610  12.372  1.00 42.96     0.177 C 
ENDROOT
BRANCH   1   2
HETATM    2  O7    D T 609     -23.759   4.705  11.808  1.00 45.57    -0.242 OA
BRANCH   2   3
HETATM    3  N6    D T 609     -23.942   6.121  12.206  1.00 35.78    -0.046 N 
HETATM    4  C1    D T 609     -22.753   6.712  12.923  1.00 32.37     0.209 C 
HETATM    5  N2    D T 609     -23.032   8.095  13.405  1.00 31.22    -0.064 NA
HETATM    6  CM1   D T 609     -22.375   5.810  14.108  1.00 29.06     0.051 C 
HETATM    7  CM2   D T 609     -21.552   6.748  11.952  1.00 32.53     0.051 C 
HETATM    8  C3    D T 609     -24.037   8.821  12.897  1.00 33.38     0.781 C 
HETATM    9  N4    D T 609     -24.846   8.306  11.926  1.00 32.85     0.137 NA
HETATM   10  NH1   D T 609     -24.241  10.071  13.348  1.00 33.22     0.062 N 
HETATM   11  C5    D T 609     -24.813   6.986  11.575  1.00 34.53     0.785 C 
HETATM   12  NH2   D T 609     -25.619   6.559  10.631  1.00 32.63     0.063 N 
ENDBRANCH   2   3
ENDBRANCH   1   2
BRANCH   1  13
HETATM   13  C9    D T 609     -24.996   2.669  11.140  1.00 41.72     0.068 C 
BRANCH  13  14
HETATM   14  C10   D T 609     -23.999   1.410  11.180  1.00 44.58     0.151 C 
BRANCH  14  15
HETATM   15  O11   D T 609     -23.257   1.460  12.463  1.00 45.50    -0.334 OA
BRANCH  15  16
HETATM   16  C12   D T 609     -21.816   1.478  12.382  1.00 41.06     0.084 A 
HETATM   17  C13   D T 609     -21.119   0.195  12.302  1.00 38.83     0.059 A 
HETATM   18  C14   D T 609     -19.688   0.134  12.245  1.00 39.01     0.078 A 
HETATM   19 CL1    D T 609     -22.025  -1.274  12.285  1.00 34.26    -0.085 Cl
HETATM   20  C15   D T 609     -18.896   1.348  12.277  1.00 39.27     0.048 A 
HETATM   21  C16   D T 609     -19.576   2.658  12.352  1.00 40.25     0.049 A 
HETATM   22 CL2    D T 609     -17.134   1.217  12.235  1.00 32.41    -0.086 Cl
HETATM   23  C17   D T 609     -21.036   2.710  12.399  1.00 40.73     0.090 A 
HETATM   24 CL3    D T 609     -18.653   4.178  12.395  1.00 40.57    -0.086 Cl
ENDBRANCH  15  16
ENDBRANCH  14  15
ENDBRANCH  13  14
ENDBRANCH   1  13
TORSDOF 6
ENDMDL
MODEL 7
REMARK VINA RESULT:    -6.887      2.376      4.367
REMARK INTER + INTRA:         -10.460
REMARK INTER:                  -9.488
REMARK INTRA:                  -0.972
REMARK UNBOUND:                -1.158
REMARK  6 active torsions:
REMARK  status: ('A' for Active; 'I' for Inactive)
REMARK    1  A    between atoms: N6_6  and  O7_7 
REMARK    2  A    between atoms: O7_7  and  C8_8 
REMARK    3  A    between atoms: C8_8  and  C9_9 
REMARK    4  A    between atoms: C9_9  and  C10_10 
REMARK    5  A    between atoms: C10_10  and  O11_11 
REMARK    6  A    between atoms: O11_11  and  C12_12 
ROOT
HETATM    1  C8    D T 609     -24.705   3.230  10.843  1.00 42.96     0.177 C 
ENDROOT
BRANCH   1   2
HETATM    2  O7    D T 609     -24.962   4.318  11.864  1.00 45.57    -0.242 OA
BRANCH   2   3
HETATM    3  N6    D T 609     -23.869   5.195  12.344  1.00 35.78    -0.046 N 
HETATM    4  C1    D T 609     -23.975   6.622  11.864  1.00 32.37     0.209 C 
HETATM    5  N2    D T 609     -22.793   7.432  12.275  1.00 31.22    -0.064 NA
HETATM    6  CM1   D T 609     -24.113   6.634  10.333  1.00 29.06     0.051 C 
HETATM    7  CM2   D T 609     -25.253   7.254  12.459  1.00 32.53     0.051 C 
HETATM    8  C3    D T 609     -21.989   7.035  13.269  1.00 33.38     0.781 C 
HETATM    9  N4    D T 609     -22.223   5.865  13.930  1.00 32.85     0.137 NA
HETATM   10  NH1   D T 609     -20.944   7.806  13.620  1.00 33.22     0.062 N 
HETATM   11  C5    D T 609     -23.140   4.951  13.491  1.00 34.53     0.785 C 
HETATM   12  NH2   D T 609     -23.316   3.846  14.176  1.00 32.63     0.063 N 
ENDBRANCH   2   3
ENDBRANCH   1   2
BRANCH   1  13
HETATM   13  C9    D T 609     -24.933   1.856  11.614  1.00 41.72     0.068 C 
BRANCH  13  14
HETATM   14  C10   D T 609     -24.398   0.671  10.670  1.00 44.58     0.151 C 
BRANCH  14  15
HETATM   15  O11   D T 609     -23.458  -0.154  11.465  1.00 45.50    -0.334 OA
BRANCH  15  16
HETATM   16  C12   D T 609     -22.311   0.519  12.025  1.00 41.06     0.084 A 
HETATM   17  C13   D T 609     -22.125   0.462  13.474  1.00 38.83     0.059 A 
HETATM   18  C14   D T 609     -21.023   1.128  14.104  1.00 39.01     0.078 A 
HETATM   19 CL1    D T 609     -23.249  -0.412  14.450  1.00 34.26    -0.085 Cl
HETATM   20  C15   D T 609     -20.072   1.887  13.316  1.00 39.27     0.048 A 
HETATM   21  C16   D T 609     -20.235   1.956  11.849  1.00 40.25     0.049 A 
HETATM   22 CL2    D T 609     -18.748   2.716  14.144  1.00 32.41    -0.086 Cl
HETATM   23  C17   D T 609     -21.355   1.265  11.215  1.00 40.73     0.090 A 
HETATM   24 CL3    D T 609     -19.098   2.874  10.834  1.00 40.57    -0.086 Cl
ENDBRANCH  15  16
ENDBRANCH  14  15
ENDBRANCH  13  14
ENDBRANCH   1  13
TORSDOF 6
ENDMDL
MODEL 8
REMARK VINA RESULT:    -6.740      2.073      4.129
REMARK INTER + INTRA:         -10.262
REMARK INTER:                  -9.794
REMARK INTRA:                  -0.468
REMARK UNBOUND:                -1.158
REMARK  6 active torsions:
REMARK  status: ('A' for Active; 'I' for Inactive)
REMARK    1  A    between atoms: N6_6  and  O7_7 
REMARK    2  A    between atoms: O7_7  and  C8_8 
REMARK    3  A    between atoms: C8_8  and  C9_9 
REMARK    4  A    between atoms: C9_9  and  C10_10 
REMARK    5  A    between atoms: C10_10  and  O11_11 
REMARK    6  A    between atoms: O11_11  and  C12_12 
ROOT
HETATM    1  C8    D T 609     -24.021   5.382  11.505  1.00 42.96     0.177 C 
ENDROOT
BRANCH   1   2
HETATM    2  O7    D T 609     -24.389   6.803  11.136  1.00 45.57    -0.242 OA
BRANCH   2   3
HETATM    3  N6    D T 609     -24.729   7.804  12.175  1.00 35.78    -0.046 N 
HETATM    4  C1    D T 609     -23.669   8.861  12.375  1.00 32.37     0.209 C 
HETATM    5  N2    D T 609     -24.004   9.770  13.508  1.00 31.22    -0.064 NA
HETATM    6  CM1   D T 609     -22.316   8.181  12.630  1.00 29.06     0.051 C 
HETATM    7  CM2   D T 609     -23.545   9.693  11.078  1.00 32.53     0.051 C 
HETATM    8  C3    D T 609     -25.254   9.865  13.978  1.00 33.38     0.781 C 
HETATM    9  N4    D T 609     -26.261   9.119  13.438  1.00 32.85     0.137 NA
HETATM   10  NH1   D T 609     -25.516  10.713  14.989  1.00 33.22     0.062 N 
HETATM   11  C5    D T 609     -26.021   8.105  12.554  1.00 34.53     0.785 C 
HETATM   12  NH2   D T 609     -27.037   7.428  12.072  1.00 32.63     0.063 N 
ENDBRANCH   2   3
ENDBRANCH   1   2
BRANCH   1  13
HETATM   13  C9    D T 609     -24.490   5.196  13.014  1.00 41.72     0.068 C 
BRANCH  13  14
HETATM   14  C10   D T 609     -23.226   4.673  13.858  1.00 44.58     0.151 C 
BRANCH  14  15
HETATM   15  O11   D T 609     -23.273   3.192  13.875  1.00 45.50    -0.334 OA
BRANCH  15  16
HETATM   16  C12   D T 609     -22.168   2.497  13.259  1.00 41.06     0.084 A 
HETATM   17  C13   D T 609     -22.007   1.074  13.553  1.00 38.83     0.059 A 
HETATM   18  C14   D T 609     -20.918   0.324  12.997  1.00 39.01     0.078 A 
HETATM   19 CL1    D T 609     -23.134   0.278  14.589  1.00 34.26    -0.085 Cl
HETATM   20  C15   D T 609     -19.942   0.966  12.138  1.00 39.27     0.048 A 
HETATM   21  C16   D T 609     -20.086   2.402  11.822  1.00 40.25     0.049 A 
HETATM   22 CL2    D T 609     -18.602   0.004  11.504  1.00 32.41    -0.086 Cl
HETATM   23  C17   D T 609     -21.205   3.156  12.384  1.00 40.73     0.090 A 
HETATM   24 CL3    D T 609     -18.917   3.240  10.775  1.00 40.57    -0.086 Cl
ENDBRANCH  15  16
ENDBRANCH  14  15
ENDBRANCH  13  14
ENDBRANCH   1  13
TORSDOF 6
ENDMDL
MODEL 9
REMARK VINA RESULT:    -6.682      2.266      3.709
REMARK INTER + INTRA:         -10.184
REMARK INTER:                  -9.564
REMARK INTRA:                  -0.620
REMARK UNBOUND:                -1.158
REMARK  6 active torsions:
REMARK  status: ('A' for Active; 'I' for Inactive)
REMARK    1  A    between atoms: N6_6  and  O7_7 
REMARK    2  A    between atoms: O7_7  and  C8_8 
REMARK    3  A    between atoms: C8_8  and  C9_9 
REMARK    4  A    between atoms: C9_9  and  C10_10 
REMARK    5  A    between atoms: C10_10  and  O11_11 
REMARK    6  A    between atoms: O11_11  and  C12_12 
ROOT
HETATM    1  C8    D T 609     -24.342   5.177  13.060  1.00 42.96     0.177 C 
ENDROOT
BRANCH   1   2
HETATM    2  O7    D T 609     -24.160   6.442  12.249  1.00 45.57    -0.242 OA
BRANCH   2   3
HETATM    3  N6    D T 609     -24.500   7.771  12.810  1.00 35.78    -0.046 N 
HETATM    4  C1    D T 609     -23.371   8.770  12.743  1.00 32.37     0.209 C 
HETATM    5  N2    D T 609     -23.724  10.048  13.425  1.00 31.22    -0.064 NA
HETATM    6  CM1   D T 609     -22.116   8.161  13.388  1.00 29.06     0.051 C 
HETATM    7  CM2   D T 609     -23.049   9.060  11.260  1.00 32.53     0.051 C 
HETATM    8  C3    D T 609     -24.998  10.375  13.675  1.00 33.38     0.781 C 
HETATM    9  N4    D T 609     -26.015   9.536  13.322  1.00 32.85     0.137 NA
HETATM   10  NH1   D T 609     -25.272  11.547  14.275  1.00 33.22     0.062 N 
HETATM   11  C5    D T 609     -25.789   8.257  12.897  1.00 34.53     0.785 C 
HETATM   12  NH2   D T 609     -26.814   7.505  12.572  1.00 32.63     0.063 N 
ENDBRANCH   2   3
ENDBRANCH   1   2
BRANCH   1  13
HETATM   13  C9    D T 609     -22.873   4.697  13.441  1.00 41.72     0.068 C 
BRANCH  13  14
HETATM   14  C10   D T 609     -22.049   4.514  12.074  1.00 44.58     0.151 C 
BRANCH  14  15
HETATM   15  O11   D T 609     -21.362   3.201  12.129  1.00 45.50    -0.334 OA
BRANCH  15  16
HETATM   16  C12   D T 609     -22.194   2.038  12.323  1.00 41.06     0.084 A 
HETATM   17  C13   D T 609     -21.835   1.113  13.397  1.00 38.83     0.059 A 
HETATM   18  C14   D T 609     -22.599  -0.077  13.634  1.00 39.01     0.078 A 
HETATM   19 CL1    D T 609     -20.466   1.446  14.396  1.00 34.26    -0.085 Cl
HETATM   20  C15   D T 609     -23.743  -0.396  12.802  1.00 39.27     0.048 A 
HETATM   21  C16   D T 609     -24.130   0.525  11.714  1.00 40.25     0.049 A 
HETATM   22 CL2    D T 609     -24.633  -1.890  13.116  1.00 32.41    -0.086 Cl
HETATM   23  C17   D T 609     -23.351   1.741  11.487  1.00 40.73     0.090 A 
HETATM   24 CL3    D T 609     -25.523   0.181  10.662  1.00 40.57    -0.086 Cl
ENDBRANCH  15  16
ENDBRANCH  14  15
ENDBRANCH  13  14
ENDBRANCH   1  13
TORSDOF 6
ENDMDL
