MODEL 1
REMARK VINA RESULT:    -7.774      0.000      0.000
REMARK INTER + INTRA:         -10.881
REMARK INTER:                 -10.501
REMARK INTRA:                  -0.380
REMARK UNBOUND:                -0.380
REMARK  6 active torsions:
REMARK  status: ('A' for Active; 'I' for Inactive)
REMARK    1  A    between atoms: N6_6  and  O7_7 
REMARK    2  A    between atoms: O7_7  and  C8_8 
REMARK    3  A    between atoms: C8_8  and  C9_9 
REMARK    4  A    between atoms: C9_9  and  C10_10 
REMARK    5  A    between atoms: C10_10  and  O11_11 
REMARK    6  A    between atoms: O11_11  and  C12_12 
ROOT
HETATM    1  C8    D T 609     -24.875  -9.232  10.341  1.00 42.96     0.177 C 
ENDROOT
BRANCH   1   2
HETATM    2  O7    D T 609     -23.517  -9.782   9.960  1.00 45.57    -0.242 OA
BRANCH   2   3
HETATM    3  N6    D T 609     -22.283  -8.983  10.146  1.00 35.78    -0.046 N 
HETATM    4  C1    D T 609     -21.581  -9.239  11.457  1.00 32.37     0.209 C 
HETATM    5  N2    D T 609     -20.416  -8.326  11.647  1.00 31.22    -0.064 NA
HETATM    6  CM1   D T 609     -22.580  -9.059  12.612  1.00 29.06     0.051 C 
HETATM    7  CM2   D T 609     -21.086 -10.702  11.482  1.00 32.53     0.051 C 
HETATM    8  C3    D T 609     -19.858  -7.687  10.612  1.00 33.38     0.781 C 
HETATM    9  N4    D T 609     -20.351  -7.842   9.349  1.00 32.85     0.137 NA
HETATM   10  NH1   D T 609     -18.797  -6.888  10.825  1.00 33.22     0.062 N 
HETATM   11  C5    D T 609     -21.537  -8.474   9.102  1.00 34.53     0.785 C 
HETATM   12  NH2   D T 609     -21.951  -8.587   7.862  1.00 32.63     0.063 N 
ENDBRANCH   2   3
ENDBRANCH   1   2
BRANCH   1  13
HETATM   13  C9    D T 609     -25.105  -7.970   9.401  1.00 41.72     0.068 C 
BRANCH  13  14
HETATM   14  C10   D T 609     -26.337  -8.305   8.426  1.00 44.58     0.151 C 
BRANCH  14  15
HETATM   15  O11   D T 609     -26.099  -9.642   7.834  1.00 45.50    -0.334 OA
BRANCH  15  16
HETATM   16  C12   D T 609     -27.234 -10.529   7.746  1.00 41.06     0.084 A 
HETATM   17  C13   D T 609     -26.975 -11.966   7.691  1.00 38.83     0.059 A 
HETATM   18  C14   D T 609     -28.051 -12.907   7.576  1.00 39.01     0.078 A 
HETATM   19 CL1    D T 609     -25.351 -12.551   7.756  1.00 34.26    -0.085 Cl
HETATM   20  C15   D T 609     -29.425 -12.449   7.500  1.00 39.27     0.048 A 
HETATM   21  C16   D T 609     -29.713 -11.002   7.559  1.00 40.25     0.049 A 
HETATM   22 CL2    D T 609     -30.714 -13.646   7.329  1.00 32.41    -0.086 Cl
HETATM   23  C17   D T 609     -28.611 -10.052   7.687  1.00 40.73     0.090 A 
HETATM   24 CL3    D T 609     -31.380 -10.385   7.469  1.00 40.57    -0.086 Cl
ENDBRANCH  15  16
ENDBRANCH  14  15
ENDBRANCH  13  14
ENDBRANCH   1  13
TORSDOF 6
ENDMDL
MODEL 2
REMARK VINA RESULT:    -7.665      5.403      8.893
REMARK INTER + INTRA:         -10.733
REMARK INTER:                 -10.071
REMARK INTRA:                  -0.661
REMARK UNBOUND:                -0.380
REMARK  6 active torsions:
REMARK  status: ('A' for Active; 'I' for Inactive)
REMARK    1  A    between atoms: N6_6  and  O7_7 
REMARK    2  A    between atoms: O7_7  and  C8_8 
REMARK    3  A    between atoms: C8_8  and  C9_9 
REMARK    4  A    between atoms: C9_9  and  C10_10 
REMARK    5  A    between atoms: C10_10  and  O11_11 
REMARK    6  A    between atoms: O11_11  and  C12_12 
ROOT
HETATM    1  C8    D T 609     -27.960  -9.627   7.347  1.00 42.96     0.177 C 
ENDROOT
BRANCH   1   2
HETATM    2  O7    D T 609     -28.617 -10.644   8.255  1.00 45.57    -0.242 OA
BRANCH   2   3
HETATM    3  N6    D T 609     -29.580 -11.639   7.727  1.00 35.78    -0.046 N 
HETATM    4  C1    D T 609     -29.092 -13.065   7.810  1.00 32.37     0.209 C 
HETATM    5  N2    D T 609     -30.043 -14.012   7.159  1.00 31.22    -0.064 NA
HETATM    6  CM1   D T 609     -27.711 -13.169   7.143  1.00 29.06     0.051 C 
HETATM    7  CM2   D T 609     -28.932 -13.452   9.296  1.00 32.53     0.051 C 
HETATM    8  C3    D T 609     -31.315 -13.669   6.925  1.00 33.38     0.781 C 
HETATM    9  N4    D T 609     -31.778 -12.430   7.265  1.00 32.85     0.137 NA
HETATM   10  NH1   D T 609     -32.145 -14.560   6.353  1.00 33.22     0.062 N 
HETATM   11  C5    D T 609     -30.942 -11.424   7.660  1.00 34.53     0.785 C 
HETATM   12  NH2   D T 609     -31.454 -10.258   7.973  1.00 32.63     0.063 N 
ENDBRANCH   2   3
ENDBRANCH   1   2
BRANCH   1  13
HETATM   13  C9    D T 609     -26.703  -9.080   8.153  1.00 41.72     0.068 C 
BRANCH  13  14
HETATM   14  C10   D T 609     -26.202 -10.251   9.132  1.00 44.58     0.151 C 
BRANCH  14  15
HETATM   15  O11   D T 609     -24.751 -10.446   8.903  1.00 45.50    -0.334 OA
BRANCH  15  16
HETATM   16  C12   D T 609     -23.856  -9.526   9.562  1.00 41.06     0.084 A 
HETATM   17  C13   D T 609     -23.079  -8.612   8.727  1.00 38.83     0.059 A 
HETATM   18  C14   D T 609     -22.151  -7.687   9.310  1.00 39.01     0.078 A 
HETATM   19 CL1    D T 609     -23.269  -8.644   7.011  1.00 34.26    -0.085 Cl
HETATM   20  C15   D T 609     -21.953  -7.647  10.746  1.00 39.27     0.048 A 
HETATM   21  C16   D T 609     -22.730  -8.557  11.612  1.00 40.25     0.049 A 
HETATM   22 CL2    D T 609     -20.775  -6.511  11.412  1.00 32.41    -0.086 Cl
HETATM   23  C17   D T 609     -23.682  -9.488  11.010  1.00 40.73     0.090 A 
HETATM   24 CL3    D T 609     -22.527  -8.552  13.380  1.00 40.57    -0.086 Cl
ENDBRANCH  15  16
ENDBRANCH  14  15
ENDBRANCH  13  14
ENDBRANCH   1  13
TORSDOF 6
ENDMDL
MODEL 3
REMARK VINA RESULT:    -7.597      1.917      2.709
REMARK INTER + INTRA:         -10.642
REMARK INTER:                 -10.149
REMARK INTRA:                  -0.493
REMARK UNBOUND:                -0.380
REMARK  6 active torsions:
REMARK  status: ('A' for Active; 'I' for Inactive)
REMARK    1  A    between atoms: N6_6  and  O7_7 
REMARK    2  A    between atoms: O7_7  and  C8_8 
REMARK    3  A    between atoms: C8_8  and  C9_9 
REMARK    4  A    between atoms: C9_9  and  C10_10 
REMARK    5  A    between atoms: C10_10  and  O11_11 
REMARK    6  A    between atoms: O11_11  and  C12_12 
ROOT
HETATM    1  C8    D T 609     -23.895  -9.337   9.364  1.00 42.96     0.177 C 
ENDROOT
BRANCH   1   2
HETATM    2  O7    D T 609     -23.715  -9.479  10.861  1.00 45.57    -0.242 OA
BRANCH   2   3
HETATM    3  N6    D T 609     -22.740 -10.437  11.431  1.00 35.78    -0.046 N 
HETATM    4  C1    D T 609     -21.862  -9.848  12.507  1.00 32.37     0.209 C 
HETATM    5  N2    D T 609     -20.822 -10.816  12.962  1.00 31.22    -0.064 NA
HETATM    6  CM1   D T 609     -21.192  -8.572  11.975  1.00 29.06     0.051 C 
HETATM    7  CM2   D T 609     -22.745  -9.453  13.711  1.00 32.53     0.051 C 
HETATM    8  C3    D T 609     -20.945 -12.128  12.733  1.00 33.38     0.781 C 
HETATM    9  N4    D T 609     -22.027 -12.620  12.061  1.00 32.85     0.137 NA
HETATM   10  NH1   D T 609     -19.993 -12.969  13.178  1.00 33.22     0.062 N 
HETATM   11  C5    D T 609     -22.916 -11.807  11.417  1.00 34.53     0.785 C 
HETATM   12  NH2   D T 609     -23.933 -12.347  10.790  1.00 32.63     0.063 N 
ENDBRANCH   2   3
ENDBRANCH   1   2
BRANCH   1  13
HETATM   13  C9    D T 609     -24.799  -8.044   9.162  1.00 41.72     0.068 C 
BRANCH  13  14
HETATM   14  C10   D T 609     -26.278  -8.536   8.775  1.00 44.58     0.151 C 
BRANCH  14  15
HETATM   15  O11   D T 609     -26.148  -9.690   7.854  1.00 45.50    -0.334 OA
BRANCH  15  16
HETATM   16  C12   D T 609     -27.283 -10.575   7.749  1.00 41.06     0.084 A 
HETATM   17  C13   D T 609     -27.024 -12.010   7.649  1.00 38.83     0.059 A 
HETATM   18  C14   D T 609     -28.101 -12.947   7.516  1.00 39.01     0.078 A 
HETATM   19 CL1    D T 609     -25.400 -12.595   7.682  1.00 34.26    -0.085 Cl
HETATM   20  C15   D T 609     -29.476 -12.488   7.466  1.00 39.27     0.048 A 
HETATM   21  C16   D T 609     -29.764 -11.043   7.570  1.00 40.25     0.049 A 
HETATM   22 CL2    D T 609     -30.766 -13.680   7.271  1.00 32.41    -0.086 Cl
HETATM   23  C17   D T 609     -28.661 -10.096   7.717  1.00 40.73     0.090 A 
HETATM   24 CL3    D T 609     -31.432 -10.425   7.514  1.00 40.57    -0.086 Cl
ENDBRANCH  15  16
ENDBRANCH  14  15
ENDBRANCH  13  14
ENDBRANCH   1  13
TORSDOF 6
ENDMDL
MODEL 4
REMARK VINA RESULT:    -7.397      5.732      9.701
REMARK INTER + INTRA:         -10.371
REMARK INTER:                  -9.850
REMARK INTRA:                  -0.521
REMARK UNBOUND:                -0.380
REMARK  6 active torsions:
REMARK  status: ('A' for Active; 'I' for Inactive)
REMARK    1  A    between atoms: N6_6  and  O7_7 
REMARK    2  A    between atoms: O7_7  and  C8_8 
REMARK    3  A    between atoms: C8_8  and  C9_9 
REMARK    4  A    between atoms: C9_9  and  C10_10 
REMARK    5  A    between atoms: C10_10  and  O11_11 
REMARK    6  A    between atoms: O11_11  and  C12_12 
ROOT
HETATM    1  C8    D T 609     -20.557  -9.622  12.823  1.00 42.96     0.177 C 
ENDROOT
BRANCH   1   2
HETATM    2  O7    D T 609     -20.851  -9.730  11.341  1.00 45.57    -0.242 OA
BRANCH   2   3
HETATM    3  N6    D T 609     -22.146  -9.281  10.779  1.00 35.78    -0.046 N 
HETATM    4  C1    D T 609     -22.029  -8.108   9.837  1.00 32.37     0.209 C 
HETATM    5  N2    D T 609     -23.367  -7.620   9.394  1.00 31.22    -0.064 NA
HETATM    6  CM1   D T 609     -21.262  -6.972  10.533  1.00 29.06     0.051 C 
HETATM    7  CM2   D T 609     -21.213  -8.541   8.599  1.00 32.53     0.051 C 
HETATM    8  C3    D T 609     -24.457  -8.389   9.498  1.00 33.38     0.781 C 
HETATM    9  N4    D T 609     -24.377  -9.644  10.029  1.00 32.85     0.137 NA
HETATM   10  NH1   D T 609     -25.641  -7.918   9.068  1.00 33.22     0.062 N 
HETATM   11  C5    D T 609     -23.253 -10.097  10.660  1.00 34.53     0.785 C 
HETATM   12  NH2   D T 609     -23.245 -11.315  11.148  1.00 32.63     0.063 N 
ENDBRANCH   2   3
ENDBRANCH   1   2
BRANCH   1  13
HETATM   13  C9    D T 609     -20.498 -11.119  13.358  1.00 41.72     0.068 C 
BRANCH  13  14
HETATM   14  C10   D T 609     -21.137 -11.137  14.832  1.00 44.58     0.151 C 
BRANCH  14  15
HETATM   15  O11   D T 609     -20.847 -12.458  15.437  1.00 45.50    -0.334 OA
BRANCH  15  16
HETATM   16  C12   D T 609     -19.465 -12.753  15.733  1.00 41.06     0.084 A 
HETATM   17  C13   D T 609     -18.955 -14.073  15.367  1.00 38.83     0.059 A 
HETATM   18  C14   D T 609     -17.600 -14.445  15.653  1.00 39.01     0.078 A 
HETATM   19 CL1    D T 609     -19.994 -15.210  14.587  1.00 34.26    -0.085 Cl
HETATM   20  C15   D T 609     -16.707 -13.521  16.324  1.00 39.27     0.048 A 
HETATM   21  C16   D T 609     -17.197 -12.179  16.699  1.00 40.25     0.049 A 
HETATM   22 CL2    D T 609     -15.055 -14.039  16.681  1.00 32.41    -0.086 Cl
HETATM   23  C17   D T 609     -18.576 -11.804  16.394  1.00 40.73     0.090 A 
HETATM   24 CL3    D T 609     -16.145 -11.005  17.524  1.00 40.57    -0.086 Cl
ENDBRANCH  15  16
ENDBRANCH  14  15
ENDBRANCH  13  14
ENDBRANCH   1  13
TORSDOF 6
ENDMDL
MODEL 5
REMARK VINA RESULT:    -7.015      1.748      2.653
REMARK INTER + INTRA:          -9.855
REMARK INTER:                  -9.514
REMARK INTRA:                  -0.340
REMARK UNBOUND:                -0.380
REMARK  6 active torsions:
REMARK  status: ('A' for Active; 'I' for Inactive)
REMARK    1  A    between atoms: N6_6  and  O7_7 
REMARK    2  A    between atoms: O7_7  and  C8_8 
REMARK    3  A    between atoms: C8_8  and  C9_9 
REMARK    4  A    between atoms: C9_9  and  C10_10 
REMARK    5  A    between atoms: C10_10  and  O11_11 
REMARK    6  A    between atoms: O11_11  and  C12_12 
ROOT
HETATM    1  C8    D T 609     -24.128  -9.682   9.293  1.00 42.96     0.177 C 
ENDROOT
BRANCH   1   2
HETATM    2  O7    D T 609     -22.848  -9.423  10.060  1.00 45.57    -0.242 OA
BRANCH   2   3
HETATM    3  N6    D T 609     -22.763  -9.663  11.519  1.00 35.78    -0.046 N 
HETATM    4  C1    D T 609     -22.425 -11.088  11.885  1.00 32.37     0.209 C 
HETATM    5  N2    D T 609     -22.469 -11.303  13.361  1.00 31.22    -0.064 NA
HETATM    6  CM1   D T 609     -23.411 -12.039  11.188  1.00 29.06     0.051 C 
HETATM    7  CM2   D T 609     -21.007 -11.413  11.369  1.00 32.53     0.051 C 
HETATM    8  C3    D T 609     -22.405 -10.276  14.216  1.00 33.38     0.781 C 
HETATM    9  N4    D T 609     -22.311  -8.993  13.759  1.00 32.85     0.137 NA
HETATM   10  NH1   D T 609     -22.428 -10.517  15.539  1.00 33.22     0.062 N 
HETATM   11  C5    D T 609     -22.483  -8.675  12.442  1.00 34.53     0.785 C 
HETATM   12  NH2   D T 609     -22.378  -7.421  12.072  1.00 32.63     0.063 N 
ENDBRANCH   2   3
ENDBRANCH   1   2
BRANCH   1  13
HETATM   13  C9    D T 609     -25.152  -8.568   9.781  1.00 41.72     0.068 C 
BRANCH  13  14
HETATM   14  C10   D T 609     -26.323  -8.466   8.685  1.00 44.58     0.151 C 
BRANCH  14  15
HETATM   15  O11   D T 609     -26.199  -9.631   7.777  1.00 45.50    -0.334 OA
BRANCH  15  16
HETATM   16  C12   D T 609     -27.321 -10.537   7.719  1.00 41.06     0.084 A 
HETATM   17  C13   D T 609     -27.039 -11.968   7.629  1.00 38.83     0.059 A 
HETATM   18  C14   D T 609     -28.103 -12.926   7.542  1.00 39.01     0.078 A 
HETATM   19 CL1    D T 609     -25.404 -12.523   7.618  1.00 34.26    -0.085 Cl
HETATM   20  C15   D T 609     -29.486 -12.492   7.530  1.00 39.27     0.048 A 
HETATM   21  C16   D T 609     -29.797 -11.051   7.625  1.00 40.25     0.049 A 
HETATM   22 CL2    D T 609     -30.759 -13.710   7.391  1.00 32.41    -0.086 Cl
HETATM   23  C17   D T 609     -28.707 -10.083   7.725  1.00 40.73     0.090 A 
HETATM   24 CL3    D T 609     -31.477 -10.463   7.614  1.00 40.57    -0.086 Cl
ENDBRANCH  15  16
ENDBRANCH  14  15
ENDBRANCH  13  14
ENDBRANCH   1  13
TORSDOF 6
ENDMDL
MODEL 6
REMARK VINA RESULT:    -6.980      5.842      9.756
REMARK INTER + INTRA:          -9.808
REMARK INTER:                  -9.676
REMARK INTRA:                  -0.132
REMARK UNBOUND:                -0.380
REMARK  6 active torsions:
REMARK  status: ('A' for Active; 'I' for Inactive)
REMARK    1  A    between atoms: N6_6  and  O7_7 
REMARK    2  A    between atoms: O7_7  and  C8_8 
REMARK    3  A    between atoms: C8_8  and  C9_9 
REMARK    4  A    between atoms: C9_9  and  C10_10 
REMARK    5  A    between atoms: C10_10  and  O11_11 
REMARK    6  A    between atoms: O11_11  and  C12_12 
ROOT
HETATM    1  C8    D T 609     -20.331  -9.826  12.917  1.00 42.96     0.177 C 
ENDROOT
BRANCH   1   2
HETATM    2  O7    D T 609     -20.646 -10.126  11.467  1.00 45.57    -0.242 OA
BRANCH   2   3
HETATM    3  N6    D T 609     -21.771  -9.461  10.770  1.00 35.78    -0.046 N 
HETATM    4  C1    D T 609     -23.132  -9.900  11.249  1.00 32.37     0.209 C 
HETATM    5  N2    D T 609     -24.226  -9.293  10.437  1.00 31.22    -0.064 NA
HETATM    6  CM1   D T 609     -23.223 -11.433  11.186  1.00 29.06     0.051 C 
HETATM    7  CM2   D T 609     -23.303  -9.476  12.725  1.00 32.53     0.051 C 
HETATM    8  C3    D T 609     -24.013  -8.207   9.685  1.00 33.38     0.781 C 
HETATM    9  N4    D T 609     -22.778  -7.629   9.629  1.00 32.85     0.137 NA
HETATM   10  NH1   D T 609     -25.033  -7.679   8.983  1.00 33.22     0.062 N 
HETATM   11  C5    D T 609     -21.669  -8.229  10.155  1.00 34.53     0.785 C 
HETATM   12  NH2   D T 609     -20.512  -7.616  10.066  1.00 32.63     0.063 N 
ENDBRANCH   2   3
ENDBRANCH   1   2
BRANCH   1  13
HETATM   13  C9    D T 609     -20.125 -11.240  13.613  1.00 41.72     0.068 C 
BRANCH  13  14
HETATM   14  C10   D T 609     -21.000 -11.256  14.960  1.00 44.58     0.151 C 
BRANCH  14  15
HETATM   15  O11   D T 609     -20.694 -12.510  15.687  1.00 45.50    -0.334 OA
BRANCH  15  16
HETATM   16  C12   D T 609     -19.301 -12.802  15.928  1.00 41.06     0.084 A 
HETATM   17  C13   D T 609     -18.786 -14.094  15.478  1.00 38.83     0.059 A 
HETATM   18  C14   D T 609     -17.419 -14.464  15.705  1.00 39.01     0.078 A 
HETATM   19 CL1    D T 609     -19.833 -15.201  14.666  1.00 34.26    -0.085 Cl
HETATM   20  C15   D T 609     -16.518 -13.565  16.401  1.00 39.27     0.048 A 
HETATM   21  C16   D T 609     -17.013 -12.253  16.862  1.00 40.25     0.049 A 
HETATM   22 CL2    D T 609     -14.852 -14.081  16.684  1.00 32.41    -0.086 Cl
HETATM   23  C17   D T 609     -18.404 -11.879  16.616  1.00 40.73     0.090 A 
HETATM   24 CL3    D T 609     -15.952 -11.112  17.721  1.00 40.57    -0.086 Cl
ENDBRANCH  15  16
ENDBRANCH  14  15
ENDBRANCH  13  14
ENDBRANCH   1  13
TORSDOF 6
ENDMDL
MODEL 7
REMARK VINA RESULT:    -6.935      5.433      9.370
REMARK INTER + INTRA:          -9.747
REMARK INTER:                  -9.387
REMARK INTRA:                  -0.360
REMARK UNBOUND:                -0.380
REMARK  6 active torsions:
REMARK  status: ('A' for Active; 'I' for Inactive)
REMARK    1  A    between atoms: N6_6  and  O7_7 
REMARK    2  A    between atoms: O7_7  and  C8_8 
REMARK    3  A    between atoms: C8_8  and  C9_9 
REMARK    4  A    between atoms: C9_9  and  C10_10 
REMARK    5  A    between atoms: C10_10  and  O11_11 
REMARK    6  A    between atoms: O11_11  and  C12_12 
ROOT
HETATM    1  C8    D T 609     -23.270  -9.715  12.259  1.00 42.96     0.177 C 
ENDROOT
BRANCH   1   2
HETATM    2  O7    D T 609     -23.095  -9.965  10.776  1.00 45.57    -0.242 OA
BRANCH   2   3
HETATM    3  N6    D T 609     -24.263 -10.091   9.874  1.00 35.78    -0.046 N 
HETATM    4  C1    D T 609     -24.401  -8.955   8.890  1.00 32.37     0.209 C 
HETATM    5  N2    D T 609     -25.654  -9.068   8.089  1.00 31.22    -0.064 NA
HETATM    6  CM1   D T 609     -24.384  -7.620   9.650  1.00 29.06     0.051 C 
HETATM    7  CM2   D T 609     -23.187  -8.972   7.935  1.00 32.53     0.051 C 
HETATM    8  C3    D T 609     -26.313 -10.228   7.989  1.00 33.38     0.781 C 
HETATM    9  N4    D T 609     -25.863 -11.344   8.632  1.00 32.85     0.137 NA
HETATM   10  NH1   D T 609     -27.429 -10.290   7.240  1.00 33.22     0.062 N 
HETATM   11  C5    D T 609     -24.860 -11.295   9.559  1.00 34.53     0.785 C 
HETATM   12  NH2   D T 609     -24.476 -12.408  10.139  1.00 32.63     0.063 N 
ENDBRANCH   2   3
ENDBRANCH   1   2
BRANCH   1  13
HETATM   13  C9    D T 609     -23.032 -11.122  12.962  1.00 41.72     0.068 C 
BRANCH  13  14
HETATM   14  C10   D T 609     -21.586 -11.081  13.662  1.00 44.58     0.151 C 
BRANCH  14  15
HETATM   15  O11   D T 609     -21.563 -12.119  14.719  1.00 45.50    -0.334 OA
BRANCH  15  16
HETATM   16  C12   D T 609     -20.269 -12.607  15.129  1.00 41.06     0.084 A 
HETATM   17  C13   D T 609     -19.912 -13.979  14.772  1.00 38.83     0.059 A 
HETATM   18  C14   D T 609     -18.652 -14.541  15.166  1.00 39.01     0.078 A 
HETATM   19 CL1    D T 609     -21.019 -14.948  13.869  1.00 34.26    -0.085 Cl
HETATM   20  C15   D T 609     -17.707 -13.760  15.942  1.00 39.27     0.048 A 
HETATM   21  C16   D T 609     -18.043 -12.370  16.310  1.00 40.25     0.049 A 
HETATM   22 CL2    D T 609     -16.183 -14.508  16.429  1.00 32.41    -0.086 Cl
HETATM   23  C17   D T 609     -19.323 -11.802  15.894  1.00 40.73     0.090 A 
HETATM   24 CL3    D T 609     -16.921 -11.367  17.260  1.00 40.57    -0.086 Cl
ENDBRANCH  15  16
ENDBRANCH  14  15
ENDBRANCH  13  14
ENDBRANCH   1  13
TORSDOF 6
ENDMDL
MODEL 8
REMARK VINA RESULT:    -6.934      4.577      7.632
REMARK INTER + INTRA:          -9.746
REMARK INTER:                  -9.306
REMARK INTRA:                  -0.440
REMARK UNBOUND:                -0.380
REMARK  6 active torsions:
REMARK  status: ('A' for Active; 'I' for Inactive)
REMARK    1  A    between atoms: N6_6  and  O7_7 
REMARK    2  A    between atoms: O7_7  and  C8_8 
REMARK    3  A    between atoms: C8_8  and  C9_9 
REMARK    4  A    between atoms: C9_9  and  C10_10 
REMARK    5  A    between atoms: C10_10  and  O11_11 
REMARK    6  A    between atoms: O11_11  and  C12_12 
ROOT
HETATM    1  C8    D T 609     -20.318  -9.582  12.595  1.00 42.96     0.177 C 
ENDROOT
BRANCH   1   2
HETATM    2  O7    D T 609     -20.847  -9.888  11.210  1.00 45.57    -0.242 OA
BRANCH   2   3
HETATM    3  N6    D T 609     -22.167  -9.387  10.762  1.00 35.78    -0.046 N 
HETATM    4  C1    D T 609     -22.089  -8.167   9.877  1.00 32.37     0.209 C 
HETATM    5  N2    D T 609     -23.444  -7.633   9.552  1.00 31.22    -0.064 NA
HETATM    6  CM1   D T 609     -21.254  -7.084  10.577  1.00 29.06     0.051 C 
HETATM    7  CM2   D T 609     -21.369  -8.548   8.565  1.00 32.53     0.051 C 
HETATM    8  C3    D T 609     -24.540  -8.388   9.691  1.00 33.38     0.781 C 
HETATM    9  N4    D T 609     -24.451  -9.670  10.149  1.00 32.85     0.137 NA
HETATM   10  NH1   D T 609     -25.741  -7.873   9.369  1.00 33.22     0.062 N 
HETATM   11  C5    D T 609     -23.296 -10.176  10.677  1.00 34.53     0.785 C 
HETATM   12  NH2   D T 609     -23.281 -11.418  11.098  1.00 32.63     0.063 N 
ENDBRANCH   2   3
ENDBRANCH   1   2
BRANCH   1  13
HETATM   13  C9    D T 609     -21.108 -10.549  13.579  1.00 41.72     0.068 C 
BRANCH  13  14
HETATM   14  C10   D T 609     -20.032 -11.504  14.294  1.00 44.58     0.151 C 
BRANCH  14  15
HETATM   15  O11   D T 609     -20.741 -12.721  14.757  1.00 45.50    -0.334 OA
BRANCH  15  16
HETATM   16  C12   D T 609     -20.687 -13.877  13.895  1.00 41.06     0.084 A 
HETATM   17  C13   D T 609     -19.562 -14.796  14.054  1.00 38.83     0.059 A 
HETATM   18  C14   D T 609     -19.429 -15.953  13.216  1.00 39.01     0.078 A 
HETATM   19 CL1    D T 609     -18.366 -14.491  15.262  1.00 34.26    -0.085 Cl
HETATM   20  C15   D T 609     -20.406 -16.228  12.180  1.00 39.27     0.048 A 
HETATM   21  C16   D T 609     -21.554 -15.317  12.002  1.00 40.25     0.049 A 
HETATM   22 CL2    D T 609     -20.180 -17.649  11.153  1.00 32.41    -0.086 Cl
HETATM   23  C17   D T 609     -21.688 -14.148  12.868  1.00 40.73     0.090 A 
HETATM   24 CL3    D T 609     -22.781 -15.607  10.747  1.00 40.57    -0.086 Cl
ENDBRANCH  15  16
ENDBRANCH  14  15
ENDBRANCH  13  14
ENDBRANCH   1  13
TORSDOF 6
ENDMDL
MODEL 9
REMARK VINA RESULT:    -6.879      6.665      9.153
REMARK INTER + INTRA:          -9.671
REMARK INTER:                  -9.273
REMARK INTRA:                  -0.398
REMARK UNBOUND:                -0.380
REMARK  6 active torsions:
REMARK  status: ('A' for Active; 'I' for Inactive)
REMARK    1  A    between atoms: N6_6  and  O7_7 
REMARK    2  A    between atoms: O7_7  and  C8_8 
REMARK    3  A    between atoms: C8_8  and  C9_9 
REMARK    4  A    between atoms: C9_9  and  C10_10 
REMARK    5  A    between atoms: C10_10  and  O11_11 
REMARK    6  A    between atoms: O11_11  and  C12_12 
ROOT
HETATM    1  C8    D T 609     -19.515 -13.550  15.913  1.00 42.96     0.177 C 
ENDROOT
BRANCH   1   2
HETATM    2  O7    D T 609     -18.373 -13.755  16.886  1.00 45.57    -0.242 OA
BRANCH   2   3
HETATM    3  N6    D T 609     -17.000 -13.299  16.569  1.00 35.78    -0.046 N 
HETATM    4  C1    D T 609     -16.325 -12.559  17.698  1.00 32.37     0.209 C 
HETATM    5  N2    D T 609     -14.996 -12.019  17.288  1.00 31.22    -0.064 NA
HETATM    6  CM1   D T 609     -17.233 -11.412  18.168  1.00 29.06     0.051 C 
HETATM    7  CM2   D T 609     -16.133 -13.528  18.885  1.00 32.53     0.051 C 
HETATM    8  C3    D T 609     -14.352 -12.497  16.217  1.00 33.38     0.781 C 
HETATM    9  N4    D T 609     -14.903 -13.488  15.456  1.00 32.85     0.137 NA
HETATM   10  NH1   D T 609     -13.147 -11.995  15.893  1.00 33.22     0.062 N 
HETATM   11  C5    D T 609     -16.198 -13.893  15.615  1.00 34.53     0.785 C 
HETATM   12  NH2   D T 609     -16.662 -14.852  14.849  1.00 32.63     0.063 N 
ENDBRANCH   2   3
ENDBRANCH   1   2
BRANCH   1  13
HETATM   13  C9    D T 609     -19.530 -11.993  15.590  1.00 41.72     0.068 C 
BRANCH  13  14
HETATM   14  C10   D T 609     -20.009 -11.813  14.068  1.00 44.58     0.151 C 
BRANCH  14  15
HETATM   15  O11   D T 609     -20.948 -10.667  14.019  1.00 45.50    -0.334 OA
BRANCH  15  16
HETATM   16  C12   D T 609     -21.129 -10.025  12.739  1.00 41.06     0.084 A 
HETATM   17  C13   D T 609     -22.233 -10.480  11.897  1.00 38.83     0.059 A 
HETATM   18  C14   D T 609     -22.459  -9.906  10.602  1.00 39.01     0.078 A 
HETATM   19 CL1    D T 609     -23.281 -11.734  12.456  1.00 34.26    -0.085 Cl
HETATM   20  C15   D T 609     -21.587  -8.865  10.094  1.00 39.27     0.048 A 
HETATM   21  C16   D T 609     -20.467  -8.384  10.929  1.00 40.25     0.049 A 
HETATM   22 CL2    D T 609     -21.889  -8.212   8.481  1.00 32.41    -0.086 Cl
HETATM   23  C17   D T 609     -20.251  -8.967  12.251  1.00 40.73     0.090 A 
HETATM   24 CL3    D T 609     -19.365  -7.109  10.356  1.00 40.57    -0.086 Cl
ENDBRANCH  15  16
ENDBRANCH  14  15
ENDBRANCH  13  14
ENDBRANCH   1  13
TORSDOF 6
ENDMDL
