MODEL 1
REMARK VINA RESULT:    -7.856      0.000      0.000
REMARK INTER + INTRA:         -11.288
REMARK INTER:                 -10.612
REMARK INTRA:                  -0.676
REMARK UNBOUND:                -0.676
REMARK  6 active torsions:
REMARK  status: ('A' for Active; 'I' for Inactive)
REMARK    1  A    between atoms: N6_6  and  O7_7 
REMARK    2  A    between atoms: O7_7  and  C8_8 
REMARK    3  A    between atoms: C8_8  and  C9_9 
REMARK    4  A    between atoms: C9_9  and  C10_10 
REMARK    5  A    between atoms: C10_10  and  O11_11 
REMARK    6  A    between atoms: O11_11  and  C12_12 
ROOT
HETATM    1  C8    D T 609     -20.713   6.078  11.909  1.00 42.96     0.177 C 
ENDROOT
BRANCH   1   2
HETATM    2  O7    D T 609     -22.140   6.245  12.386  1.00 45.57    -0.242 OA
BRANCH   2   3
HETATM    3  N6    D T 609     -23.014   7.309  11.837  1.00 35.78    -0.046 N 
HETATM    4  C1    D T 609     -24.366   6.814  11.383  1.00 32.37     0.209 C 
HETATM    5  N2    D T 609     -25.160   7.896  10.733  1.00 31.22    -0.064 NA
HETATM    6  CM1   D T 609     -24.175   5.643  10.405  1.00 29.06     0.051 C 
HETATM    7  CM2   D T 609     -25.142   6.285  12.609  1.00 32.53     0.051 C 
HETATM    8  C3    D T 609     -24.860   9.188  10.919  1.00 33.38     0.781 C 
HETATM    9  N4    D T 609     -23.805   9.552  11.704  1.00 32.85     0.137 NA
HETATM   10  NH1   D T 609     -25.614  10.132  10.329  1.00 33.22     0.062 N 
HETATM   11  C5    D T 609     -22.891   8.644  12.163  1.00 34.53     0.785 C 
HETATM   12  NH2   D T 609     -21.902   9.063  12.915  1.00 32.63     0.063 N 
ENDBRANCH   2   3
ENDBRANCH   1   2
BRANCH   1  13
HETATM   13  C9    D T 609     -19.850   5.822  13.219  1.00 41.72     0.068 C 
BRANCH  13  14
HETATM   14  C10   D T 609     -19.071   4.431  13.027  1.00 44.58     0.151 C 
BRANCH  14  15
HETATM   15  O11   D T 609     -19.909   3.552  12.178  1.00 45.50    -0.334 OA
BRANCH  15  16
HETATM   16  C12   D T 609     -20.732   2.579  12.855  1.00 41.06     0.084 A 
HETATM   17  C13   D T 609     -20.369   1.168  12.725  1.00 38.83     0.059 A 
HETATM   18  C14   D T 609     -21.154   0.144  13.348  1.00 39.01     0.078 A 
HETATM   19 CL1    D T 609     -18.981   0.720  11.801  1.00 34.26    -0.085 Cl
HETATM   20  C15   D T 609     -22.337   0.484  14.116  1.00 39.27     0.048 A 
HETATM   21  C16   D T 609     -22.721   1.903  14.266  1.00 40.25     0.049 A 
HETATM   22 CL2    D T 609     -23.287  -0.818  14.839  1.00 32.41    -0.086 Cl
HETATM   23  C17   D T 609     -21.909   2.941  13.636  1.00 40.73     0.090 A 
HETATM   24 CL3    D T 609     -24.163   2.378  15.195  1.00 40.57    -0.086 Cl
ENDBRANCH  15  16
ENDBRANCH  14  15
ENDBRANCH  13  14
ENDBRANCH   1  13
TORSDOF 6
ENDMDL
MODEL 2
REMARK VINA RESULT:    -7.746      1.771      2.130
REMARK INTER + INTRA:         -11.139
REMARK INTER:                  -9.981
REMARK INTRA:                  -1.158
REMARK UNBOUND:                -0.676
REMARK  6 active torsions:
REMARK  status: ('A' for Active; 'I' for Inactive)
REMARK    1  A    between atoms: N6_6  and  O7_7 
REMARK    2  A    between atoms: O7_7  and  C8_8 
REMARK    3  A    between atoms: C8_8  and  C9_9 
REMARK    4  A    between atoms: C9_9  and  C10_10 
REMARK    5  A    between atoms: C10_10  and  O11_11 
REMARK    6  A    between atoms: O11_11  and  C12_12 
ROOT
HETATM    1  C8    D T 609     -19.995   5.354  11.604  1.00 42.96     0.177 C 
ENDROOT
BRANCH   1   2
HETATM    2  O7    D T 609     -21.001   5.239  12.730  1.00 45.57    -0.242 OA
BRANCH   2   3
HETATM    3  N6    D T 609     -22.354   5.831  12.614  1.00 35.78    -0.046 N 
HETATM    4  C1    D T 609     -23.473   4.844  12.839  1.00 32.37     0.209 C 
HETATM    5  N2    D T 609     -24.810   5.459  12.596  1.00 31.22    -0.064 NA
HETATM    6  CM1   D T 609     -23.276   3.634  11.911  1.00 29.06     0.051 C 
HETATM    7  CM2   D T 609     -23.408   4.338  14.296  1.00 32.53     0.051 C 
HETATM    8  C3    D T 609     -24.974   6.788  12.593  1.00 33.38     0.781 C 
HETATM    9  N4    D T 609     -23.914   7.621  12.802  1.00 32.85     0.137 NA
HETATM   10  NH1   D T 609     -26.200   7.300  12.389  1.00 33.22     0.062 N 
HETATM   11  C5    D T 609     -22.624   7.170  12.815  1.00 34.53     0.785 C 
HETATM   12  NH2   D T 609     -21.653   8.026  13.022  1.00 32.63     0.063 N 
ENDBRANCH   2   3
ENDBRANCH   1   2
BRANCH   1  13
HETATM   13  C9    D T 609     -18.872   4.273  11.920  1.00 41.72     0.068 C 
BRANCH  13  14
HETATM   14  C10   D T 609     -18.733   4.166  13.516  1.00 44.58     0.151 C 
BRANCH  14  15
HETATM   15  O11   D T 609     -18.387   2.764  13.850  1.00 45.50    -0.334 OA
BRANCH  15  16
HETATM   16  C12   D T 609     -19.397   1.764  13.607  1.00 41.06     0.084 A 
HETATM   17  C13   D T 609     -19.107   0.724  12.621  1.00 38.83     0.059 A 
HETATM   18  C14   D T 609     -20.072  -0.287  12.307  1.00 39.01     0.078 A 
HETATM   19 CL1    D T 609     -17.583   0.711  11.810  1.00 34.26    -0.085 Cl
HETATM   20  C15   D T 609     -21.370  -0.294  12.956  1.00 39.27     0.048 A 
HETATM   21  C16   D T 609     -21.686   0.743  13.959  1.00 40.25     0.049 A 
HETATM   22 CL2    D T 609     -22.537  -1.545  12.513  1.00 32.41    -0.086 Cl
HETATM   23  C17   D T 609     -20.691   1.763  14.281  1.00 40.73     0.090 A 
HETATM   24 CL3    D T 609     -23.262   0.782  14.785  1.00 40.57    -0.086 Cl
ENDBRANCH  15  16
ENDBRANCH  14  15
ENDBRANCH  13  14
ENDBRANCH   1  13
TORSDOF 6
ENDMDL
MODEL 3
REMARK VINA RESULT:    -7.292      4.095      7.103
REMARK INTER + INTRA:         -10.525
REMARK INTER:                  -9.781
REMARK INTRA:                  -0.745
REMARK UNBOUND:                -0.676
REMARK  6 active torsions:
REMARK  status: ('A' for Active; 'I' for Inactive)
REMARK    1  A    between atoms: N6_6  and  O7_7 
REMARK    2  A    between atoms: O7_7  and  C8_8 
REMARK    3  A    between atoms: C8_8  and  C9_9 
REMARK    4  A    between atoms: C9_9  and  C10_10 
REMARK    5  A    between atoms: C10_10  and  O11_11 
REMARK    6  A    between atoms: O11_11  and  C12_12 
ROOT
HETATM    1  C8    D T 609     -20.382   5.268  12.554  1.00 42.96     0.177 C 
ENDROOT
BRANCH   1   2
HETATM    2  O7    D T 609     -20.897   3.993  13.188  1.00 45.57    -0.242 OA
BRANCH   2   3
HETATM    3  N6    D T 609     -21.894   3.141  12.498  1.00 35.78    -0.046 N 
HETATM    4  C1    D T 609     -21.413   1.736  12.225  1.00 32.37     0.209 C 
HETATM    5  N2    D T 609     -22.404   0.958  11.428  1.00 31.22    -0.064 NA
HETATM    6  CM1   D T 609     -20.070   1.797  11.479  1.00 29.06     0.051 C 
HETATM    7  CM2   D T 609     -21.173   1.020  13.572  1.00 32.53     0.051 C 
HETATM    8  C3    D T 609     -23.685   1.338  11.348  1.00 33.38     0.781 C 
HETATM    9  N4    D T 609     -24.120   2.462  11.988  1.00 32.85     0.137 NA
HETATM   10  NH1   D T 609     -24.550   0.596  10.634  1.00 33.22     0.062 N 
HETATM   11  C5    D T 609     -23.256   3.357  12.556  1.00 34.53     0.785 C 
HETATM   12  NH2   D T 609     -23.743   4.416  13.157  1.00 32.63     0.063 N 
ENDBRANCH   2   3
ENDBRANCH   1   2
BRANCH   1  13
HETATM   13  C9    D T 609     -20.289   6.327  13.737  1.00 41.72     0.068 C 
BRANCH  13  14
HETATM   14  C10   D T 609     -21.084   7.644  13.277  1.00 44.58     0.151 C 
BRANCH  14  15
HETATM   15  O11   D T 609     -22.165   7.226  12.354  1.00 45.50    -0.334 OA
BRANCH  15  16
HETATM   16  C12   D T 609     -23.309   8.099  12.247  1.00 41.06     0.084 A 
HETATM   17  C13   D T 609     -24.269   7.840  11.175  1.00 38.83     0.059 A 
HETATM   18  C14   D T 609     -25.415   8.681  10.992  1.00 39.01     0.078 A 
HETATM   19 CL1    D T 609     -24.022   6.509  10.104  1.00 34.26    -0.085 Cl
HETATM   20  C15   D T 609     -25.642   9.819  11.862  1.00 39.27     0.048 A 
HETATM   21  C16   D T 609     -24.689  10.098  12.956  1.00 40.25     0.049 A 
HETATM   22 CL2    D T 609     -27.054  10.843  11.576  1.00 32.41    -0.086 Cl
HETATM   23  C17   D T 609     -23.530   9.229  13.142  1.00 40.73     0.090 A 
HETATM   24 CL3    D T 609     -24.918  11.482  14.052  1.00 40.57    -0.086 Cl
ENDBRANCH  15  16
ENDBRANCH  14  15
ENDBRANCH  13  14
ENDBRANCH   1  13
TORSDOF 6
ENDMDL
MODEL 4
REMARK VINA RESULT:    -7.160      1.909      3.826
REMARK INTER + INTRA:         -10.348
REMARK INTER:                  -9.965
REMARK INTRA:                  -0.382
REMARK UNBOUND:                -0.676
REMARK  6 active torsions:
REMARK  status: ('A' for Active; 'I' for Inactive)
REMARK    1  A    between atoms: N6_6  and  O7_7 
REMARK    2  A    between atoms: O7_7  and  C8_8 
REMARK    3  A    between atoms: C8_8  and  C9_9 
REMARK    4  A    between atoms: C9_9  and  C10_10 
REMARK    5  A    between atoms: C10_10  and  O11_11 
REMARK    6  A    between atoms: O11_11  and  C12_12 
ROOT
HETATM    1  C8    D T 609     -24.068   2.935  12.608  1.00 42.96     0.177 C 
ENDROOT
BRANCH   1   2
HETATM    2  O7    D T 609     -22.984   3.939  12.275  1.00 45.57    -0.242 OA
BRANCH   2   3
HETATM    3  N6    D T 609     -23.303   5.370  12.063  1.00 35.78    -0.046 N 
HETATM    4  C1    D T 609     -22.252   6.314  12.596  1.00 32.37     0.209 C 
HETATM    5  N2    D T 609     -22.672   7.739  12.465  1.00 31.22    -0.064 NA
HETATM    6  CM1   D T 609     -21.975   5.983  14.071  1.00 29.06     0.051 C 
HETATM    7  CM2   D T 609     -20.942   6.100  11.808  1.00 32.53     0.051 C 
HETATM    8  C3    D T 609     -23.645   8.103  11.620  1.00 33.38     0.781 C 
HETATM    9  N4    D T 609     -24.292   7.172  10.859  1.00 32.85     0.137 NA
HETATM   10  NH1   D T 609     -23.980   9.401  11.519  1.00 33.22     0.062 N 
HETATM   11  C5    D T 609     -24.136   5.829  11.063  1.00 34.53     0.785 C 
HETATM   12  NH2   D T 609     -24.787   4.990  10.294  1.00 32.63     0.063 N 
ENDBRANCH   2   3
ENDBRANCH   1   2
BRANCH   1  13
HETATM   13  C9    D T 609     -24.606   3.345  14.047  1.00 41.72     0.068 C 
BRANCH  13  14
HETATM   14  C10   D T 609     -23.629   2.689  15.139  1.00 44.58     0.151 C 
BRANCH  14  15
HETATM   15  O11   D T 609     -23.316   1.308  14.700  1.00 45.50    -0.334 OA
BRANCH  15  16
HETATM   16  C12   D T 609     -22.048   1.103  14.042  1.00 41.06     0.084 A 
HETATM   17  C13   D T 609     -21.886  -0.104  13.232  1.00 38.83     0.059 A 
HETATM   18  C14   D T 609     -20.647  -0.388  12.570  1.00 39.01     0.078 A 
HETATM   19 CL1    D T 609     -23.198  -1.214  13.072  1.00 34.26    -0.085 Cl
HETATM   20  C15   D T 609     -19.518   0.514  12.699  1.00 39.27     0.048 A 
HETATM   21  C16   D T 609     -19.659   1.742  13.508  1.00 40.25     0.049 A 
HETATM   22 CL2    D T 609     -18.003   0.104  11.888  1.00 32.41    -0.086 Cl
HETATM   23  C17   D T 609     -20.929   2.029  14.170  1.00 40.73     0.090 A 
HETATM   24 CL3    D T 609     -18.306   2.883  13.702  1.00 40.57    -0.086 Cl
ENDBRANCH  15  16
ENDBRANCH  14  15
ENDBRANCH  13  14
ENDBRANCH   1  13
TORSDOF 6
ENDMDL
MODEL 5
REMARK VINA RESULT:    -7.134      4.404      7.554
REMARK INTER + INTRA:         -10.312
REMARK INTER:                 -10.041
REMARK INTRA:                  -0.271
REMARK UNBOUND:                -0.676
REMARK  6 active torsions:
REMARK  status: ('A' for Active; 'I' for Inactive)
REMARK    1  A    between atoms: N6_6  and  O7_7 
REMARK    2  A    between atoms: O7_7  and  C8_8 
REMARK    3  A    between atoms: C8_8  and  C9_9 
REMARK    4  A    between atoms: C9_9  and  C10_10 
REMARK    5  A    between atoms: C10_10  and  O11_11 
REMARK    6  A    between atoms: O11_11  and  C12_12 
ROOT
HETATM    1  C8    D T 609     -22.005   5.061  13.813  1.00 42.96     0.177 C 
ENDROOT
BRANCH   1   2
HETATM    2  O7    D T 609     -21.791   4.120  12.647  1.00 45.57    -0.242 OA
BRANCH   2   3
HETATM    3  N6    D T 609     -20.574   3.280  12.552  1.00 35.78    -0.046 N 
HETATM    4  C1    D T 609     -20.820   1.816  12.824  1.00 32.37     0.209 C 
HETATM    5  N2    D T 609     -19.550   1.035  12.833  1.00 31.22    -0.064 NA
HETATM    6  CM1   D T 609     -21.537   1.665  14.175  1.00 29.06     0.051 C 
HETATM    7  CM2   D T 609     -21.751   1.253  11.728  1.00 32.53     0.051 C 
HETATM    8  C3    D T 609     -18.434   1.513  12.267  1.00 33.38     0.781 C 
HETATM    9  N4    D T 609     -18.426   2.741  11.673  1.00 32.85     0.137 NA
HETATM   10  NH1   D T 609     -17.316   0.767  12.280  1.00 33.22     0.062 N 
HETATM   11  C5    D T 609     -19.465   3.620  11.803  1.00 34.53     0.785 C 
HETATM   12  NH2   D T 609     -19.392   4.784  11.203  1.00 32.63     0.063 N 
ENDBRANCH   2   3
ENDBRANCH   1   2
BRANCH   1  13
HETATM   13  C9    D T 609     -20.673   5.923  13.920  1.00 41.72     0.068 C 
BRANCH  13  14
HETATM   14  C10   D T 609     -21.050   7.448  13.591  1.00 44.58     0.151 C 
BRANCH  14  15
HETATM   15  O11   D T 609     -21.758   7.473  12.289  1.00 45.50    -0.334 OA
BRANCH  15  16
HETATM   16  C12   D T 609     -22.982   8.233  12.224  1.00 41.06     0.084 A 
HETATM   17  C13   D T 609     -23.961   7.867  11.202  1.00 38.83     0.059 A 
HETATM   18  C14   D T 609     -25.189   8.593  11.061  1.00 39.01     0.078 A 
HETATM   19 CL1    D T 609     -23.639   6.546  10.138  1.00 34.26    -0.085 Cl
HETATM   20  C15   D T 609     -25.483   9.720  11.926  1.00 39.27     0.048 A 
HETATM   21  C16   D T 609     -24.512  10.107  12.970  1.00 40.25     0.049 A 
HETATM   22 CL2    D T 609     -26.997  10.601  11.693  1.00 32.41    -0.086 Cl
HETATM   23  C17   D T 609     -23.268   9.354  13.114  1.00 40.73     0.090 A 
HETATM   24 CL3    D T 609     -24.821  11.482  14.057  1.00 40.57    -0.086 Cl
ENDBRANCH  15  16
ENDBRANCH  14  15
ENDBRANCH  13  14
ENDBRANCH   1  13
TORSDOF 6
ENDMDL
MODEL 6
REMARK VINA RESULT:    -7.045      2.722      4.161
REMARK INTER + INTRA:         -10.193
REMARK INTER:                  -9.440
REMARK INTRA:                  -0.752
REMARK UNBOUND:                -0.676
REMARK  6 active torsions:
REMARK  status: ('A' for Active; 'I' for Inactive)
REMARK    1  A    between atoms: N6_6  and  O7_7 
REMARK    2  A    between atoms: O7_7  and  C8_8 
REMARK    3  A    between atoms: C8_8  and  C9_9 
REMARK    4  A    between atoms: C9_9  and  C10_10 
REMARK    5  A    between atoms: C10_10  and  O11_11 
REMARK    6  A    between atoms: O11_11  and  C12_12 
ROOT
HETATM    1  C8    D T 609     -24.010   3.294  13.455  1.00 42.96     0.177 C 
ENDROOT
BRANCH   1   2
HETATM    2  O7    D T 609     -23.034   4.048  12.577  1.00 45.57    -0.242 OA
BRANCH   2   3
HETATM    3  N6    D T 609     -23.258   5.469  12.224  1.00 35.78    -0.046 N 
HETATM    4  C1    D T 609     -22.152   6.392  12.677  1.00 32.37     0.209 C 
HETATM    5  N2    D T 609     -22.479   7.821  12.404  1.00 31.22    -0.064 NA
HETATM    6  CM1   D T 609     -21.906   6.188  14.181  1.00 29.06     0.051 C 
HETATM    7  CM2   D T 609     -20.853   6.019  11.931  1.00 32.53     0.051 C 
HETATM    8  C3    D T 609     -23.420   8.162  11.516  1.00 33.38     0.781 C 
HETATM    9  N4    D T 609     -24.120   7.206  10.840  1.00 32.85     0.137 NA
HETATM   10  NH1   D T 609     -23.670   9.463  11.286  1.00 33.22     0.062 N 
HETATM   11  C5    D T 609     -24.053   5.881  11.174  1.00 34.53     0.785 C 
HETATM   12  NH2   D T 609     -24.751   5.015  10.480  1.00 32.63     0.063 N 
ENDBRANCH   2   3
ENDBRANCH   1   2
BRANCH   1  13
HETATM   13  C9    D T 609     -23.124   2.313  14.338  1.00 41.72     0.068 C 
BRANCH  13  14
HETATM   14  C10   D T 609     -21.849   1.883  13.461  1.00 44.58     0.151 C 
BRANCH  14  15
HETATM   15  O11   D T 609     -21.749   0.405  13.495  1.00 45.50    -0.334 OA
BRANCH  15  16
HETATM   16  C12   D T 609     -22.787  -0.336  12.821  1.00 41.06     0.084 A 
HETATM   17  C13   D T 609     -23.665  -1.176  13.635  1.00 38.83     0.059 A 
HETATM   18  C14   D T 609     -24.702  -1.961  13.033  1.00 39.01     0.078 A 
HETATM   19 CL1    D T 609     -23.451  -1.238  15.347  1.00 34.26    -0.085 Cl
HETATM   20  C15   D T 609     -24.898  -1.948  11.596  1.00 39.27     0.048 A 
HETATM   21  C16   D T 609     -24.027  -1.103  10.752  1.00 40.25     0.049 A 
HETATM   22 CL2    D T 609     -26.171  -2.956  10.899  1.00 32.41    -0.086 Cl
HETATM   23  C17   D T 609     -22.980  -0.298  11.376  1.00 40.73     0.090 A 
HETATM   24 CL3    D T 609     -24.222  -1.049   8.984  1.00 40.57    -0.086 Cl
ENDBRANCH  15  16
ENDBRANCH  14  15
ENDBRANCH  13  14
ENDBRANCH   1  13
TORSDOF 6
ENDMDL
MODEL 7
REMARK VINA RESULT:    -6.952      2.449      4.384
REMARK INTER + INTRA:         -10.066
REMARK INTER:                  -9.266
REMARK INTRA:                  -0.800
REMARK UNBOUND:                -0.676
REMARK  6 active torsions:
REMARK  status: ('A' for Active; 'I' for Inactive)
REMARK    1  A    between atoms: N6_6  and  O7_7 
REMARK    2  A    between atoms: O7_7  and  C8_8 
REMARK    3  A    between atoms: C8_8  and  C9_9 
REMARK    4  A    between atoms: C9_9  and  C10_10 
REMARK    5  A    between atoms: C10_10  and  O11_11 
REMARK    6  A    between atoms: O11_11  and  C12_12 
ROOT
HETATM    1  C8    D T 609     -24.675   3.255  10.733  1.00 42.96     0.177 C 
ENDROOT
BRANCH   1   2
HETATM    2  O7    D T 609     -24.895   4.258  11.846  1.00 45.57    -0.242 OA
BRANCH   2   3
HETATM    3  N6    D T 609     -23.782   5.089  12.361  1.00 35.78    -0.046 N 
HETATM    4  C1    D T 609     -23.784   6.505  11.836  1.00 32.37     0.209 C 
HETATM    5  N2    D T 609     -22.583   7.263  12.289  1.00 31.22    -0.064 NA
HETATM    6  CM1   D T 609     -23.838   6.475  10.300  1.00 29.06     0.051 C 
HETATM    7  CM2   D T 609     -25.055   7.222  12.340  1.00 32.53     0.051 C 
HETATM    8  C3    D T 609     -21.857   6.856  13.337  1.00 33.38     0.781 C 
HETATM    9  N4    D T 609     -22.190   5.721  14.017  1.00 32.85     0.137 NA
HETATM   10  NH1   D T 609     -20.792   7.581  13.724  1.00 33.22     0.062 N 
HETATM   11  C5    D T 609     -23.131   4.844  13.553  1.00 34.53     0.785 C 
HETATM   12  NH2   D T 609     -23.404   3.773  14.259  1.00 32.63     0.063 N 
ENDBRANCH   2   3
ENDBRANCH   1   2
BRANCH   1  13
HETATM   13  C9    D T 609     -25.355   1.906  11.230  1.00 41.72     0.068 C 
BRANCH  13  14
HETATM   14  C10   D T 609     -24.348   0.700  10.898  1.00 44.58     0.151 C 
BRANCH  14  15
HETATM   15  O11   D T 609     -23.763   0.229  12.176  1.00 45.50    -0.334 OA
BRANCH  15  16
HETATM   16  C12   D T 609     -22.433   0.689  12.495  1.00 41.06     0.084 A 
HETATM   17  C13   D T 609     -22.017   0.659  13.896  1.00 38.83     0.059 A 
HETATM   18  C14   D T 609     -20.721   1.124  14.292  1.00 39.01     0.078 A 
HETATM   19 CL1    D T 609     -23.101   0.065  15.101  1.00 34.26    -0.085 Cl
HETATM   20  C15   D T 609     -19.792   1.647  13.307  1.00 39.27     0.048 A 
HETATM   21  C16   D T 609     -20.187   1.683  11.885  1.00 40.25     0.049 A 
HETATM   22 CL2    D T 609     -18.217   2.236  13.850  1.00 32.41    -0.086 Cl
HETATM   23  C17   D T 609     -21.507   1.197  11.489  1.00 40.73     0.090 A 
HETATM   24 CL3    D T 609     -19.088   2.316  10.635  1.00 40.57    -0.086 Cl
ENDBRANCH  15  16
ENDBRANCH  14  15
ENDBRANCH  13  14
ENDBRANCH   1  13
TORSDOF 6
ENDMDL
MODEL 8
REMARK VINA RESULT:    -6.925      2.273      2.981
REMARK INTER + INTRA:         -10.030
REMARK INTER:                  -9.633
REMARK INTRA:                  -0.397
REMARK UNBOUND:                -0.676
REMARK  6 active torsions:
REMARK  status: ('A' for Active; 'I' for Inactive)
REMARK    1  A    between atoms: N6_6  and  O7_7 
REMARK    2  A    between atoms: O7_7  and  C8_8 
REMARK    3  A    between atoms: C8_8  and  C9_9 
REMARK    4  A    between atoms: C9_9  and  C10_10 
REMARK    5  A    between atoms: C10_10  and  O11_11 
REMARK    6  A    between atoms: O11_11  and  C12_12 
ROOT
HETATM    1  C8    D T 609     -22.061   5.346  11.944  1.00 42.96     0.177 C 
ENDROOT
BRANCH   1   2
HETATM    2  O7    D T 609     -23.046   6.275  12.623  1.00 45.57    -0.242 OA
BRANCH   2   3
HETATM    3  N6    D T 609     -23.673   7.399  11.888  1.00 35.78    -0.046 N 
HETATM    4  C1    D T 609     -25.088   7.123  11.442  1.00 32.37     0.209 C 
HETATM    5  N2    D T 609     -25.631   8.233  10.608  1.00 31.22    -0.064 NA
HETATM    6  CM1   D T 609     -25.121   5.806  10.648  1.00 29.06     0.051 C 
HETATM    7  CM2   D T 609     -25.980   6.945  12.689  1.00 32.53     0.051 C 
HETATM    8  C3    D T 609     -25.077   9.452  10.626  1.00 33.38     0.781 C 
HETATM    9  N4    D T 609     -23.986   9.710  11.404  1.00 32.85     0.137 NA
HETATM   10  NH1   D T 609     -25.610  10.431   9.874  1.00 33.22     0.062 N 
HETATM   11  C5    D T 609     -23.286   8.716  12.030  1.00 34.53     0.785 C 
HETATM   12  NH2   D T 609     -22.247   9.036  12.764  1.00 32.63     0.063 N 
ENDBRANCH   2   3
ENDBRANCH   1   2
BRANCH   1  13
HETATM   13  C9    D T 609     -22.010   4.040  12.849  1.00 41.72     0.068 C 
BRANCH  13  14
HETATM   14  C10   D T 609     -23.049   2.980  12.236  1.00 44.58     0.151 C 
BRANCH  14  15
HETATM   15  O11   D T 609     -22.315   1.719  11.975  1.00 45.50    -0.334 OA
BRANCH  15  16
HETATM   16  C12   D T 609     -23.052   0.489  12.129  1.00 41.06     0.084 A 
HETATM   17  C13   D T 609     -23.055  -0.145  13.447  1.00 38.83     0.059 A 
HETATM   18  C14   D T 609     -23.744  -1.381  13.671  1.00 39.01     0.078 A 
HETATM   19 CL1    D T 609     -22.211   0.596  14.759  1.00 34.26    -0.085 Cl
HETATM   20  C15   D T 609     -24.447  -2.040  12.586  1.00 39.27     0.048 A 
HETATM   21  C16   D T 609     -24.462  -1.418  11.247  1.00 40.25     0.049 A 
HETATM   22 CL2    D T 609     -25.255  -3.579  12.905  1.00 32.41    -0.086 Cl
HETATM   23  C17   D T 609     -23.767  -0.151  11.031  1.00 40.73     0.090 A 
HETATM   24 CL3    D T 609     -25.307  -2.183   9.880  1.00 40.57    -0.086 Cl
ENDBRANCH  15  16
ENDBRANCH  14  15
ENDBRANCH  13  14
ENDBRANCH   1  13
TORSDOF 6
ENDMDL
MODEL 9
REMARK VINA RESULT:    -6.924      4.649      7.866
REMARK INTER + INTRA:         -10.029
REMARK INTER:                  -9.641
REMARK INTRA:                  -0.387
REMARK UNBOUND:                -0.676
REMARK  6 active torsions:
REMARK  status: ('A' for Active; 'I' for Inactive)
REMARK    1  A    between atoms: N6_6  and  O7_7 
REMARK    2  A    between atoms: O7_7  and  C8_8 
REMARK    3  A    between atoms: C8_8  and  C9_9 
REMARK    4  A    between atoms: C9_9  and  C10_10 
REMARK    5  A    between atoms: C10_10  and  O11_11 
REMARK    6  A    between atoms: O11_11  and  C12_12 
ROOT
HETATM    1  C8    D T 609     -22.637   3.507  13.463  1.00 42.96     0.177 C 
ENDROOT
BRANCH   1   2
HETATM    2  O7    D T 609     -21.789   3.430  12.210  1.00 45.57    -0.242 OA
BRANCH   2   3
HETATM    3  N6    D T 609     -20.594   2.557  12.145  1.00 35.78    -0.046 N 
HETATM    4  C1    D T 609     -19.286   3.305  12.241  1.00 32.37     0.209 C 
HETATM    5  N2    D T 609     -18.117   2.399  12.052  1.00 31.22    -0.064 NA
HETATM    6  CM1   D T 609     -19.261   4.420  11.183  1.00 29.06     0.051 C 
HETATM    7  CM2   D T 609     -19.191   3.969  13.632  1.00 32.53     0.051 C 
HETATM    8  C3    D T 609     -18.232   1.073  12.199  1.00 33.38     0.781 C 
HETATM    9  N4    D T 609     -19.434   0.509  12.515  1.00 32.85     0.137 NA
HETATM   10  NH1   D T 609     -17.148   0.294  12.038  1.00 33.22     0.062 N 
HETATM   11  C5    D T 609     -20.601   1.221  12.494  1.00 34.53     0.785 C 
HETATM   12  NH2   D T 609     -21.720   0.617  12.811  1.00 32.63     0.063 N 
ENDBRANCH   2   3
ENDBRANCH   1   2
BRANCH   1  13
HETATM   13  C9    D T 609     -23.317   4.944  13.432  1.00 41.72     0.068 C 
BRANCH  13  14
HETATM   14  C10   D T 609     -22.176   6.031  13.740  1.00 44.58     0.151 C 
BRANCH  14  15
HETATM   15  O11   D T 609     -22.085   6.940  12.574  1.00 45.50    -0.334 OA
BRANCH  15  16
HETATM   16  C12   D T 609     -23.171   7.870  12.383  1.00 41.06     0.084 A 
HETATM   17  C13   D T 609     -24.024   7.694  11.209  1.00 38.83     0.059 A 
HETATM   18  C14   D T 609     -25.107   8.594  10.941  1.00 39.01     0.078 A 
HETATM   19 CL1    D T 609     -23.727   6.389  10.119  1.00 34.26    -0.085 Cl
HETATM   20  C15   D T 609     -25.373   9.712  11.826  1.00 39.27     0.048 A 
HETATM   21  C16   D T 609     -24.528   9.909  13.021  1.00 40.25     0.049 A 
HETATM   22 CL2    D T 609     -26.700  10.811  11.435  1.00 32.41    -0.086 Cl
HETATM   23  C17   D T 609     -23.434   8.980  13.293  1.00 40.73     0.090 A 
HETATM   24 CL3    D T 609     -24.809  11.265  14.140  1.00 40.57    -0.086 Cl
ENDBRANCH  15  16
ENDBRANCH  14  15
ENDBRANCH  13  14
ENDBRANCH   1  13
TORSDOF 6
ENDMDL
