MODEL 1
REMARK VINA RESULT:    -7.571      0.000      0.000
REMARK INTER + INTRA:         -11.415
REMARK INTER:                 -10.226
REMARK INTRA:                  -1.189
REMARK UNBOUND:                -1.189
REMARK  6 active torsions:
REMARK  status: ('A' for Active; 'I' for Inactive)
REMARK    1  A    between atoms: N6_6  and  O7_7 
REMARK    2  A    between atoms: O7_7  and  C8_8 
REMARK    3  A    between atoms: C8_8  and  C9_9 
REMARK    4  A    between atoms: C9_9  and  C10_10 
REMARK    5  A    between atoms: C10_10  and  O11_11 
REMARK    6  A    between atoms: O11_11  and  C12_12 
ROOT
HETATM    1  C8    D T 609     -19.872   5.023  11.064  1.00 42.96     0.177 C 
ENDROOT
BRANCH   1   2
HETATM    2  O7    D T 609     -20.777   5.076  12.277  1.00 45.57    -0.242 OA
BRANCH   2   3
HETATM    3  N6    D T 609     -22.187   5.517  12.166  1.00 35.78    -0.046 N 
HETATM    4  C1    D T 609     -23.192   4.436  12.478  1.00 32.37     0.209 C 
HETATM    5  N2    D T 609     -24.590   4.895  12.237  1.00 31.22    -0.064 NA
HETATM    6  CM1   D T 609     -22.891   3.199  11.617  1.00 29.06     0.051 C 
HETATM    7  CM2   D T 609     -23.042   4.029  13.960  1.00 32.53     0.051 C 
HETATM    8  C3    D T 609     -24.891   6.197  12.162  1.00 33.38     0.781 C 
HETATM    9  N4    D T 609     -23.919   7.147  12.293  1.00 32.85     0.137 NA
HETATM   10  NH1   D T 609     -26.169   6.568  11.964  1.00 33.22     0.062 N 
HETATM   11  C5    D T 609     -22.590   6.830  12.296  1.00 34.53     0.785 C 
HETATM   12  NH2   D T 609     -21.709   7.794  12.426  1.00 32.63     0.063 N 
ENDBRANCH   2   3
ENDBRANCH   1   2
BRANCH   1  13
HETATM   13  C9    D T 609     -18.832   3.856  11.354  1.00 41.72     0.068 C 
BRANCH  13  14
HETATM   14  C10   D T 609     -18.542   3.839  12.933  1.00 44.58     0.151 C 
BRANCH  14  15
HETATM   15  O11   D T 609     -18.141   2.461  13.308  1.00 45.50    -0.334 OA
BRANCH  15  16
HETATM   16  C12   D T 609     -19.127   1.423  13.132  1.00 41.06     0.084 A 
HETATM   17  C13   D T 609     -18.826   0.349  12.186  1.00 38.83     0.059 A 
HETATM   18  C14   D T 609     -19.768  -0.703  11.939  1.00 39.01     0.078 A 
HETATM   19 CL1    D T 609     -17.320   0.346  11.342  1.00 34.26    -0.085 Cl
HETATM   20  C15   D T 609     -21.050  -0.720  12.618  1.00 39.27     0.048 A 
HETATM   21  C16   D T 609     -21.375   0.351  13.581  1.00 40.25     0.049 A 
HETATM   22 CL2    D T 609     -22.188  -2.022  12.256  1.00 32.41    -0.086 Cl
HETATM   23  C17   D T 609     -20.405   1.413  13.836  1.00 40.73     0.090 A 
HETATM   24 CL3    D T 609     -22.934   0.381  14.441  1.00 40.57    -0.086 Cl
ENDBRANCH  15  16
ENDBRANCH  14  15
ENDBRANCH  13  14
ENDBRANCH   1  13
TORSDOF 6
ENDMDL
MODEL 2
REMARK VINA RESULT:    -7.460      1.767      2.125
REMARK INTER + INTRA:         -11.266
REMARK INTER:                 -10.503
REMARK INTRA:                  -0.763
REMARK UNBOUND:                -1.189
REMARK  6 active torsions:
REMARK  status: ('A' for Active; 'I' for Inactive)
REMARK    1  A    between atoms: N6_6  and  O7_7 
REMARK    2  A    between atoms: O7_7  and  C8_8 
REMARK    3  A    between atoms: C8_8  and  C9_9 
REMARK    4  A    between atoms: C9_9  and  C10_10 
REMARK    5  A    between atoms: C10_10  and  O11_11 
REMARK    6  A    between atoms: O11_11  and  C12_12 
ROOT
HETATM    1  C8    D T 609     -20.676   5.526  11.419  1.00 42.96     0.177 C 
ENDROOT
BRANCH   1   2
HETATM    2  O7    D T 609     -22.041   5.777  12.025  1.00 45.57    -0.242 OA
BRANCH   2   3
HETATM    3  N6    D T 609     -22.962   6.787  11.455  1.00 35.78    -0.046 N 
HETATM    4  C1    D T 609     -24.273   6.216  10.973  1.00 32.37     0.209 C 
HETATM    5  N2    D T 609     -25.112   7.248  10.301  1.00 31.22    -0.064 NA
HETATM    6  CM1   D T 609     -23.996   5.055  10.004  1.00 29.06     0.051 C 
HETATM    7  CM2   D T 609     -25.044   5.647  12.185  1.00 32.53     0.051 C 
HETATM    8  C3    D T 609     -24.890   8.555  10.489  1.00 33.38     0.781 C 
HETATM    9  N4    D T 609     -23.875   8.981  11.296  1.00 32.85     0.137 NA
HETATM   10  NH1   D T 609     -25.684   9.454   9.879  1.00 33.22     0.062 N 
HETATM   11  C5    D T 609     -22.922   8.128  11.777  1.00 34.53     0.785 C 
HETATM   12  NH2   D T 609     -21.974   8.606  12.549  1.00 32.63     0.063 N 
ENDBRANCH   2   3
ENDBRANCH   1   2
BRANCH   1  13
HETATM   13  C9    D T 609     -19.664   5.485  12.644  1.00 41.72     0.068 C 
BRANCH  13  14
HETATM   14  C10   D T 609     -19.000   4.024  12.684  1.00 44.58     0.151 C 
BRANCH  14  15
HETATM   15  O11   D T 609     -19.841   3.119  11.863  1.00 45.50    -0.334 OA
BRANCH  15  16
HETATM   16  C12   D T 609     -20.613   2.125  12.569  1.00 41.06     0.084 A 
HETATM   17  C13   D T 609     -20.283   0.719  12.346  1.00 38.83     0.059 A 
HETATM   18  C14   D T 609     -21.024  -0.325  12.993  1.00 39.01     0.078 A 
HETATM   19 CL1    D T 609     -18.991   0.298  11.282  1.00 34.26    -0.085 Cl
HETATM   20  C15   D T 609     -22.128  -0.007  13.878  1.00 39.27     0.048 A 
HETATM   21  C16   D T 609     -22.477   1.407  14.123  1.00 40.25     0.049 A 
HETATM   22 CL2    D T 609     -23.027  -1.330  14.626  1.00 32.41    -0.086 Cl
HETATM   23  C17   D T 609     -21.710   2.465  13.469  1.00 40.73     0.090 A 
HETATM   24 CL3    D T 609     -23.823   1.855  15.199  1.00 40.57    -0.086 Cl
ENDBRANCH  15  16
ENDBRANCH  14  15
ENDBRANCH  13  14
ENDBRANCH   1  13
TORSDOF 6
ENDMDL
MODEL 3
REMARK VINA RESULT:    -7.031      2.432      3.042
REMARK INTER + INTRA:         -10.686
REMARK INTER:                 -10.021
REMARK INTRA:                  -0.664
REMARK UNBOUND:                -1.189
REMARK  6 active torsions:
REMARK  status: ('A' for Active; 'I' for Inactive)
REMARK    1  A    between atoms: N6_6  and  O7_7 
REMARK    2  A    between atoms: O7_7  and  C8_8 
REMARK    3  A    between atoms: C8_8  and  C9_9 
REMARK    4  A    between atoms: C9_9  and  C10_10 
REMARK    5  A    between atoms: C10_10  and  O11_11 
REMARK    6  A    between atoms: O11_11  and  C12_12 
ROOT
HETATM    1  C8    D T 609     -20.807   5.960  11.780  1.00 42.96     0.177 C 
ENDROOT
BRANCH   1   2
HETATM    2  O7    D T 609     -22.262   6.096  12.178  1.00 45.57    -0.242 OA
BRANCH   2   3
HETATM    3  N6    D T 609     -23.157   7.064  11.503  1.00 35.78    -0.046 N 
HETATM    4  C1    D T 609     -24.419   6.447  10.951  1.00 32.37     0.209 C 
HETATM    5  N2    D T 609     -25.225   7.436  10.180  1.00 31.22    -0.064 NA
HETATM    6  CM1   D T 609     -24.050   5.256  10.052  1.00 29.06     0.051 C 
HETATM    7  CM2   D T 609     -25.265   5.909  12.126  1.00 32.53     0.051 C 
HETATM    8  C3    D T 609     -25.041   8.753  10.332  1.00 33.38     0.781 C 
HETATM    9  N4    D T 609     -24.096   9.231  11.193  1.00 32.85     0.137 NA
HETATM   10  NH1   D T 609     -25.805   9.611   9.631  1.00 33.22     0.062 N 
HETATM   11  C5    D T 609     -23.165   8.417  11.774  1.00 34.53     0.785 C 
HETATM   12  NH2   D T 609     -22.284   8.943  12.593  1.00 32.63     0.063 N 
ENDBRANCH   2   3
ENDBRANCH   1   2
BRANCH   1  13
HETATM   13  C9    D T 609     -20.300   4.615  12.459  1.00 41.72     0.068 C 
BRANCH  13  14
HETATM   14  C10   D T 609     -21.536   3.591  12.504  1.00 44.58     0.151 C 
BRANCH  14  15
HETATM   15  O11   D T 609     -21.111   2.334  11.840  1.00 45.50    -0.334 OA
BRANCH  15  16
HETATM   16  C12   D T 609     -22.112   1.306  11.687  1.00 41.06     0.084 A 
HETATM   17  C13   D T 609     -21.715  -0.077  11.944  1.00 38.83     0.059 A 
HETATM   18  C14   D T 609     -22.647  -1.155  11.788  1.00 39.01     0.078 A 
HETATM   19 CL1    D T 609     -20.097  -0.429  12.436  1.00 34.26    -0.085 Cl
HETATM   20  C15   D T 609     -24.008  -0.896  11.358  1.00 39.27     0.048 A 
HETATM   21  C16   D T 609     -24.434   0.494  11.097  1.00 40.25     0.049 A 
HETATM   22 CL2    D T 609     -25.110  -2.262  11.150  1.00 32.41    -0.086 Cl
HETATM   23  C17   D T 609     -23.481   1.587  11.270  1.00 40.73     0.090 A 
HETATM   24 CL3    D T 609     -26.092   0.869  10.566  1.00 40.57    -0.086 Cl
ENDBRANCH  15  16
ENDBRANCH  14  15
ENDBRANCH  13  14
ENDBRANCH   1  13
TORSDOF 6
ENDMDL
MODEL 4
REMARK VINA RESULT:    -6.980      2.933      4.594
REMARK INTER + INTRA:         -10.617
REMARK INTER:                  -9.858
REMARK INTRA:                  -0.758
REMARK UNBOUND:                -1.189
REMARK  6 active torsions:
REMARK  status: ('A' for Active; 'I' for Inactive)
REMARK    1  A    between atoms: N6_6  and  O7_7 
REMARK    2  A    between atoms: O7_7  and  C8_8 
REMARK    3  A    between atoms: C8_8  and  C9_9 
REMARK    4  A    between atoms: C9_9  and  C10_10 
REMARK    5  A    between atoms: C10_10  and  O11_11 
REMARK    6  A    between atoms: O11_11  and  C12_12 
ROOT
HETATM    1  C8    D T 609     -22.321   8.412  12.512  1.00 42.96     0.177 C 
ENDROOT
BRANCH   1   2
HETATM    2  O7    D T 609     -23.772   8.246  12.915  1.00 45.57    -0.242 OA
BRANCH   2   3
HETATM    3  N6    D T 609     -24.833   9.102  12.335  1.00 35.78    -0.046 N 
HETATM    4  C1    D T 609     -25.755   8.375  11.387  1.00 32.37     0.209 C 
HETATM    5  N2    D T 609     -26.727   9.302  10.742  1.00 31.22    -0.064 NA
HETATM    6  CM1   D T 609     -24.918   7.662  10.313  1.00 29.06     0.051 C 
HETATM    7  CM2   D T 609     -26.530   7.296  12.175  1.00 32.53     0.051 C 
HETATM    8  C3    D T 609     -26.989  10.507  11.262  1.00 33.38     0.781 C 
HETATM    9  N4    D T 609     -26.361  10.929  12.398  1.00 32.85     0.137 NA
HETATM   10  NH1   D T 609     -27.889  11.305  10.658  1.00 33.22     0.062 N 
HETATM   11  C5    D T 609     -25.302  10.252  12.936  1.00 34.53     0.785 C 
HETATM   12  NH2   D T 609     -24.745  10.714  14.031  1.00 32.63     0.063 N 
ENDBRANCH   2   3
ENDBRANCH   1   2
BRANCH   1  13
HETATM   13  C9    D T 609     -21.560   7.158  13.126  1.00 41.72     0.068 C 
BRANCH  13  14
HETATM   14  C10   D T 609     -20.757   6.441  11.935  1.00 44.58     0.151 C 
BRANCH  14  15
HETATM   15  O11   D T 609     -21.633   5.389  11.364  1.00 45.50    -0.334 OA
BRANCH  15  16
HETATM   16  C12   D T 609     -21.646   4.112  12.036  1.00 41.06     0.084 A 
HETATM   17  C13   D T 609     -22.899   3.674  12.647  1.00 38.83     0.059 A 
HETATM   18  C14   D T 609     -22.981   2.429  13.354  1.00 39.01     0.078 A 
HETATM   19 CL1    D T 609     -24.306   4.668  12.529  1.00 34.26    -0.085 Cl
HETATM   20  C15   D T 609     -21.813   1.579  13.487  1.00 39.27     0.048 A 
HETATM   21  C16   D T 609     -20.537   1.998  12.874  1.00 40.25     0.049 A 
HETATM   22 CL2    D T 609     -21.959   0.069  14.394  1.00 32.41    -0.086 Cl
HETATM   23  C17   D T 609     -20.465   3.262  12.146  1.00 40.73     0.090 A 
HETATM   24 CL3    D T 609     -19.072   0.994  13.009  1.00 40.57    -0.086 Cl
ENDBRANCH  15  16
ENDBRANCH  14  15
ENDBRANCH  13  14
ENDBRANCH   1  13
TORSDOF 6
ENDMDL
MODEL 5
REMARK VINA RESULT:    -6.890      1.981      3.889
REMARK INTER + INTRA:         -10.496
REMARK INTER:                  -9.676
REMARK INTRA:                  -0.820
REMARK UNBOUND:                -1.189
REMARK  6 active torsions:
REMARK  status: ('A' for Active; 'I' for Inactive)
REMARK    1  A    between atoms: N6_6  and  O7_7 
REMARK    2  A    between atoms: O7_7  and  C8_8 
REMARK    3  A    between atoms: C8_8  and  C9_9 
REMARK    4  A    between atoms: C9_9  and  C10_10 
REMARK    5  A    between atoms: C10_10  and  O11_11 
REMARK    6  A    between atoms: O11_11  and  C12_12 
ROOT
HETATM    1  C8    D T 609     -24.228   3.028  12.171  1.00 42.96     0.177 C 
ENDROOT
BRANCH   1   2
HETATM    2  O7    D T 609     -23.441   4.160  11.545  1.00 45.57    -0.242 OA
BRANCH   2   3
HETATM    3  N6    D T 609     -23.694   5.571  11.919  1.00 35.78    -0.046 N 
HETATM    4  C1    D T 609     -22.509   6.256  12.555  1.00 32.37     0.209 C 
HETATM    5  N2    D T 609     -22.850   7.631  13.021  1.00 31.22    -0.064 NA
HETATM    6  CM1   D T 609     -22.009   5.412  13.738  1.00 29.06     0.051 C 
HETATM    7  CM2   D T 609     -21.367   6.342  11.519  1.00 32.53     0.051 C 
HETATM    8  C3    D T 609     -23.925   8.277  12.552  1.00 33.38     0.781 C 
HETATM    9  N4    D T 609     -24.751   7.687  11.639  1.00 32.85     0.137 NA
HETATM   10  NH1   D T 609     -24.185   9.525  12.984  1.00 33.22     0.062 N 
HETATM   11  C5    D T 609     -24.651   6.363  11.319  1.00 34.53     0.785 C 
HETATM   12  NH2   D T 609     -25.478   5.861  10.431  1.00 32.63     0.063 N 
ENDBRANCH   2   3
ENDBRANCH   1   2
BRANCH   1  13
HETATM   13  C9    D T 609     -24.723   2.127  10.958  1.00 41.72     0.068 C 
BRANCH  13  14
HETATM   14  C10   D T 609     -23.678   0.921  10.785  1.00 44.58     0.151 C 
BRANCH  14  15
HETATM   15  O11   D T 609     -22.919   0.789  12.053  1.00 45.50    -0.334 OA
BRANCH  15  16
HETATM   16  C12   D T 609     -21.481   0.858  11.964  1.00 41.06     0.084 A 
HETATM   17  C13   D T 609     -20.730  -0.394  12.050  1.00 38.83     0.059 A 
HETATM   18  C14   D T 609     -19.298  -0.401  11.996  1.00 39.01     0.078 A 
HETATM   19 CL1    D T 609     -21.573  -1.890  12.229  1.00 34.26    -0.085 Cl
HETATM   20  C15   D T 609     -18.558   0.840  11.865  1.00 39.27     0.048 A 
HETATM   21  C16   D T 609     -19.294   2.116  11.771  1.00 40.25     0.049 A 
HETATM   22 CL2    D T 609     -16.793   0.779  11.833  1.00 32.41    -0.086 Cl
HETATM   23  C17   D T 609     -20.755   2.114  11.816  1.00 40.73     0.090 A 
HETATM   24 CL3    D T 609     -18.438   3.669  11.611  1.00 40.57    -0.086 Cl
ENDBRANCH  15  16
ENDBRANCH  14  15
ENDBRANCH  13  14
ENDBRANCH   1  13
TORSDOF 6
ENDMDL
MODEL 6
REMARK VINA RESULT:    -6.889      4.764      7.844
REMARK INTER + INTRA:         -10.495
REMARK INTER:                 -10.172
REMARK INTRA:                  -0.322
REMARK UNBOUND:                -1.189
REMARK  6 active torsions:
REMARK  status: ('A' for Active; 'I' for Inactive)
REMARK    1  A    between atoms: N6_6  and  O7_7 
REMARK    2  A    between atoms: O7_7  and  C8_8 
REMARK    3  A    between atoms: C8_8  and  C9_9 
REMARK    4  A    between atoms: C9_9  and  C10_10 
REMARK    5  A    between atoms: C10_10  and  O11_11 
REMARK    6  A    between atoms: O11_11  and  C12_12 
ROOT
HETATM    1  C8    D T 609     -21.534   4.870  13.297  1.00 42.96     0.177 C 
ENDROOT
BRANCH   1   2
HETATM    2  O7    D T 609     -21.434   3.867  12.167  1.00 45.57    -0.242 OA
BRANCH   2   3
HETATM    3  N6    D T 609     -20.286   2.936  12.064  1.00 35.78    -0.046 N 
HETATM    4  C1    D T 609     -20.632   1.501  12.379  1.00 32.37     0.209 C 
HETATM    5  N2    D T 609     -19.424   0.628  12.379  1.00 31.22    -0.064 NA
HETATM    6  CM1   D T 609     -21.326   1.436  13.750  1.00 29.06     0.051 C 
HETATM    7  CM2   D T 609     -21.630   0.986  11.319  1.00 32.53     0.051 C 
HETATM    8  C3    D T 609     -18.291   1.009  11.776  1.00 33.38     0.781 C 
HETATM    9  N4    D T 609     -18.206   2.219  11.151  1.00 32.85     0.137 NA
HETATM   10  NH1   D T 609     -17.231   0.181  11.782  1.00 33.22     0.062 N 
HETATM   11  C5    D T 609     -19.174   3.175  11.283  1.00 34.53     0.785 C 
HETATM   12  NH2   D T 609     -19.028   4.317  10.653  1.00 32.63     0.063 N 
ENDBRANCH   2   3
ENDBRANCH   1   2
BRANCH   1  13
HETATM   13  C9    D T 609     -20.590   6.080  12.882  1.00 41.72     0.068 C 
BRANCH  13  14
HETATM   14  C10   D T 609     -21.526   7.274  12.357  1.00 44.58     0.151 C 
BRANCH  14  15
HETATM   15  O11   D T 609     -22.937   6.888  12.600  1.00 45.50    -0.334 OA
BRANCH  15  16
HETATM   16  C12   D T 609     -23.952   7.830  12.194  1.00 41.06     0.084 A 
HETATM   17  C13   D T 609     -24.601   7.621  10.901  1.00 38.83     0.059 A 
HETATM   18  C14   D T 609     -25.600   8.530  10.420  1.00 39.01     0.078 A 
HETATM   19 CL1    D T 609     -24.157   6.267   9.927  1.00 34.26    -0.085 Cl
HETATM   20  C15   D T 609     -25.982   9.688  11.205  1.00 39.27     0.048 A 
HETATM   21  C16   D T 609     -25.345   9.918  12.517  1.00 40.25     0.049 A 
HETATM   22 CL2    D T 609     -27.196  10.794  10.554  1.00 32.41    -0.086 Cl
HETATM   23  C17   D T 609     -24.336   8.980  13.005  1.00 40.73     0.090 A 
HETATM   24 CL3    D T 609     -25.775  11.323  13.522  1.00 40.57    -0.086 Cl
ENDBRANCH  15  16
ENDBRANCH  14  15
ENDBRANCH  13  14
ENDBRANCH   1  13
TORSDOF 6
ENDMDL
MODEL 7
REMARK VINA RESULT:    -6.876      4.677      7.543
REMARK INTER + INTRA:         -10.477
REMARK INTER:                  -9.811
REMARK INTRA:                  -0.666
REMARK UNBOUND:                -1.189
REMARK  6 active torsions:
REMARK  status: ('A' for Active; 'I' for Inactive)
REMARK    1  A    between atoms: N6_6  and  O7_7 
REMARK    2  A    between atoms: O7_7  and  C8_8 
REMARK    3  A    between atoms: C8_8  and  C9_9 
REMARK    4  A    between atoms: C9_9  and  C10_10 
REMARK    5  A    between atoms: C10_10  and  O11_11 
REMARK    6  A    between atoms: O11_11  and  C12_12 
ROOT
HETATM    1  C8    D T 609     -20.796   4.797  12.814  1.00 42.96     0.177 C 
ENDROOT
BRANCH   1   2
HETATM    2  O7    D T 609     -21.495   3.692  12.049  1.00 45.57    -0.242 OA
BRANCH   2   3
HETATM    3  N6    D T 609     -21.814   2.395  12.689  1.00 35.78    -0.046 N 
HETATM    4  C1    D T 609     -23.284   2.057  12.685  1.00 32.37     0.209 C 
HETATM    5  N2    D T 609     -23.565   0.805  13.444  1.00 31.22    -0.064 NA
HETATM    6  CM1   D T 609     -24.076   3.226  13.293  1.00 29.06     0.051 C 
HETATM    7  CM2   D T 609     -23.751   1.879  11.224  1.00 32.53     0.051 C 
HETATM    8  C3    D T 609     -22.595  -0.079  13.712  1.00 33.38     0.781 C 
HETATM    9  N4    D T 609     -21.312   0.150  13.306  1.00 32.85     0.137 NA
HETATM   10  NH1   D T 609     -22.896  -1.206  14.382  1.00 33.22     0.062 N 
HETATM   11  C5    D T 609     -20.913   1.356  12.804  1.00 34.53     0.785 C 
HETATM   12  NH2   D T 609     -19.663   1.507  12.433  1.00 32.63     0.063 N 
ENDBRANCH   2   3
ENDBRANCH   1   2
BRANCH   1  13
HETATM   13  C9    D T 609     -20.624   5.993  11.781  1.00 41.72     0.068 C 
BRANCH  13  14
HETATM   14  C10   D T 609     -21.419   7.261  12.362  1.00 44.58     0.151 C 
BRANCH  14  15
HETATM   15  O11   D T 609     -22.823   6.846  12.605  1.00 45.50    -0.334 OA
BRANCH  15  16
HETATM   16  C12   D T 609     -23.855   7.780  12.223  1.00 41.06     0.084 A 
HETATM   17  C13   D T 609     -24.580   7.526  10.979  1.00 38.83     0.059 A 
HETATM   18  C14   D T 609     -25.601   8.423  10.522  1.00 39.01     0.078 A 
HETATM   19 CL1    D T 609     -24.200   6.132  10.033  1.00 34.26    -0.085 Cl
HETATM   20  C15   D T 609     -25.931   9.613  11.284  1.00 39.27     0.048 A 
HETATM   21  C16   D T 609     -25.217   9.888  12.546  1.00 40.25     0.049 A 
HETATM   22 CL2    D T 609     -27.176  10.702  10.662  1.00 32.41    -0.086 Cl
HETATM   23  C17   D T 609     -24.186   8.962  13.010  1.00 40.73     0.090 A 
HETATM   24 CL3    D T 609     -25.581  11.334  13.520  1.00 40.57    -0.086 Cl
ENDBRANCH  15  16
ENDBRANCH  14  15
ENDBRANCH  13  14
ENDBRANCH   1  13
TORSDOF 6
ENDMDL
MODEL 8
REMARK VINA RESULT:    -6.686      4.465      7.705
REMARK INTER + INTRA:         -10.220
REMARK INTER:                  -9.998
REMARK INTRA:                  -0.221
REMARK UNBOUND:                -1.189
REMARK  6 active torsions:
REMARK  status: ('A' for Active; 'I' for Inactive)
REMARK    1  A    between atoms: N6_6  and  O7_7 
REMARK    2  A    between atoms: O7_7  and  C8_8 
REMARK    3  A    between atoms: C8_8  and  C9_9 
REMARK    4  A    between atoms: C9_9  and  C10_10 
REMARK    5  A    between atoms: C10_10  and  O11_11 
REMARK    6  A    between atoms: O11_11  and  C12_12 
ROOT
HETATM    1  C8    D T 609     -22.833   3.043  11.688  1.00 42.96     0.177 C 
ENDROOT
BRANCH   1   2
HETATM    2  O7    D T 609     -21.754   3.334  12.710  1.00 45.57    -0.242 OA
BRANCH   2   3
HETATM    3  N6    D T 609     -20.397   2.755  12.583  1.00 35.78    -0.046 N 
HETATM    4  C1    D T 609     -20.339   1.269  12.842  1.00 32.37     0.209 C 
HETATM    5  N2    D T 609     -18.939   0.759  12.819  1.00 31.22    -0.064 NA
HETATM    6  CM1   D T 609     -20.986   0.965  14.203  1.00 29.06     0.051 C 
HETATM    7  CM2   D T 609     -21.161   0.542  11.754  1.00 32.53     0.051 C 
HETATM    8  C3    D T 609     -17.954   1.455  12.240  1.00 33.38     0.781 C 
HETATM    9  N4    D T 609     -18.202   2.666  11.661  1.00 32.85     0.137 NA
HETATM   10  NH1   D T 609     -16.708   0.948  12.224  1.00 33.22     0.062 N 
HETATM   11  C5    D T 609     -19.394   3.317  11.820  1.00 34.53     0.785 C 
HETATM   12  NH2   D T 609     -19.565   4.479  11.234  1.00 32.63     0.063 N 
ENDBRANCH   2   3
ENDBRANCH   1   2
BRANCH   1  13
HETATM   13  C9    D T 609     -23.978   4.112  11.956  1.00 41.72     0.068 C 
BRANCH  13  14
HETATM   14  C10   D T 609     -24.319   4.826  10.559  1.00 44.58     0.151 C 
BRANCH  14  15
HETATM   15  O11   D T 609     -23.434   6.009  10.424  1.00 45.50    -0.334 OA
BRANCH  15  16
HETATM   16  C12   D T 609     -23.849   7.216  11.097  1.00 41.06     0.084 A 
HETATM   17  C13   D T 609     -23.041   7.684  12.222  1.00 38.83     0.059 A 
HETATM   18  C14   D T 609     -23.406   8.861  12.955  1.00 39.01     0.078 A 
HETATM   19 CL1    D T 609     -21.630   6.806  12.689  1.00 34.26    -0.085 Cl
HETATM   20  C15   D T 609     -24.596   9.611  12.600  1.00 39.27     0.048 A 
HETATM   21  C16   D T 609     -25.425   9.161  11.464  1.00 40.25     0.049 A 
HETATM   22 CL2    D T 609     -25.018  11.037  13.554  1.00 32.41    -0.086 Cl
HETATM   23  C17   D T 609     -25.040   7.967  10.715  1.00 40.73     0.090 A 
HETATM   24 CL3    D T 609     -26.897  10.043  10.986  1.00 40.57    -0.086 Cl
ENDBRANCH  15  16
ENDBRANCH  14  15
ENDBRANCH  13  14
ENDBRANCH   1  13
TORSDOF 6
ENDMDL
MODEL 9
REMARK VINA RESULT:    -6.665      2.905      4.759
REMARK INTER + INTRA:         -10.191
REMARK INTER:                  -9.582
REMARK INTRA:                  -0.609
REMARK UNBOUND:                -1.189
REMARK  6 active torsions:
REMARK  status: ('A' for Active; 'I' for Inactive)
REMARK    1  A    between atoms: N6_6  and  O7_7 
REMARK    2  A    between atoms: O7_7  and  C8_8 
REMARK    3  A    between atoms: C8_8  and  C9_9 
REMARK    4  A    between atoms: C9_9  and  C10_10 
REMARK    5  A    between atoms: C10_10  and  O11_11 
REMARK    6  A    between atoms: O11_11  and  C12_12 
ROOT
HETATM    1  C8    D T 609     -20.909   1.748  13.065  1.00 42.96     0.177 C 
ENDROOT
BRANCH   1   2
HETATM    2  O7    D T 609     -20.794   2.813  11.993  1.00 45.57    -0.242 OA
BRANCH   2   3
HETATM    3  N6    D T 609     -21.172   4.219  12.263  1.00 35.78    -0.046 N 
HETATM    4  C1    D T 609     -20.038   5.200  12.090  1.00 32.37     0.209 C 
HETATM    5  N2    D T 609     -20.437   6.581  12.487  1.00 31.22    -0.064 NA
HETATM    6  CM1   D T 609     -18.835   4.740  12.929  1.00 29.06     0.051 C 
HETATM    7  CM2   D T 609     -19.606   5.205  10.607  1.00 32.53     0.051 C 
HETATM    8  C3    D T 609     -21.725   6.935  12.576  1.00 33.38     0.781 C 
HETATM    9  N4    D T 609     -22.715   6.033  12.316  1.00 32.85     0.137 NA
HETATM   10  NH1   D T 609     -22.040   8.197  12.919  1.00 33.22     0.062 N 
HETATM   11  C5    D T 609     -22.462   4.699  12.161  1.00 34.53     0.785 C 
HETATM   12  NH2   D T 609     -23.462   3.887  11.912  1.00 32.63     0.063 N 
ENDBRANCH   2   3
ENDBRANCH   1   2
BRANCH   1  13
HETATM   13  C9    D T 609     -21.133   0.380  12.288  1.00 41.72     0.068 C 
BRANCH  13  14
HETATM   14  C10   D T 609     -22.409   0.563  11.330  1.00 44.58     0.151 C 
BRANCH  14  15
HETATM   15  O11   D T 609     -23.580  -0.041  12.010  1.00 45.50    -0.334 OA
BRANCH  15  16
HETATM   16  C12   D T 609     -23.764  -1.464  11.855  1.00 41.06     0.084 A 
HETATM   17  C13   D T 609     -23.524  -2.315  13.019  1.00 38.83     0.059 A 
HETATM   18  C14   D T 609     -23.661  -3.739  12.934  1.00 39.01     0.078 A 
HETATM   19 CL1    D T 609     -23.058  -1.603  14.521  1.00 34.26    -0.085 Cl
HETATM   20  C15   D T 609     -24.033  -4.371  11.682  1.00 39.27     0.048 A 
HETATM   21  C16   D T 609     -24.286  -3.532  10.494  1.00 40.25     0.049 A 
HETATM   22 CL2    D T 609     -24.160  -6.132  11.622  1.00 32.41    -0.086 Cl
HETATM   23  C17   D T 609     -24.155  -2.080  10.592  1.00 40.73     0.090 A 
HETATM   24 CL3    D T 609     -24.743  -4.254   8.932  1.00 40.57    -0.086 Cl
ENDBRANCH  15  16
ENDBRANCH  14  15
ENDBRANCH  13  14
ENDBRANCH   1  13
TORSDOF 6
ENDMDL
