MODEL 1
REMARK VINA RESULT:    -7.795      0.000      0.000
REMARK INTER + INTRA:         -11.137
REMARK INTER:                 -10.530
REMARK INTRA:                  -0.608
REMARK UNBOUND:                -0.608
REMARK  6 active torsions:
REMARK  status: ('A' for Active; 'I' for Inactive)
REMARK    1  A    between atoms: N6_6  and  O7_7 
REMARK    2  A    between atoms: O7_7  and  C8_8 
REMARK    3  A    between atoms: C8_8  and  C9_9 
REMARK    4  A    between atoms: C9_9  and  C10_10 
REMARK    5  A    between atoms: C10_10  and  O11_11 
REMARK    6  A    between atoms: O11_11  and  C12_12 
ROOT
HETATM    1  C8    D T 609     -21.480   4.722  11.809  1.00 42.96     0.177 C 
ENDROOT
BRANCH   1   2
HETATM    2  O7    D T 609     -22.746   5.271  12.433  1.00 45.57    -0.242 OA
BRANCH   2   3
HETATM    3  N6    D T 609     -23.577   6.277  11.730  1.00 35.78    -0.046 N 
HETATM    4  C1    D T 609     -24.927   5.759  11.296  1.00 32.37     0.209 C 
HETATM    5  N2    D T 609     -25.673   6.769  10.492  1.00 31.22    -0.064 NA
HETATM    6  CM1   D T 609     -24.737   4.472  10.476  1.00 29.06     0.051 C 
HETATM    7  CM2   D T 609     -25.751   5.403  12.552  1.00 32.53     0.051 C 
HETATM    8  C3    D T 609     -25.346   8.067  10.528  1.00 33.38     0.781 C 
HETATM    9  N4    D T 609     -24.305   8.502  11.298  1.00 32.85     0.137 NA
HETATM   10  NH1   D T 609     -26.057   8.947   9.802  1.00 33.22     0.062 N 
HETATM   11  C5    D T 609     -23.429   7.639  11.893  1.00 34.53     0.785 C 
HETATM   12  NH2   D T 609     -22.452   8.127  12.619  1.00 32.63     0.063 N 
ENDBRANCH   2   3
ENDBRANCH   1   2
BRANCH   1  13
HETATM   13  C9    D T 609     -20.327   4.996  12.869  1.00 41.72     0.068 C 
BRANCH  13  14
HETATM   14  C10   D T 609     -19.147   3.943  12.593  1.00 44.58     0.151 C 
BRANCH  14  15
HETATM   15  O11   D T 609     -19.123   2.980  13.720  1.00 45.50    -0.334 OA
BRANCH  15  16
HETATM   16  C12   D T 609     -19.825   1.734  13.531  1.00 41.06     0.087 A 
HETATM   17  C13   D T 609     -19.071   0.596  13.009  1.00 38.83     0.077 A 
HETATM   18  C14   D T 609     -19.707  -0.666  12.772  1.00 39.01     0.025 A 
HETATM   19 CL1    D T 609     -17.388   0.768  12.661  1.00 34.26    -0.081 Cl
HETATM   20  C15   D T 609     -21.123  -0.839  13.034  1.00 39.27     0.066 A 
HETATM   21  C16   D T 609     -21.906   0.294  13.567  1.00 40.25     0.052 A 
HETATM   22 CL2    D T 609     -21.867  -2.406  12.696  1.00 32.41    -0.082 Cl
HETATM   23  C17   D T 609     -21.247   1.574  13.817  1.00 40.73     0.091 A 
HETATM   24 CL3    D T 609     -23.647   0.138  13.907  1.00 40.57    -0.086 Cl
ENDBRANCH  15  16
ENDBRANCH  14  15
ENDBRANCH  13  14
ENDBRANCH   1  13
TORSDOF 6
ENDMDL
MODEL 2
REMARK VINA RESULT:    -7.775      1.675      2.041
REMARK INTER + INTRA:         -11.110
REMARK INTER:                  -9.996
REMARK INTRA:                  -1.114
REMARK UNBOUND:                -0.608
REMARK  6 active torsions:
REMARK  status: ('A' for Active; 'I' for Inactive)
REMARK    1  A    between atoms: N6_6  and  O7_7 
REMARK    2  A    between atoms: O7_7  and  C8_8 
REMARK    3  A    between atoms: C8_8  and  C9_9 
REMARK    4  A    between atoms: C9_9  and  C10_10 
REMARK    5  A    between atoms: C10_10  and  O11_11 
REMARK    6  A    between atoms: O11_11  and  C12_12 
ROOT
HETATM    1  C8    D T 609     -20.172   4.204  11.513  1.00 42.96     0.177 C 
ENDROOT
BRANCH   1   2
HETATM    2  O7    D T 609     -21.174   4.060  12.639  1.00 45.57    -0.242 OA
BRANCH   2   3
HETATM    3  N6    D T 609     -22.523   4.666  12.550  1.00 35.78    -0.046 N 
HETATM    4  C1    D T 609     -23.648   3.696  12.822  1.00 32.37     0.209 C 
HETATM    5  N2    D T 609     -24.983   4.323  12.603  1.00 31.22    -0.064 NA
HETATM    6  CM1   D T 609     -23.490   2.468  11.910  1.00 29.06     0.051 C 
HETATM    7  CM2   D T 609     -23.548   3.215  14.285  1.00 32.53     0.051 C 
HETATM    8  C3    D T 609     -25.131   5.654  12.582  1.00 33.38     0.781 C 
HETATM    9  N4    D T 609     -24.055   6.478  12.748  1.00 32.85     0.137 NA
HETATM   10  NH1   D T 609     -26.356   6.178  12.402  1.00 33.22     0.062 N 
HETATM   11  C5    D T 609     -22.771   6.011  12.734  1.00 34.53     0.785 C 
HETATM   12  NH2   D T 609     -21.785   6.859  12.900  1.00 32.63     0.063 N 
ENDBRANCH   2   3
ENDBRANCH   1   2
BRANCH   1  13
HETATM   13  C9    D T 609     -18.747   3.959  12.174  1.00 41.72     0.068 C 
BRANCH  13  14
HETATM   14  C10   D T 609     -18.985   3.432  13.672  1.00 44.58     0.151 C 
BRANCH  14  15
HETATM   15  O11   D T 609     -18.429   2.062  13.767  1.00 45.50    -0.334 OA
BRANCH  15  16
HETATM   16  C12   D T 609     -19.354   0.967  13.596  1.00 41.06     0.087 A 
HETATM   17  C13   D T 609     -18.978  -0.109  12.681  1.00 38.83     0.077 A 
HETATM   18  C14   D T 609     -19.858  -1.216  12.442  1.00 39.01     0.025 A 
HETATM   19 CL1    D T 609     -17.459  -0.050  11.864  1.00 34.26    -0.081 Cl
HETATM   20  C15   D T 609     -21.150  -1.286  13.096  1.00 39.27     0.066 A 
HETATM   21  C16   D T 609     -21.550  -0.213  14.030  1.00 40.25     0.052 A 
HETATM   22 CL2    D T 609     -22.209  -2.655  12.745  1.00 32.41    -0.082 Cl
HETATM   23  C17   D T 609     -20.643   0.905  14.277  1.00 40.73     0.091 A 
HETATM   24 CL3    D T 609     -23.124  -0.248  14.861  1.00 40.57    -0.086 Cl
ENDBRANCH  15  16
ENDBRANCH  14  15
ENDBRANCH  13  14
ENDBRANCH   1  13
TORSDOF 6
ENDMDL
MODEL 3
REMARK VINA RESULT:    -7.337      1.989      2.403
REMARK INTER + INTRA:         -10.518
REMARK INTER:                  -9.851
REMARK INTRA:                  -0.667
REMARK UNBOUND:                -0.608
REMARK  6 active torsions:
REMARK  status: ('A' for Active; 'I' for Inactive)
REMARK    1  A    between atoms: N6_6  and  O7_7 
REMARK    2  A    between atoms: O7_7  and  C8_8 
REMARK    3  A    between atoms: C8_8  and  C9_9 
REMARK    4  A    between atoms: C9_9  and  C10_10 
REMARK    5  A    between atoms: C10_10  and  O11_11 
REMARK    6  A    between atoms: O11_11  and  C12_12 
ROOT
HETATM    1  C8    D T 609     -20.976   5.429  12.172  1.00 42.96     0.177 C 
ENDROOT
BRANCH   1   2
HETATM    2  O7    D T 609     -22.465   5.413  12.445  1.00 45.57    -0.242 OA
BRANCH   2   3
HETATM    3  N6    D T 609     -23.382   6.360  11.769  1.00 35.78    -0.046 N 
HETATM    4  C1    D T 609     -24.653   5.723  11.262  1.00 32.37     0.209 C 
HETATM    5  N2    D T 609     -25.484   6.689  10.487  1.00 31.22    -0.064 NA
HETATM    6  CM1   D T 609     -24.299   4.513  10.382  1.00 29.06     0.051 C 
HETATM    7  CM2   D T 609     -25.468   5.209  12.469  1.00 32.53     0.051 C 
HETATM    8  C3    D T 609     -25.304   8.010  10.603  1.00 33.38     0.781 C 
HETATM    9  N4    D T 609     -24.340   8.513  11.430  1.00 32.85     0.137 NA
HETATM   10  NH1   D T 609     -26.088   8.847   9.901  1.00 33.22     0.062 N 
HETATM   11  C5    D T 609     -23.391   7.719  12.008  1.00 34.53     0.785 C 
HETATM   12  NH2   D T 609     -22.495   8.268  12.792  1.00 32.63     0.063 N 
ENDBRANCH   2   3
ENDBRANCH   1   2
BRANCH   1  13
HETATM   13  C9    D T 609     -20.578   3.918  11.877  1.00 41.72     0.068 C 
BRANCH  13  14
HETATM   14  C10   D T 609     -21.662   2.977  12.595  1.00 44.58     0.151 C 
BRANCH  14  15
HETATM   15  O11   D T 609     -21.270   1.567  12.359  1.00 45.50    -0.334 OA
BRANCH  15  16
HETATM   16  C12   D T 609     -22.332   0.629  12.086  1.00 41.06     0.087 A 
HETATM   17  C13   D T 609     -22.075  -0.787  12.341  1.00 38.83     0.077 A 
HETATM   18  C14   D T 609     -23.074  -1.779  12.070  1.00 39.01     0.025 A 
HETATM   19 CL1    D T 609     -20.546  -1.284  12.970  1.00 34.26    -0.081 Cl
HETATM   20  C15   D T 609     -24.362  -1.399  11.523  1.00 39.27     0.066 A 
HETATM   21  C16   D T 609     -24.647   0.027  11.261  1.00 40.25     0.052 A 
HETATM   22 CL2    D T 609     -25.548  -2.662  11.177  1.00 32.41    -0.082 Cl
HETATM   23  C17   D T 609     -23.628   1.032  11.552  1.00 40.73     0.091 A 
HETATM   24 CL3    D T 609     -26.211   0.550  10.591  1.00 40.57    -0.086 Cl
ENDBRANCH  15  16
ENDBRANCH  14  15
ENDBRANCH  13  14
ENDBRANCH   1  13
TORSDOF 6
ENDMDL
MODEL 4
REMARK VINA RESULT:    -7.253      2.096      3.938
REMARK INTER + INTRA:         -10.404
REMARK INTER:                  -9.532
REMARK INTRA:                  -0.872
REMARK UNBOUND:                -0.608
REMARK  6 active torsions:
REMARK  status: ('A' for Active; 'I' for Inactive)
REMARK    1  A    between atoms: N6_6  and  O7_7 
REMARK    2  A    between atoms: O7_7  and  C8_8 
REMARK    3  A    between atoms: C8_8  and  C9_9 
REMARK    4  A    between atoms: C9_9  and  C10_10 
REMARK    5  A    between atoms: C10_10  and  O11_11 
REMARK    6  A    between atoms: O11_11  and  C12_12 
ROOT
HETATM    1  C8    D T 609     -24.248   2.499  13.642  1.00 42.96     0.177 C 
ENDROOT
BRANCH   1   2
HETATM    2  O7    D T 609     -23.386   3.177  12.598  1.00 45.57    -0.242 OA
BRANCH   2   3
HETATM    3  N6    D T 609     -23.615   4.589  12.210  1.00 35.78    -0.046 N 
HETATM    4  C1    D T 609     -22.492   5.520  12.600  1.00 32.37     0.209 C 
HETATM    5  N2    D T 609     -22.823   6.941  12.295  1.00 31.22    -0.064 NA
HETATM    6  CM1   D T 609     -22.199   5.360  14.101  1.00 29.06     0.051 C 
HETATM    7  CM2   D T 609     -21.220   5.118  11.823  1.00 32.53     0.051 C 
HETATM    8  C3    D T 609     -23.792   7.259  11.427  1.00 33.38     0.781 C 
HETATM    9  N4    D T 609     -24.516   6.285  10.803  1.00 32.85     0.137 NA
HETATM   10  NH1   D T 609     -24.045   8.554  11.167  1.00 33.22     0.062 N 
HETATM   11  C5    D T 609     -24.442   4.972  11.174  1.00 34.53     0.785 C 
HETATM   12  NH2   D T 609     -25.166   4.088  10.531  1.00 32.63     0.063 N 
ENDBRANCH   2   3
ENDBRANCH   1   2
BRANCH   1  13
HETATM   13  C9    D T 609     -24.579   1.060  13.054  1.00 41.72     0.068 C 
BRANCH  13  14
HETATM   14  C10   D T 609     -23.945   0.973  11.582  1.00 44.58     0.151 C 
BRANCH  14  15
HETATM   15  O11   D T 609     -23.086  -0.234  11.527  1.00 45.50    -0.334 OA
BRANCH  15  16
HETATM   16  C12   D T 609     -21.674  -0.044  11.757  1.00 41.06     0.087 A 
HETATM   17  C13   D T 609     -20.931  -1.133  12.387  1.00 38.83     0.077 A 
HETATM   18  C14   D T 609     -19.531  -1.005  12.671  1.00 39.01     0.025 A 
HETATM   19 CL1    D T 609     -21.744  -2.596  12.809  1.00 34.26    -0.081 Cl
HETATM   20  C15   D T 609     -18.822   0.217  12.348  1.00 39.27     0.066 A 
HETATM   21  C16   D T 609     -19.550   1.331  11.705  1.00 40.25     0.052 A 
HETATM   22 CL2    D T 609     -17.104   0.336  12.745  1.00 32.41    -0.082 Cl
HETATM   23  C17   D T 609     -20.973   1.188  11.409  1.00 40.73     0.091 A 
HETATM   24 CL3    D T 609     -18.729   2.854  11.287  1.00 40.57    -0.086 Cl
ENDBRANCH  15  16
ENDBRANCH  14  15
ENDBRANCH  13  14
ENDBRANCH   1  13
TORSDOF 6
ENDMDL
MODEL 5
REMARK VINA RESULT:    -7.248      1.994      3.474
REMARK INTER + INTRA:         -10.398
REMARK INTER:                  -9.705
REMARK INTRA:                  -0.693
REMARK UNBOUND:                -0.608
REMARK  6 active torsions:
REMARK  status: ('A' for Active; 'I' for Inactive)
REMARK    1  A    between atoms: N6_6  and  O7_7 
REMARK    2  A    between atoms: O7_7  and  C8_8 
REMARK    3  A    between atoms: C8_8  and  C9_9 
REMARK    4  A    between atoms: C9_9  and  C10_10 
REMARK    5  A    between atoms: C10_10  and  O11_11 
REMARK    6  A    between atoms: O11_11  and  C12_12 
ROOT
HETATM    1  C8    D T 609     -23.990   2.187  12.069  1.00 42.96     0.177 C 
ENDROOT
BRANCH   1   2
HETATM    2  O7    D T 609     -24.528   3.402  12.796  1.00 45.57    -0.242 OA
BRANCH   2   3
HETATM    3  N6    D T 609     -24.041   4.765  12.481  1.00 35.78    -0.046 N 
HETATM    4  C1    D T 609     -25.047   5.620  11.749  1.00 32.37     0.209 C 
HETATM    5  N2    D T 609     -24.469   6.935  11.351  1.00 31.22    -0.064 NA
HETATM    6  CM1   D T 609     -25.543   4.867  10.504  1.00 29.06     0.051 C 
HETATM    7  CM2   D T 609     -26.262   5.859  12.672  1.00 32.53     0.051 C 
HETATM    8  C3    D T 609     -23.365   7.415  11.937  1.00 33.38     0.781 C 
HETATM    9  N4    D T 609     -22.726   6.703  12.911  1.00 32.85     0.137 NA
HETATM   10  NH1   D T 609     -22.887   8.615  11.561  1.00 33.22     0.062 N 
HETATM   11  C5    D T 609     -23.044   5.404  13.190  1.00 34.53     0.785 C 
HETATM   12  NH2   D T 609     -22.390   4.780  14.140  1.00 32.63     0.063 N 
ENDBRANCH   2   3
ENDBRANCH   1   2
BRANCH   1  13
HETATM   13  C9    D T 609     -24.452   0.933  12.931  1.00 41.72     0.068 C 
BRANCH  13  14
HETATM   14  C10   D T 609     -24.124   1.249  14.471  1.00 44.58     0.151 C 
BRANCH  14  15
HETATM   15  O11   D T 609     -23.178   0.216  14.957  1.00 45.50    -0.334 OA
BRANCH  15  16
HETATM   16  C12   D T 609     -21.954   0.047  14.212  1.00 41.06     0.087 A 
HETATM   17  C13   D T 609     -21.763  -1.206  13.485  1.00 38.83     0.077 A 
HETATM   18  C14   D T 609     -20.560  -1.454  12.745  1.00 39.01     0.025 A 
HETATM   19 CL1    D T 609     -22.994  -2.416  13.519  1.00 34.26    -0.081 Cl
HETATM   20  C15   D T 609     -19.497  -0.468  12.711  1.00 39.27     0.066 A 
HETATM   21  C16   D T 609     -19.669   0.809  13.434  1.00 40.25     0.052 A 
HETATM   22 CL2    D T 609     -18.023  -0.834  11.810  1.00 32.41    -0.082 Cl
HETATM   23  C17   D T 609     -20.903   1.058  14.176  1.00 40.73     0.091 A 
HETATM   24 CL3    D T 609     -18.398   2.055  13.427  1.00 40.57    -0.086 Cl
ENDBRANCH  15  16
ENDBRANCH  14  15
ENDBRANCH  13  14
ENDBRANCH   1  13
TORSDOF 6
ENDMDL
MODEL 6
REMARK VINA RESULT:    -7.238      2.124      3.707
REMARK INTER + INTRA:         -10.385
REMARK INTER:                 -10.009
REMARK INTRA:                  -0.376
REMARK UNBOUND:                -0.608
REMARK  6 active torsions:
REMARK  status: ('A' for Active; 'I' for Inactive)
REMARK    1  A    between atoms: N6_6  and  O7_7 
REMARK    2  A    between atoms: O7_7  and  C8_8 
REMARK    3  A    between atoms: C8_8  and  C9_9 
REMARK    4  A    between atoms: C9_9  and  C10_10 
REMARK    5  A    between atoms: C10_10  and  O11_11 
REMARK    6  A    between atoms: O11_11  and  C12_12 
ROOT
HETATM    1  C8    D T 609     -23.863   4.293  11.677  1.00 42.96     0.177 C 
ENDROOT
BRANCH   1   2
HETATM    2  O7    D T 609     -24.642   5.523  11.261  1.00 45.57    -0.242 OA
BRANCH   2   3
HETATM    3  N6    D T 609     -24.970   6.592  12.233  1.00 35.78    -0.046 N 
HETATM    4  C1    D T 609     -23.981   7.732  12.245  1.00 32.37     0.209 C 
HETATM    5  N2    D T 609     -24.290   8.719  13.320  1.00 31.22    -0.064 NA
HETATM    6  CM1   D T 609     -22.563   7.171  12.441  1.00 29.06     0.051 C 
HETATM    7  CM2   D T 609     -24.025   8.444  10.876  1.00 32.53     0.051 C 
HETATM    8  C3    D T 609     -25.501   8.773  13.887  1.00 33.38     0.781 C 
HETATM    9  N4    D T 609     -26.489   7.913  13.505  1.00 32.85     0.137 NA
HETATM   10  NH1   D T 609     -25.743   9.692  14.839  1.00 33.22     0.062 N 
HETATM   11  C5    D T 609     -26.247   6.839  12.696  1.00 34.53     0.785 C 
HETATM   12  NH2   D T 609     -27.244   6.053  12.368  1.00 32.63     0.063 N 
ENDBRANCH   2   3
ENDBRANCH   1   2
BRANCH   1  13
HETATM   13  C9    D T 609     -24.336   3.968  13.160  1.00 41.72     0.068 C 
BRANCH  13  14
HETATM   14  C10   D T 609     -24.333   2.373  13.337  1.00 44.58     0.151 C 
BRANCH  14  15
HETATM   15  O11   D T 609     -23.221   2.018  14.251  1.00 45.50    -0.334 OA
BRANCH  15  16
HETATM   16  C12   D T 609     -22.048   1.425  13.654  1.00 41.06     0.087 A 
HETATM   17  C13   D T 609     -21.795   0.008  13.906  1.00 38.83     0.077 A 
HETATM   18  C14   D T 609     -20.636  -0.643  13.368  1.00 39.01     0.025 A 
HETATM   19 CL1    D T 609     -22.897  -0.902  14.874  1.00 34.26    -0.081 Cl
HETATM   20  C15   D T 609     -19.680   0.097  12.568  1.00 39.27     0.066 A 
HETATM   21  C16   D T 609     -19.916   1.529  12.294  1.00 40.25     0.052 A 
HETATM   22 CL2    D T 609     -18.253  -0.743  11.953  1.00 32.41    -0.082 Cl
HETATM   23  C17   D T 609     -21.106   2.182  12.837  1.00 40.73     0.091 A 
HETATM   24 CL3    D T 609     -18.776   2.486  11.318  1.00 40.57    -0.086 Cl
ENDBRANCH  15  16
ENDBRANCH  14  15
ENDBRANCH  13  14
ENDBRANCH   1  13
TORSDOF 6
ENDMDL
MODEL 7
REMARK VINA RESULT:    -7.172      4.382      7.569
REMARK INTER + INTRA:         -10.295
REMARK INTER:                  -9.637
REMARK INTRA:                  -0.658
REMARK UNBOUND:                -0.608
REMARK  6 active torsions:
REMARK  status: ('A' for Active; 'I' for Inactive)
REMARK    1  A    between atoms: N6_6  and  O7_7 
REMARK    2  A    between atoms: O7_7  and  C8_8 
REMARK    3  A    between atoms: C8_8  and  C9_9 
REMARK    4  A    between atoms: C9_9  and  C10_10 
REMARK    5  A    between atoms: C10_10  and  O11_11 
REMARK    6  A    between atoms: O11_11  and  C12_12 
ROOT
HETATM    1  C8    D T 609     -20.757   4.112  12.398  1.00 42.96     0.177 C 
ENDROOT
BRANCH   1   2
HETATM    2  O7    D T 609     -21.265   3.013  13.307  1.00 45.57    -0.242 OA
BRANCH   2   3
HETATM    3  N6    D T 609     -22.212   1.985  12.815  1.00 35.78    -0.046 N 
HETATM    4  C1    D T 609     -21.615   0.602  12.714  1.00 32.37     0.209 C 
HETATM    5  N2    D T 609     -22.568  -0.368  12.104  1.00 31.22    -0.064 NA
HETATM    6  CM1   D T 609     -20.326   0.666  11.878  1.00 29.06     0.051 C 
HETATM    7  CM2   D T 609     -21.236   0.118  14.131  1.00 32.53     0.051 C 
HETATM    8  C3    D T 609     -23.882  -0.116  12.057  1.00 33.38     0.781 C 
HETATM    9  N4    D T 609     -24.387   1.050  12.558  1.00 32.85     0.137 NA
HETATM   10  NH1   D T 609     -24.710  -1.027  11.516  1.00 33.22     0.062 N 
HETATM   11  C5    D T 609     -23.583   2.089  12.933  1.00 34.53     0.785 C 
HETATM   12  NH2   D T 609     -24.135   3.180  13.406  1.00 32.63     0.063 N 
ENDBRANCH   2   3
ENDBRANCH   1   2
BRANCH   1  13
HETATM   13  C9    D T 609     -20.372   5.319  13.359  1.00 41.72     0.068 C 
BRANCH  13  14
HETATM   14  C10   D T 609     -21.388   6.525  13.061  1.00 44.58     0.151 C 
BRANCH  14  15
HETATM   15  O11   D T 609     -22.621   5.949  12.473  1.00 45.50    -0.334 OA
BRANCH  15  16
HETATM   16  C12   D T 609     -23.728   6.850  12.263  1.00 41.06     0.087 A 
HETATM   17  C13   D T 609     -24.613   6.592  11.129  1.00 38.83     0.077 A 
HETATM   18  C14   D T 609     -25.719   7.459  10.842  1.00 39.01     0.025 A 
HETATM   19 CL1    D T 609     -24.326   5.230  10.108  1.00 34.26    -0.081 Cl
HETATM   20  C15   D T 609     -25.977   8.623  11.668  1.00 39.27     0.066 A 
HETATM   21  C16   D T 609     -25.099   8.902  12.823  1.00 40.25     0.052 A 
HETATM   22 CL2    D T 609     -27.333   9.677  11.255  1.00 32.41    -0.082 Cl
HETATM   23  C17   D T 609     -23.982   8.007  13.115  1.00 40.73     0.091 A 
HETATM   24 CL3    D T 609     -25.369  10.317  13.870  1.00 40.57    -0.086 Cl
ENDBRANCH  15  16
ENDBRANCH  14  15
ENDBRANCH  13  14
ENDBRANCH   1  13
TORSDOF 6
ENDMDL
MODEL 8
REMARK VINA RESULT:    -7.156      4.753      8.158
REMARK INTER + INTRA:         -10.273
REMARK INTER:                  -9.776
REMARK INTRA:                  -0.497
REMARK UNBOUND:                -0.608
REMARK  6 active torsions:
REMARK  status: ('A' for Active; 'I' for Inactive)
REMARK    1  A    between atoms: N6_6  and  O7_7 
REMARK    2  A    between atoms: O7_7  and  C8_8 
REMARK    3  A    between atoms: C8_8  and  C9_9 
REMARK    4  A    between atoms: C9_9  and  C10_10 
REMARK    5  A    between atoms: C10_10  and  O11_11 
REMARK    6  A    between atoms: O11_11  and  C12_12 
ROOT
HETATM    1  C8    D T 609     -22.710   3.276  14.024  1.00 42.96     0.177 C 
ENDROOT
BRANCH   1   2
HETATM    2  O7    D T 609     -22.085   2.530  12.864  1.00 45.57    -0.242 OA
BRANCH   2   3
HETATM    3  N6    D T 609     -20.675   2.077  12.910  1.00 35.78    -0.046 N 
HETATM    4  C1    D T 609     -20.516   0.600  13.176  1.00 32.37     0.209 C 
HETATM    5  N2    D T 609     -19.083   0.218  13.331  1.00 31.22    -0.064 NA
HETATM    6  CM1   D T 609     -21.298   0.226  14.446  1.00 29.06     0.051 C 
HETATM    7  CM2   D T 609     -21.125  -0.187  11.995  1.00 32.53     0.051 C 
HETATM    8  C3    D T 609     -18.100   1.007  12.879  1.00 33.38     0.781 C 
HETATM    9  N4    D T 609     -18.385   2.196  12.271  1.00 32.85     0.137 NA
HETATM   10  NH1   D T 609     -16.822   0.616  13.021  1.00 33.22     0.062 N 
HETATM   11  C5    D T 609     -19.640   2.735  12.277  1.00 34.53     0.785 C 
HETATM   12  NH2   D T 609     -19.842   3.882  11.674  1.00 32.63     0.063 N 
ENDBRANCH   2   3
ENDBRANCH   1   2
BRANCH   1  13
HETATM   13  C9    D T 609     -23.293   4.620  13.404  1.00 41.72     0.068 C 
BRANCH  13  14
HETATM   14  C10   D T 609     -22.144   5.738  13.489  1.00 44.58     0.151 C 
BRANCH  14  15
HETATM   15  O11   D T 609     -22.275   6.616  12.301  1.00 45.50    -0.334 OA
BRANCH  15  16
HETATM   16  C12   D T 609     -23.521   7.327  12.148  1.00 41.06     0.087 A 
HETATM   17  C13   D T 609     -24.411   6.920  11.063  1.00 38.83     0.077 A 
HETATM   18  C14   D T 609     -25.654   7.598  10.833  1.00 39.01     0.025 A 
HETATM   19 CL1    D T 609     -23.964   5.611  10.030  1.00 34.26    -0.081 Cl
HETATM   20  C15   D T 609     -26.050   8.714  11.668  1.00 39.27     0.066 A 
HETATM   21  C16   D T 609     -25.170   9.141  12.775  1.00 40.25     0.052 A 
HETATM   22 CL2    D T 609     -27.577   9.535  11.326  1.00 32.41    -0.082 Cl
HETATM   23  C17   D T 609     -23.911   8.438  13.009  1.00 40.73     0.091 A 
HETATM   24 CL3    D T 609     -25.606  10.506  13.832  1.00 40.57    -0.086 Cl
ENDBRANCH  15  16
ENDBRANCH  14  15
ENDBRANCH  13  14
ENDBRANCH   1  13
TORSDOF 6
ENDMDL
MODEL 9
REMARK VINA RESULT:    -7.067      4.791      7.966
REMARK INTER + INTRA:         -10.153
REMARK INTER:                  -9.810
REMARK INTRA:                  -0.343
REMARK UNBOUND:                -0.608
REMARK  6 active torsions:
REMARK  status: ('A' for Active; 'I' for Inactive)
REMARK    1  A    between atoms: N6_6  and  O7_7 
REMARK    2  A    between atoms: O7_7  and  C8_8 
REMARK    3  A    between atoms: C8_8  and  C9_9 
REMARK    4  A    between atoms: C9_9  and  C10_10 
REMARK    5  A    between atoms: C10_10  and  O11_11 
REMARK    6  A    between atoms: O11_11  and  C12_12 
ROOT
HETATM    1  C8    D T 609     -22.162   1.129  14.338  1.00 42.96     0.177 C 
ENDROOT
BRANCH   1   2
HETATM    2  O7    D T 609     -21.310   1.426  13.122  1.00 45.57    -0.242 OA
BRANCH   2   3
HETATM    3  N6    D T 609     -19.877   1.053  13.076  1.00 35.78    -0.046 N 
HETATM    4  C1    D T 609     -19.577  -0.112  12.164  1.00 32.37     0.209 C 
HETATM    5  N2    D T 609     -18.146  -0.523  12.245  1.00 31.22    -0.064 NA
HETATM    6  CM1   D T 609     -20.484  -1.296  12.538  1.00 29.06     0.051 C 
HETATM    7  CM2   D T 609     -19.906   0.296  10.711  1.00 32.53     0.051 C 
HETATM    8  C3    D T 609     -17.213   0.301  12.737  1.00 33.38     0.781 C 
HETATM    9  N4    D T 609     -17.550   1.543  13.194  1.00 32.85     0.137 NA
HETATM   10  NH1   D T 609     -15.931  -0.102  12.774  1.00 33.22     0.062 N 
HETATM   11  C5    D T 609     -18.849   1.927  13.366  1.00 34.53     0.785 C 
HETATM   12  NH2   D T 609     -19.101   3.136  13.809  1.00 32.63     0.063 N 
ENDBRANCH   2   3
ENDBRANCH   1   2
BRANCH   1  13
HETATM   13  C9    D T 609     -23.332   2.205  14.315  1.00 41.72     0.068 C 
BRANCH  13  14
HETATM   14  C10   D T 609     -23.601   2.604  12.783  1.00 44.58     0.151 C 
BRANCH  14  15
HETATM   15  O11   D T 609     -22.818   3.826  12.486  1.00 45.50    -0.334 OA
BRANCH  15  16
HETATM   16  C12   D T 609     -23.535   5.079  12.489  1.00 41.06     0.087 A 
HETATM   17  C13   D T 609     -22.762   6.308  12.653  1.00 38.83     0.077 A 
HETATM   18  C14   D T 609     -23.408   7.588  12.691  1.00 39.01     0.025 A 
HETATM   19 CL1    D T 609     -21.044   6.229  12.812  1.00 34.26    -0.081 Cl
HETATM   20  C15   D T 609     -24.850   7.690  12.580  1.00 39.27     0.066 A 
HETATM   21  C16   D T 609     -25.653   6.461  12.409  1.00 40.25     0.052 A 
HETATM   22 CL2    D T 609     -25.601   9.286  12.664  1.00 32.41    -0.082 Cl
HETATM   23  C17   D T 609     -24.985   5.163  12.359  1.00 40.73     0.091 A 
HETATM   24 CL3    D T 609     -27.426   6.527  12.267  1.00 40.57    -0.086 Cl
ENDBRANCH  15  16
ENDBRANCH  14  15
ENDBRANCH  13  14
ENDBRANCH   1  13
TORSDOF 6
ENDMDL
