MODEL 1
REMARK VINA RESULT:    -8.186      0.000      0.000
REMARK INTER + INTRA:         -11.318
REMARK INTER:                 -10.578
REMARK INTRA:                  -0.739
REMARK UNBOUND:                -0.739
REMARK  20 active torsions:
REMARK  status: ('A' for Active; 'I' for Inactive)
REMARK    1  A    between atoms: C1_1  and  C21_25 
REMARK    2  A    between atoms: N1_14  and  C13_15 
REMARK    3  A    between atoms: C13_15  and  C14_16 
REMARK    4  A    between atoms: C14_16  and  C15_17 
REMARK    5  A    between atoms: C15_17  and  N2_18 
REMARK    6  A    between atoms: C1_29  and  C21_53 
REMARK    7  A    between atoms: N1_42  and  C13_43 
REMARK    8  A    between atoms: C13_43  and  C14_44 
REMARK    9  A    between atoms: C14_44  and  C15_45 
REMARK   10  A    between atoms: C15_45  and  N2_46 
REMARK   11  A    between atoms: C1_57  and  C21_81 
REMARK   12  A    between atoms: N1_70  and  C13_71 
REMARK   13  A    between atoms: C13_71  and  C14_72 
REMARK   14  A    between atoms: C14_72  and  C15_73 
REMARK   15  A    between atoms: C15_73  and  N2_74 
REMARK   16  A    between atoms: C1_85  and  C21_109 
REMARK   17  A    between atoms: N1_98  and  C13_99 
REMARK   18  A    between atoms: C13_99  and  C14_100 
REMARK   19  A    between atoms: C14_100  and  C15_101 
REMARK   20  A    between atoms: C15_101  and  N2_102 
ROOT
HETATM    1  C1    D T 153     -10.787   9.065  12.847  0.88 20.05     0.073 A 
HETATM    2  C2    D T 153     -12.055   9.409  13.212  0.88 17.33     0.004 A 
HETATM    3  C3    D T 153     -12.323   9.807  14.485  0.88 18.19     0.008 A 
HETATM    4  C4    D T 153     -11.286   9.855  15.419  0.88 17.49     0.045 A 
HETATM    5  C5    D T 153      -9.987   9.499  15.036  0.88 18.05     0.066 A 
HETATM    6  C6    D T 153      -9.753   9.101  13.726  0.88 18.08     0.022 A 
HETATM    7  S     D T 153     -11.626  10.327  16.996  0.88 21.23    -0.084 SA
HETATM    8  C7    D T 153     -10.096  10.953  17.529  0.88 18.98     0.045 A 
HETATM    9  C8    D T 153     -10.073  11.912  18.547  0.88 19.75     0.008 A 
HETATM   10  C9    D T 153      -8.865  12.381  19.002  0.88 16.42     0.001 A 
HETATM   11  C10   D T 153      -7.677  11.925  18.475  0.88 17.64     0.002 A 
HETATM   12  C11   D T 153      -7.663  10.987  17.475  0.88 19.01     0.018 A 
HETATM   13  C12   D T 153      -8.879  10.487  16.984  0.88 20.56     0.066 A 
HETATM   14  N1    D T 153      -8.933   9.532  15.957  0.88 21.31    -0.327 N 
ENDROOT
BRANCH  14  15
HETATM   15  C13   D T 153      -7.712   8.820  15.673  0.88 23.28     0.108 C 
BRANCH  15  16
HETATM   16  C14   D T 153      -7.906   7.545  16.439  0.88 26.42     0.060 C 
BRANCH  16  17
HETATM   17  C15   D T 153      -6.631   7.087  17.081  0.88 32.52     0.252 C 
BRANCH  17  18
HETATM   18  N2    D T 153      -6.327   5.713  16.701  0.88 36.85     0.141 N 
HETATM   19  C16   D T 153      -5.930   5.773  15.298  0.88 39.93     0.285 C 
HETATM   20  C17   D T 153      -5.113   4.563  14.884  0.88 43.77     0.285 C 
HETATM   21  N3    D T 153      -3.867   4.453  15.643  0.88 47.03     0.143 N 
HETATM   22  C18   D T 153      -3.882   5.341  16.806  0.88 45.21     0.285 C 
HETATM   23  C20   D T 153      -3.806   3.085  16.161  0.88 50.19     0.285 C 
HETATM   24  C19   D T 153      -5.209   5.290  17.543  0.88 40.84     0.285 C 
ENDBRANCH  17  18
ENDBRANCH  16  17
ENDBRANCH  15  16
ENDBRANCH  14  15
BRANCH   1  25
HETATM   25  C21   D T 153     -10.469   8.627  11.428  0.88 23.84     0.419 C 
HETATM   26  F1    D T 153      -9.710   7.624  11.359  0.88 26.52    -0.166 F 
HETATM   27  F2    D T 153      -9.931   9.453  10.634  0.88 25.60    -0.166 F 
HETATM   28  F3    D T 153     -11.442   8.270  10.698  0.88 23.07    -0.166 F 
ENDBRANCH   1  25
TORSDOF 20
ENDMDL
MODEL 2
REMARK VINA RESULT:    -8.081      2.704      6.663
REMARK INTER + INTRA:         -11.182
REMARK INTER:                 -10.123
REMARK INTRA:                  -1.060
REMARK UNBOUND:                -0.739
REMARK  20 active torsions:
REMARK  status: ('A' for Active; 'I' for Inactive)
REMARK    1  A    between atoms: C1_1  and  C21_25 
REMARK    2  A    between atoms: N1_14  and  C13_15 
REMARK    3  A    between atoms: C13_15  and  C14_16 
REMARK    4  A    between atoms: C14_16  and  C15_17 
REMARK    5  A    between atoms: C15_17  and  N2_18 
REMARK    6  A    between atoms: C1_29  and  C21_53 
REMARK    7  A    between atoms: N1_42  and  C13_43 
REMARK    8  A    between atoms: C13_43  and  C14_44 
REMARK    9  A    between atoms: C14_44  and  C15_45 
REMARK   10  A    between atoms: C15_45  and  N2_46 
REMARK   11  A    between atoms: C1_57  and  C21_81 
REMARK   12  A    between atoms: N1_70  and  C13_71 
REMARK   13  A    between atoms: C13_71  and  C14_72 
REMARK   14  A    between atoms: C14_72  and  C15_73 
REMARK   15  A    between atoms: C15_73  and  N2_74 
REMARK   16  A    between atoms: C1_85  and  C21_109 
REMARK   17  A    between atoms: N1_98  and  C13_99 
REMARK   18  A    between atoms: C13_99  and  C14_100 
REMARK   19  A    between atoms: C14_100  and  C15_101 
REMARK   20  A    between atoms: C15_101  and  N2_102 
ROOT
HETATM    1  C1    D T 153     -11.240   9.233  14.580  0.88 20.05     0.073 A 
HETATM    2  C2    D T 153     -11.060   9.027  13.243  0.88 17.33     0.004 A 
HETATM    3  C3    D T 153      -9.879   8.545  12.772  0.88 18.19     0.008 A 
HETATM    4  C4    D T 153      -8.846   8.268  13.669  0.88 17.49     0.045 A 
HETATM    5  C5    D T 153      -9.038   8.483  15.040  0.88 18.05     0.066 A 
HETATM    6  C6    D T 153     -10.260   8.973  15.483  0.88 18.08     0.022 A 
HETATM    7  S     D T 153      -7.382   7.692  13.079  0.88 21.23    -0.084 SA
HETATM    8  C7    D T 153      -6.755   6.818  14.443  0.88 18.98     0.045 A 
HETATM    9  C8    D T 153      -5.857   5.769  14.222  0.88 19.75     0.008 A 
HETATM   10  C9    D T 153      -5.325   5.101  15.298  0.88 16.42     0.001 A 
HETATM   11  C10   D T 153      -5.660   5.444  16.589  0.88 17.64     0.002 A 
HETATM   12  C11   D T 153      -6.539   6.465  16.842  0.88 19.01     0.018 A 
HETATM   13  C12   D T 153      -7.103   7.169  15.766  0.88 20.56     0.066 A 
HETATM   14  N1    D T 153      -8.014   8.219  15.958  0.88 21.31    -0.327 N 
ENDROOT
BRANCH  14  15
HETATM   15  C13   D T 153      -8.077   8.787  17.282  0.88 23.28     0.108 C 
BRANCH  15  16
HETATM   16  C14   D T 153      -7.378  10.101  17.093  0.88 26.42     0.060 C 
BRANCH  16  17
HETATM   17  C15   D T 153      -7.933  11.157  18.001  0.88 32.52     0.252 C 
BRANCH  17  18
HETATM   18  N2    D T 153      -9.018  11.879  17.349  0.88 36.85     0.141 N 
HETATM   19  C16   D T 153     -10.172  11.732  18.231  0.88 39.93     0.285 C 
HETATM   20  C17   D T 153     -11.217  12.806  17.987  0.88 43.77     0.285 C 
HETATM   21  N3    D T 153     -10.696  14.150  18.239  0.88 47.03     0.143 N 
HETATM   22  C18   D T 153      -9.237  14.133  18.349  0.88 45.21     0.285 C 
HETATM   23  C20   D T 153     -11.019  14.957  17.061  0.88 50.19     0.285 C 
HETATM   24  C19   D T 153      -8.596  13.277  17.271  0.88 40.84     0.285 C 
ENDBRANCH  17  18
ENDBRANCH  16  17
ENDBRANCH  15  16
ENDBRANCH  14  15
BRANCH   1  25
HETATM   25  C21   D T 153     -12.555   9.762  15.125  0.88 23.84     0.419 C 
HETATM   26  F1    D T 153     -13.445   8.881  15.260  0.88 26.52    -0.166 F 
HETATM   27  F2    D T 153     -13.153  10.685  14.500  0.88 25.60    -0.166 F 
HETATM   28  F3    D T 153     -12.536  10.294  16.275  0.88 23.07    -0.166 F 
ENDBRANCH   1  25
TORSDOF 20
ENDMDL
MODEL 3
REMARK VINA RESULT:    -7.821      4.064      8.456
REMARK INTER + INTRA:         -10.846
REMARK INTER:                 -10.098
REMARK INTRA:                  -0.748
REMARK UNBOUND:                -0.739
REMARK  20 active torsions:
REMARK  status: ('A' for Active; 'I' for Inactive)
REMARK    1  A    between atoms: C1_1  and  C21_25 
REMARK    2  A    between atoms: N1_14  and  C13_15 
REMARK    3  A    between atoms: C13_15  and  C14_16 
REMARK    4  A    between atoms: C14_16  and  C15_17 
REMARK    5  A    between atoms: C15_17  and  N2_18 
REMARK    6  A    between atoms: C1_29  and  C21_53 
REMARK    7  A    between atoms: N1_42  and  C13_43 
REMARK    8  A    between atoms: C13_43  and  C14_44 
REMARK    9  A    between atoms: C14_44  and  C15_45 
REMARK   10  A    between atoms: C15_45  and  N2_46 
REMARK   11  A    between atoms: C1_57  and  C21_81 
REMARK   12  A    between atoms: N1_70  and  C13_71 
REMARK   13  A    between atoms: C13_71  and  C14_72 
REMARK   14  A    between atoms: C14_72  and  C15_73 
REMARK   15  A    between atoms: C15_73  and  N2_74 
REMARK   16  A    between atoms: C1_85  and  C21_109 
REMARK   17  A    between atoms: N1_98  and  C13_99 
REMARK   18  A    between atoms: C13_99  and  C14_100 
REMARK   19  A    between atoms: C14_100  and  C15_101 
REMARK   20  A    between atoms: C15_101  and  N2_102 
ROOT
HETATM    1  C1    D T 153      -2.307   4.139  12.388  0.88 20.05     0.073 A 
HETATM    2  C2    D T 153      -1.107   4.027  13.027  0.88 17.33     0.004 A 
HETATM    3  C3    D T 153      -1.045   4.029  14.386  0.88 18.19     0.008 A 
HETATM    4  C4    D T 153      -2.224   4.154  15.124  0.88 17.49     0.045 A 
HETATM    5  C5    D T 153      -3.452   4.270  14.460  0.88 18.05     0.066 A 
HETATM    6  C6    D T 153      -3.474   4.260  13.071  0.88 18.08     0.022 A 
HETATM    7  S     D T 153      -2.139   4.177  16.802  0.88 21.23    -0.084 SA
HETATM    8  C7    D T 153      -3.711   3.593  17.256  0.88 18.98     0.045 A 
HETATM    9  C8    D T 153      -3.869   2.961  18.494  0.88 19.75     0.008 A 
HETATM   10  C9    D T 153      -5.116   2.534  18.877  0.88 16.42     0.001 A 
HETATM   11  C10   D T 153      -6.214   2.715  18.066  0.88 17.64     0.002 A 
HETATM   12  C11   D T 153      -6.096   3.328  16.845  0.88 19.01     0.018 A 
HETATM   13  C12   D T 153      -4.835   3.776  16.420  0.88 20.56     0.066 A 
HETATM   14  N1    D T 153      -4.646   4.404  15.180  0.88 21.31    -0.327 N 
ENDROOT
BRANCH  14  15
HETATM   15  C13   D T 153      -5.829   4.896  14.517  0.88 23.28     0.108 C 
BRANCH  15  16
HETATM   16  C14   D T 153      -5.824   6.345  14.903  0.88 26.42     0.060 C 
BRANCH  16  17
HETATM   17  C15   D T 153      -6.972   6.679  15.809  0.88 32.52     0.252 C 
BRANCH  17  18
HETATM   18  N2    D T 153      -7.412   8.052  15.600  0.88 36.85     0.141 N 
HETATM   19  C16   D T 153      -8.039   8.066  14.282  0.88 39.93     0.285 C 
HETATM   20  C17   D T 153      -8.981   9.243  14.111  0.88 43.77     0.285 C 
HETATM   21  N3    D T 153     -10.084   9.212  15.072  0.88 47.03     0.143 N 
HETATM   22  C18   D T 153      -9.820   8.246  16.139  0.88 45.21     0.285 C 
HETATM   23  C20   D T 153     -10.132  10.531  15.704  0.88 50.19     0.285 C 
HETATM   24  C19   D T 153      -8.392   8.335  16.647  0.88 40.84     0.285 C 
ENDBRANCH  17  18
ENDBRANCH  16  17
ENDBRANCH  15  16
ENDBRANCH  14  15
BRANCH   1  25
HETATM   25  C21   D T 153      -2.395   4.130  10.872  0.88 23.84     0.419 C 
HETATM   26  F1    D T 153      -1.648   3.278  10.321  0.88 26.52    -0.166 F 
HETATM   27  F2    D T 153      -2.144   5.193  10.234  0.88 25.60    -0.166 F 
HETATM   28  F3    D T 153      -3.522   3.861  10.357  0.88 23.07    -0.166 F 
ENDBRANCH   1  25
TORSDOF 20
ENDMDL
MODEL 4
REMARK VINA RESULT:    -7.665      4.578      7.379
REMARK INTER + INTRA:         -10.644
REMARK INTER:                  -9.566
REMARK INTRA:                  -1.078
REMARK UNBOUND:                -0.739
REMARK  20 active torsions:
REMARK  status: ('A' for Active; 'I' for Inactive)
REMARK    1  A    between atoms: C1_1  and  C21_25 
REMARK    2  A    between atoms: N1_14  and  C13_15 
REMARK    3  A    between atoms: C13_15  and  C14_16 
REMARK    4  A    between atoms: C14_16  and  C15_17 
REMARK    5  A    between atoms: C15_17  and  N2_18 
REMARK    6  A    between atoms: C1_29  and  C21_53 
REMARK    7  A    between atoms: N1_42  and  C13_43 
REMARK    8  A    between atoms: C13_43  and  C14_44 
REMARK    9  A    between atoms: C14_44  and  C15_45 
REMARK   10  A    between atoms: C15_45  and  N2_46 
REMARK   11  A    between atoms: C1_57  and  C21_81 
REMARK   12  A    between atoms: N1_70  and  C13_71 
REMARK   13  A    between atoms: C13_71  and  C14_72 
REMARK   14  A    between atoms: C14_72  and  C15_73 
REMARK   15  A    between atoms: C15_73  and  N2_74 
REMARK   16  A    between atoms: C1_85  and  C21_109 
REMARK   17  A    between atoms: N1_98  and  C13_99 
REMARK   18  A    between atoms: C13_99  and  C14_100 
REMARK   19  A    between atoms: C14_100  and  C15_101 
REMARK   20  A    between atoms: C15_101  and  N2_102 
ROOT
HETATM    1  C1    D T 153     -12.276  10.030  17.589  0.88 20.05     0.073 A 
HETATM    2  C2    D T 153     -13.426   9.902  16.865  0.88 17.33     0.004 A 
HETATM    3  C3    D T 153     -13.378   9.789  15.511  0.88 18.19     0.008 A 
HETATM    4  C4    D T 153     -12.141   9.812  14.864  0.88 17.49     0.045 A 
HETATM    5  C5    D T 153     -10.966   9.945  15.615  0.88 18.05     0.066 A 
HETATM    6  C6    D T 153     -11.055  10.054  16.997  0.88 18.08     0.022 A 
HETATM    7  S     D T 153     -12.091   9.693  13.189  0.88 21.23    -0.084 SA
HETATM    8  C7    D T 153     -10.512   9.022  12.916  0.88 18.98     0.045 A 
HETATM    9  C8    D T 153     -10.281   8.281  11.753  0.88 19.75     0.008 A 
HETATM   10  C9    D T 153      -9.025   7.782  11.511  0.88 16.42     0.001 A 
HETATM   11  C10   D T 153      -7.988   7.998  12.392  0.88 17.64     0.002 A 
HETATM   12  C11   D T 153      -8.180   8.717  13.544  0.88 19.01     0.018 A 
HETATM   13  C12   D T 153      -9.452   9.240  13.825  0.88 20.56     0.066 A 
HETATM   14  N1    D T 153      -9.715   9.979  14.988  0.88 21.31    -0.327 N 
ENDROOT
BRANCH  14  15
HETATM   15  C13   D T 153      -8.570  10.487  15.703  0.88 23.28     0.108 C 
BRANCH  15  16
HETATM   16  C14   D T 153      -8.484  11.895  15.196  0.88 26.42     0.060 C 
BRANCH  16  17
HETATM   17  C15   D T 153      -8.264  12.872  16.312  0.88 32.52     0.252 C 
BRANCH  17  18
HETATM   18  N2    D T 153      -9.206  12.635  17.398  0.88 36.85     0.141 N 
HETATM   19  C16   D T 153      -8.473  12.931  18.625  0.88 39.93     0.285 C 
HETATM   20  C17   D T 153      -9.403  13.228  19.787  0.88 43.77     0.285 C 
HETATM   21  N3    D T 153     -10.243  14.400  19.536  0.88 47.03     0.143 N 
HETATM   22  C18   D T 153     -10.198  14.784  18.125  0.88 45.21     0.285 C 
HETATM   23  C20   D T 153     -11.622  14.000  19.818  0.88 50.19     0.285 C 
HETATM   24  C19   D T 153     -10.305  13.580  17.205  0.88 40.84     0.285 C 
ENDBRANCH  17  18
ENDBRANCH  16  17
ENDBRANCH  15  16
ENDBRANCH  14  15
BRANCH   1  25
HETATM   25  C21   D T 153     -12.310  10.148  19.103  0.88 23.84     0.419 C 
HETATM   26  F1    D T 153     -12.660   9.091  19.692  0.88 26.52    -0.166 F 
HETATM   27  F2    D T 153     -13.041  11.033  19.636  0.88 25.60    -0.166 F 
HETATM   28  F3    D T 153     -11.221  10.425  19.689  0.88 23.07    -0.166 F 
ENDBRANCH   1  25
TORSDOF 20
ENDMDL
MODEL 5
REMARK VINA RESULT:    -7.662     26.802     28.872
REMARK INTER + INTRA:         -10.641
REMARK INTER:                  -9.583
REMARK INTRA:                  -1.058
REMARK UNBOUND:                -0.739
REMARK  20 active torsions:
REMARK  status: ('A' for Active; 'I' for Inactive)
REMARK    1  A    between atoms: C1_1  and  C21_25 
REMARK    2  A    between atoms: N1_14  and  C13_15 
REMARK    3  A    between atoms: C13_15  and  C14_16 
REMARK    4  A    between atoms: C14_16  and  C15_17 
REMARK    5  A    between atoms: C15_17  and  N2_18 
REMARK    6  A    between atoms: C1_29  and  C21_53 
REMARK    7  A    between atoms: N1_42  and  C13_43 
REMARK    8  A    between atoms: C13_43  and  C14_44 
REMARK    9  A    between atoms: C14_44  and  C15_45 
REMARK   10  A    between atoms: C15_45  and  N2_46 
REMARK   11  A    between atoms: C1_57  and  C21_81 
REMARK   12  A    between atoms: N1_70  and  C13_71 
REMARK   13  A    between atoms: C13_71  and  C14_72 
REMARK   14  A    between atoms: C14_72  and  C15_73 
REMARK   15  A    between atoms: C15_73  and  N2_74 
REMARK   16  A    between atoms: C1_85  and  C21_109 
REMARK   17  A    between atoms: N1_98  and  C13_99 
REMARK   18  A    between atoms: C13_99  and  C14_100 
REMARK   19  A    between atoms: C14_100  and  C15_101 
REMARK   20  A    between atoms: C15_101  and  N2_102 
ROOT
HETATM    1  C1    D T 153     -31.330   4.051   2.559  0.88 20.05     0.073 A 
HETATM    2  C2    D T 153     -30.608   3.743   1.443  0.88 17.33     0.004 A 
HETATM    3  C3    D T 153     -30.536   4.618   0.405  0.88 18.19     0.008 A 
HETATM    4  C4    D T 153     -31.214   5.836   0.488  0.88 17.49     0.045 A 
HETATM    5  C5    D T 153     -31.954   6.144   1.636  0.88 18.05     0.066 A 
HETATM    6  C6    D T 153     -32.001   5.225   2.677  0.88 18.08     0.022 A 
HETATM    7  S     D T 153     -31.139   6.904  -0.807  0.88 21.23    -0.084 SA
HETATM    8  C7    D T 153     -31.412   8.436  -0.035  0.88 18.98     0.045 A 
HETATM    9  C8    D T 153     -30.906   9.596  -0.631  0.88 19.75     0.008 A 
HETATM   10  C9    D T 153     -31.154  10.815  -0.047  0.88 16.42     0.001 A 
HETATM   11  C10   D T 153     -31.890  10.915   1.113  0.88 17.64     0.002 A 
HETATM   12  C11   D T 153     -32.397   9.799   1.725  0.88 19.01     0.018 A 
HETATM   13  C12   D T 153     -32.162   8.536   1.158  0.88 20.56     0.066 A 
HETATM   14  N1    D T 153     -32.649   7.355   1.738  0.88 21.31    -0.327 N 
ENDROOT
BRANCH  14  15
HETATM   15  C13   D T 153     -33.690   7.501   2.726  0.88 23.28     0.108 C 
BRANCH  15  16
HETATM   16  C14   D T 153     -34.923   7.200   1.927  0.88 26.42     0.060 C 
BRANCH  16  17
HETATM   17  C15   D T 153     -35.962   6.507   2.757  0.88 32.52     0.252 C 
BRANCH  17  18
HETATM   18  N2    D T 153     -35.980   5.078   2.474  0.88 36.85     0.141 N 
HETATM   19  C16   D T 153     -35.443   4.435   3.669  0.88 39.93     0.285 C 
HETATM   20  C17   D T 153     -35.847   2.975   3.761  0.88 43.77     0.285 C 
HETATM   21  N3    D T 153     -37.299   2.808   3.842  0.88 47.03     0.143 N 
HETATM   22  C18   D T 153     -37.988   4.052   3.495  0.88 45.21     0.285 C 
HETATM   23  C20   D T 153     -37.669   1.825   2.823  0.88 50.19     0.285 C 
HETATM   24  C19   D T 153     -37.382   4.715   2.271  0.88 40.84     0.285 C 
ENDBRANCH  17  18
ENDBRANCH  16  17
ENDBRANCH  15  16
ENDBRANCH  14  15
BRANCH   1  25
HETATM   25  C21   D T 153     -31.414   3.089   3.731  0.88 23.84     0.419 C 
HETATM   26  F1    D T 153     -30.996   1.928   3.473  0.88 26.52    -0.166 F 
HETATM   27  F2    D T 153     -32.536   2.879   4.276  0.88 25.60    -0.166 F 
HETATM   28  F3    D T 153     -30.750   3.380   4.771  0.88 23.07    -0.166 F 
ENDBRANCH   1  25
TORSDOF 20
ENDMDL
MODEL 6
REMARK VINA RESULT:    -7.571     26.773     28.686
REMARK INTER + INTRA:         -10.524
REMARK INTER:                  -9.650
REMARK INTRA:                  -0.874
REMARK UNBOUND:                -0.739
REMARK  20 active torsions:
REMARK  status: ('A' for Active; 'I' for Inactive)
REMARK    1  A    between atoms: C1_1  and  C21_25 
REMARK    2  A    between atoms: N1_14  and  C13_15 
REMARK    3  A    between atoms: C13_15  and  C14_16 
REMARK    4  A    between atoms: C14_16  and  C15_17 
REMARK    5  A    between atoms: C15_17  and  N2_18 
REMARK    6  A    between atoms: C1_29  and  C21_53 
REMARK    7  A    between atoms: N1_42  and  C13_43 
REMARK    8  A    between atoms: C13_43  and  C14_44 
REMARK    9  A    between atoms: C14_44  and  C15_45 
REMARK   10  A    between atoms: C15_45  and  N2_46 
REMARK   11  A    between atoms: C1_57  and  C21_81 
REMARK   12  A    between atoms: N1_70  and  C13_71 
REMARK   13  A    between atoms: C13_71  and  C14_72 
REMARK   14  A    between atoms: C14_72  and  C15_73 
REMARK   15  A    between atoms: C15_73  and  N2_74 
REMARK   16  A    between atoms: C1_85  and  C21_109 
REMARK   17  A    between atoms: N1_98  and  C13_99 
REMARK   18  A    between atoms: C13_99  and  C14_100 
REMARK   19  A    between atoms: C14_100  and  C15_101 
REMARK   20  A    between atoms: C15_101  and  N2_102 
ROOT
HETATM    1  C1    D T 153     -30.858   3.978   1.948  0.88 20.05     0.073 A 
HETATM    2  C2    D T 153     -29.911   3.534   1.071  0.88 17.33     0.004 A 
HETATM    3  C3    D T 153     -29.572   4.281  -0.014  0.88 18.19     0.008 A 
HETATM    4  C4    D T 153     -30.205   5.507  -0.226  0.88 17.49     0.045 A 
HETATM    5  C5    D T 153     -31.176   5.955   0.679  0.88 18.05     0.066 A 
HETATM    6  C6    D T 153     -31.493   5.165   1.777  0.88 18.08     0.022 A 
HETATM    7  S     D T 153     -29.796   6.416  -1.579  0.88 21.23    -0.084 SA
HETATM    8  C7    D T 153     -30.181   8.030  -1.066  0.88 18.98     0.045 A 
HETATM    9  C8    D T 153     -29.511   9.107  -1.654  0.88 19.75     0.008 A 
HETATM   10  C9    D T 153     -29.839  10.389  -1.284  0.88 16.42     0.001 A 
HETATM   11  C10   D T 153     -30.816  10.632  -0.344  0.88 17.64     0.002 A 
HETATM   12  C11   D T 153     -31.492   9.600   0.256  0.88 19.01     0.018 A 
HETATM   13  C12   D T 153     -31.180   8.277  -0.098  0.88 20.56     0.066 A 
HETATM   14  N1    D T 153     -31.830   7.177   0.482  0.88 21.31    -0.327 N 
ENDROOT
BRANCH  14  15
HETATM   15  C13   D T 153     -33.063   7.449   1.180  0.88 23.28     0.108 C 
BRANCH  15  16
HETATM   16  C14   D T 153     -34.074   6.776   0.300  0.88 26.42     0.060 C 
BRANCH  16  17
HETATM   17  C15   D T 153     -35.163   6.130   1.105  0.88 32.52     0.252 C 
BRANCH  17  18
HETATM   18  N2    D T 153     -35.291   6.771   2.407  0.88 36.85     0.141 N 
HETATM   19  C16   D T 153     -36.544   7.517   2.355  0.88 39.93     0.285 C 
HETATM   20  C17   D T 153     -37.086   7.820   3.740  0.88 43.77     0.285 C 
HETATM   21  N3    D T 153     -37.383   6.603   4.495  0.88 47.03     0.143 N 
HETATM   22  C18   D T 153     -36.789   5.430   3.852  0.88 45.21     0.285 C 
HETATM   23  C20   D T 153     -36.728   6.742   5.797  0.88 50.19     0.285 C 
HETATM   24  C19   D T 153     -35.366   5.693   3.393  0.88 40.84     0.285 C 
ENDBRANCH  17  18
ENDBRANCH  16  17
ENDBRANCH  15  16
ENDBRANCH  14  15
BRANCH   1  25
HETATM   25  C21   D T 153     -31.242   3.161   3.169  0.88 23.84     0.419 C 
HETATM   26  F1    D T 153     -32.458   3.256   3.487  0.88 26.52    -0.166 F 
HETATM   27  F2    D T 153     -30.639   3.365   4.262  0.88 25.60    -0.166 F 
HETATM   28  F3    D T 153     -31.088   1.904   3.100  0.88 23.07    -0.166 F 
ENDBRANCH   1  25
TORSDOF 20
ENDMDL
MODEL 7
REMARK VINA RESULT:    -7.414     26.914     29.138
REMARK INTER + INTRA:         -10.321
REMARK INTER:                  -9.390
REMARK INTRA:                  -0.931
REMARK UNBOUND:                -0.739
REMARK  20 active torsions:
REMARK  status: ('A' for Active; 'I' for Inactive)
REMARK    1  A    between atoms: C1_1  and  C21_25 
REMARK    2  A    between atoms: N1_14  and  C13_15 
REMARK    3  A    between atoms: C13_15  and  C14_16 
REMARK    4  A    between atoms: C14_16  and  C15_17 
REMARK    5  A    between atoms: C15_17  and  N2_18 
REMARK    6  A    between atoms: C1_29  and  C21_53 
REMARK    7  A    between atoms: N1_42  and  C13_43 
REMARK    8  A    between atoms: C13_43  and  C14_44 
REMARK    9  A    between atoms: C14_44  and  C15_45 
REMARK   10  A    between atoms: C15_45  and  N2_46 
REMARK   11  A    between atoms: C1_57  and  C21_81 
REMARK   12  A    between atoms: N1_70  and  C13_71 
REMARK   13  A    between atoms: C13_71  and  C14_72 
REMARK   14  A    between atoms: C14_72  and  C15_73 
REMARK   15  A    between atoms: C15_73  and  N2_74 
REMARK   16  A    between atoms: C1_85  and  C21_109 
REMARK   17  A    between atoms: N1_98  and  C13_99 
REMARK   18  A    between atoms: C13_99  and  C14_100 
REMARK   19  A    between atoms: C14_100  and  C15_101 
REMARK   20  A    between atoms: C15_101  and  N2_102 
ROOT
HETATM    1  C1    D T 153     -31.023   3.753   2.007  0.88 20.05     0.073 A 
HETATM    2  C2    D T 153     -30.061   3.485   1.077  0.88 17.33     0.004 A 
HETATM    3  C3    D T 153     -29.799   4.373   0.080  0.88 18.19     0.008 A 
HETATM    4  C4    D T 153     -30.529   5.561   0.013  0.88 17.49     0.045 A 
HETATM    5  C5    D T 153     -31.515   5.828   0.971  0.88 18.05     0.066 A 
HETATM    6  C6    D T 153     -31.751   4.898   1.976  0.88 18.08     0.022 A 
HETATM    7  S     D T 153     -30.216   6.645  -1.233  0.88 21.23    -0.084 SA
HETATM    8  C7    D T 153     -30.715   8.157  -0.538  0.88 18.98     0.045 A 
HETATM    9  C8    D T 153     -30.140   9.342  -1.007  0.88 19.75     0.008 A 
HETATM   10  C9    D T 153     -30.560  10.544  -0.492  0.88 16.42     0.001 A 
HETATM   11  C10   D T 153     -31.536  10.603   0.478  0.88 17.64     0.002 A 
HETATM   12  C11   D T 153     -32.119   9.461   0.963  0.88 19.01     0.018 A 
HETATM   13  C12   D T 153     -31.713   8.214   0.460  0.88 20.56     0.066 A 
HETATM   14  N1    D T 153     -32.265   7.009   0.919  0.88 21.31    -0.327 N 
ENDROOT
BRANCH  14  15
HETATM   15  C13   D T 153     -33.503   7.103   1.654  0.88 23.28     0.108 C 
BRANCH  15  16
HETATM   16  C14   D T 153     -34.518   6.780   0.598  0.88 26.42     0.060 C 
BRANCH  16  17
HETATM   17  C15   D T 153     -35.796   7.535   0.812  0.88 32.52     0.252 C 
BRANCH  17  18
HETATM   18  N2    D T 153     -35.540   8.807   1.474  0.88 36.85     0.141 N 
HETATM   19  C16   D T 153     -35.736   9.828   0.450  0.88 39.93     0.285 C 
HETATM   20  C17   D T 153     -36.007  11.195   1.053  0.88 43.77     0.285 C 
HETATM   21  N3    D T 153     -37.226  11.209   1.862  0.88 47.03     0.143 N 
HETATM   22  C18   D T 153     -37.685   9.848   2.140  0.88 45.21     0.285 C 
HETATM   23  C20   D T 153     -36.870  11.803   3.152  0.88 50.19     0.285 C 
HETATM   24  C19   D T 153     -36.540   8.931   2.533  0.88 40.84     0.285 C 
ENDBRANCH  17  18
ENDBRANCH  16  17
ENDBRANCH  15  16
ENDBRANCH  14  15
BRANCH   1  25
HETATM   25  C21   D T 153     -31.322   2.777   3.131  0.88 23.84     0.419 C 
HETATM   26  F1    D T 153     -32.541   2.715   3.445  0.88 26.52    -0.166 F 
HETATM   27  F2    D T 153     -30.742   2.925   4.246  0.88 25.60    -0.166 F 
HETATM   28  F3    D T 153     -31.041   1.557   2.932  0.88 23.07    -0.166 F 
ENDBRANCH   1  25
TORSDOF 20
ENDMDL
MODEL 8
REMARK VINA RESULT:    -7.385     26.723     28.515
REMARK INTER + INTRA:         -10.283
REMARK INTER:                 -10.169
REMARK INTRA:                  -0.114
REMARK UNBOUND:                -0.739
REMARK  20 active torsions:
REMARK  status: ('A' for Active; 'I' for Inactive)
REMARK    1  A    between atoms: C1_1  and  C21_25 
REMARK    2  A    between atoms: N1_14  and  C13_15 
REMARK    3  A    between atoms: C13_15  and  C14_16 
REMARK    4  A    between atoms: C14_16  and  C15_17 
REMARK    5  A    between atoms: C15_17  and  N2_18 
REMARK    6  A    between atoms: C1_29  and  C21_53 
REMARK    7  A    between atoms: N1_42  and  C13_43 
REMARK    8  A    between atoms: C13_43  and  C14_44 
REMARK    9  A    between atoms: C14_44  and  C15_45 
REMARK   10  A    between atoms: C15_45  and  N2_46 
REMARK   11  A    between atoms: C1_57  and  C21_81 
REMARK   12  A    between atoms: N1_70  and  C13_71 
REMARK   13  A    between atoms: C13_71  and  C14_72 
REMARK   14  A    between atoms: C14_72  and  C15_73 
REMARK   15  A    between atoms: C15_73  and  N2_74 
REMARK   16  A    between atoms: C1_85  and  C21_109 
REMARK   17  A    between atoms: N1_98  and  C13_99 
REMARK   18  A    between atoms: C13_99  and  C14_100 
REMARK   19  A    between atoms: C14_100  and  C15_101 
REMARK   20  A    between atoms: C15_101  and  N2_102 
ROOT
HETATM    1  C1    D T 153     -30.707   3.654   1.503  0.88 20.05     0.073 A 
HETATM    2  C2    D T 153     -29.544   3.382   0.844  0.88 17.33     0.004 A 
HETATM    3  C3    D T 153     -29.071   4.236  -0.103  0.88 18.19     0.008 A 
HETATM    4  C4    D T 153     -29.790   5.395  -0.400  0.88 17.49     0.045 A 
HETATM    5  C5    D T 153     -30.984   5.667   0.280  0.88 18.05     0.066 A 
HETATM    6  C6    D T 153     -31.433   4.771   1.243  0.88 18.08     0.022 A 
HETATM    7  S     D T 153     -29.212   6.436  -1.586  0.88 21.23    -0.084 SA
HETATM    8  C7    D T 153     -29.898   7.957  -1.104  0.88 18.98     0.045 A 
HETATM    9  C8    D T 153     -29.255   9.141  -1.479  0.88 19.75     0.008 A 
HETATM   10  C9    D T 153     -29.814  10.348  -1.137  0.88 16.42     0.001 A 
HETATM   11  C10   D T 153     -30.996  10.414  -0.433  0.88 17.64     0.002 A 
HETATM   12  C11   D T 153     -31.652   9.274  -0.047  0.88 19.01     0.018 A 
HETATM   13  C12   D T 153     -31.108   8.022  -0.377  0.88 20.56     0.066 A 
HETATM   14  N1    D T 153     -31.727   6.819  -0.007  0.88 21.31    -0.327 N 
ENDROOT
BRANCH  14  15
HETATM   15  C13   D T 153     -33.106   6.901   0.405  0.88 23.28     0.108 C 
BRANCH  15  16
HETATM   16  C14   D T 153     -32.979   7.207   1.868  0.88 26.42     0.060 C 
BRANCH  16  17
HETATM   17  C15   D T 153     -34.271   6.982   2.594  0.88 32.52     0.252 C 
BRANCH  17  18
HETATM   18  N2    D T 153     -34.687   5.590   2.488  0.88 36.85     0.141 N 
HETATM   19  C16   D T 153     -34.474   5.015   3.812  0.88 39.93     0.285 C 
HETATM   20  C17   D T 153     -35.300   3.760   4.029  0.88 43.77     0.285 C 
HETATM   21  N3    D T 153     -36.737   4.023   3.939  0.88 47.03     0.143 N 
HETATM   22  C18   D T 153     -36.992   5.340   3.355  0.88 45.21     0.285 C 
HETATM   23  C20   D T 153     -37.289   3.037   3.008  0.88 50.19     0.285 C 
HETATM   24  C19   D T 153     -36.109   5.608   2.149  0.88 40.84     0.285 C 
ENDBRANCH  17  18
ENDBRANCH  16  17
ENDBRANCH  15  16
ENDBRANCH  14  15
BRANCH   1  25
HETATM   25  C21   D T 153     -31.245   2.716   2.568  0.88 23.84     0.419 C 
HETATM   26  F1    D T 153     -30.871   3.000   3.738  0.88 26.52    -0.166 F 
HETATM   27  F2    D T 153     -31.001   1.478   2.479  0.88 25.60    -0.166 F 
HETATM   28  F3    D T 153     -32.504   2.651   2.705  0.88 23.07    -0.166 F 
ENDBRANCH   1  25
TORSDOF 20
ENDMDL
MODEL 9
REMARK VINA RESULT:    -7.173     26.495     28.248
REMARK INTER + INTRA:         -10.009
REMARK INTER:                  -9.250
REMARK INTRA:                  -0.759
REMARK UNBOUND:                -0.739
REMARK  20 active torsions:
REMARK  status: ('A' for Active; 'I' for Inactive)
REMARK    1  A    between atoms: C1_1  and  C21_25 
REMARK    2  A    between atoms: N1_14  and  C13_15 
REMARK    3  A    between atoms: C13_15  and  C14_16 
REMARK    4  A    between atoms: C14_16  and  C15_17 
REMARK    5  A    between atoms: C15_17  and  N2_18 
REMARK    6  A    between atoms: C1_29  and  C21_53 
REMARK    7  A    between atoms: N1_42  and  C13_43 
REMARK    8  A    between atoms: C13_43  and  C14_44 
REMARK    9  A    between atoms: C14_44  and  C15_45 
REMARK   10  A    between atoms: C15_45  and  N2_46 
REMARK   11  A    between atoms: C1_57  and  C21_81 
REMARK   12  A    between atoms: N1_70  and  C13_71 
REMARK   13  A    between atoms: C13_71  and  C14_72 
REMARK   14  A    between atoms: C14_72  and  C15_73 
REMARK   15  A    between atoms: C15_73  and  N2_74 
REMARK   16  A    between atoms: C1_85  and  C21_109 
REMARK   17  A    between atoms: N1_98  and  C13_99 
REMARK   18  A    between atoms: C13_99  and  C14_100 
REMARK   19  A    between atoms: C14_100  and  C15_101 
REMARK   20  A    between atoms: C15_101  and  N2_102 
ROOT
HETATM    1  C1    D T 153     -30.239   5.487  -0.022  0.88 20.05     0.073 A 
HETATM    2  C2    D T 153     -29.673   4.477   0.700  0.88 17.33     0.004 A 
HETATM    3  C3    D T 153     -30.286   4.000   1.817  0.88 18.19     0.008 A 
HETATM    4  C4    D T 153     -31.500   4.557   2.222  0.88 17.49     0.045 A 
HETATM    5  C5    D T 153     -32.074   5.594   1.475  0.88 18.05     0.066 A 
HETATM    6  C6    D T 153     -31.419   6.052   0.339  0.88 18.08     0.022 A 
HETATM    7  S     D T 153     -32.242   3.978   3.614  0.88 21.23    -0.084 SA
HETATM    8  C7    D T 153     -33.914   4.345   3.318  0.88 18.98     0.045 A 
HETATM    9  C8    D T 153     -34.899   3.575   3.944  0.88 19.75     0.008 A 
HETATM   10  C9    D T 153     -36.223   3.885   3.747  0.88 16.42     0.001 A 
HETATM   11  C10   D T 153     -36.597   4.940   2.945  0.88 17.64     0.002 A 
HETATM   12  C11   D T 153     -35.658   5.715   2.313  0.88 19.01     0.018 A 
HETATM   13  C12   D T 153     -34.296   5.425   2.490  0.88 20.56     0.066 A 
HETATM   14  N1    D T 153     -33.286   6.174   1.868  0.88 21.31    -0.327 N 
ENDROOT
BRANCH  14  15
HETATM   15  C13   D T 153     -33.670   7.458   1.335  0.88 23.28     0.108 C 
BRANCH  15  16
HETATM   16  C14   D T 153     -32.788   8.394   2.107  0.88 26.42     0.060 C 
BRANCH  16  17
HETATM   17  C15   D T 153     -32.756   9.759   1.488  0.88 32.52     0.252 C 
BRANCH  17  18
HETATM   18  N2    D T 153     -31.391  10.146   1.161  0.88 36.85     0.141 N 
HETATM   19  C16   D T 153     -31.105   9.523  -0.128  0.88 39.93     0.285 C 
HETATM   20  C17   D T 153     -29.958  10.207  -0.850  0.88 43.77     0.285 C 
HETATM   21  N3    D T 153     -30.250  11.610  -1.146  0.88 47.03     0.143 N 
HETATM   22  C18   D T 153     -31.420  12.070  -0.397  0.88 45.21     0.285 C 
HETATM   23  C20   D T 153     -29.110  12.390  -0.662  0.88 50.19     0.285 C 
HETATM   24  C19   D T 153     -31.390  11.604   1.047  0.88 40.84     0.285 C 
ENDBRANCH  17  18
ENDBRANCH  16  17
ENDBRANCH  15  16
ENDBRANCH  14  15
BRANCH   1  25
HETATM   25  C21   D T 153     -29.573   6.026  -1.276  0.88 23.84     0.419 C 
HETATM   26  F1    D T 153     -28.875   7.057  -1.083  0.88 26.52    -0.166 F 
HETATM   27  F2    D T 153     -30.291   6.343  -2.268  0.88 25.60    -0.166 F 
HETATM   28  F3    D T 153     -28.753   5.264  -1.872  0.88 23.07    -0.166 F 
ENDBRANCH   1  25
TORSDOF 20
ENDMDL
