MODEL 1
REMARK VINA RESULT:    -7.411      0.000      0.000
REMARK INTER + INTRA:          -8.754
REMARK INTER:                  -8.278
REMARK INTRA:                  -0.476
REMARK UNBOUND:                -0.476
REMARK  2 active torsions:
REMARK  status: ('A' for Active; 'I' for Inactive)
REMARK    1  A    between atoms: C5_4  and  O7_13 
REMARK    2  A    between atoms: C8_10  and  O7_13 
ROOT
HETATM    1  O7    D T 600       5.657   1.440  -7.645  1.00 18.03    -0.309 OA
ENDROOT
BRANCH   1   2
HETATM    2  C5    D T 600       5.790   1.647  -9.029  1.00 18.33     0.099 A 
HETATM    3  C6    D T 600       6.750   2.611  -9.610  1.00 17.53     0.132 A 
HETATM    4  C1    D T 600       6.848   2.798 -11.056  1.00 16.53     0.089 A 
HETATM    5  O17   D T 600       7.578   3.360  -8.800  1.00 20.49    -0.193 OA
HETATM    6  C2    D T 600       5.980   2.017 -11.911  1.00 14.58     0.020 A 
HETATM    7  C3    D T 600       5.030   1.064 -11.344  1.00 14.14     0.041 A 
HETATM    8 CL14   D T 600       6.039   2.170 -13.567  1.00  1.00    -0.091 Cl
HETATM    9  C4    D T 600       4.938   0.882  -9.904  1.00 16.13     0.059 A 
ENDBRANCH   1   2
BRANCH   1  10
HETATM   10  C8    D T 600       4.620   2.062  -6.857  1.00 16.10     0.106 A 
HETATM   11  C9    D T 600       3.508   1.111  -6.335  1.00 14.15     0.063 A 
HETATM   12  C10   D T 600       2.419   1.656  -5.545  1.00 14.71     0.078 A 
HETATM   13 CL16   D T 600       3.533  -0.526  -6.673  1.00  1.00    -0.085 Cl
HETATM   14  C11   D T 600       2.435   3.146  -5.272  1.00 14.35     0.041 A 
HETATM   15  C12   D T 600       3.477   3.946  -5.771  1.00 18.52     0.009 A 
HETATM   16 CL15   D T 600       1.155   3.758  -4.366  1.00  1.63    -0.087 Cl
HETATM   17  C13   D T 600       4.522   3.500  -6.515  1.00 15.99     0.026 A 
ENDBRANCH   1  10
TORSDOF 2
ENDMDL
MODEL 2
REMARK VINA RESULT:    -7.405      1.642      6.397
REMARK INTER + INTRA:          -8.747
REMARK INTER:                  -8.285
REMARK INTRA:                  -0.462
REMARK UNBOUND:                -0.476
REMARK  2 active torsions:
REMARK  status: ('A' for Active; 'I' for Inactive)
REMARK    1  A    between atoms: C5_4  and  O7_13 
REMARK    2  A    between atoms: C8_10  and  O7_13 
ROOT
HETATM    1  O7    D T 600       5.448   1.551  -7.208  1.00 18.03    -0.309 OA
ENDROOT
BRANCH   1   2
HETATM    2  C5    D T 600       4.351   2.020  -6.463  1.00 18.33     0.099 A 
HETATM    3  C6    D T 600       3.362   1.117  -5.832  1.00 17.53     0.132 A 
HETATM    4  C1    D T 600       2.234   1.651  -5.072  1.00 16.53     0.089 A 
HETATM    5  O17   D T 600       3.481  -0.252  -5.945  1.00 20.49    -0.193 OA
HETATM    6  C2    D T 600       2.104   3.087  -4.952  1.00 14.58     0.020 A 
HETATM    7  C3    D T 600       3.075   3.983  -5.572  1.00 14.14     0.041 A 
HETATM    8 CL14   D T 600       0.848   3.768  -4.096  1.00  1.00    -0.091 Cl
HETATM    9  C4    D T 600       4.197   3.446  -6.326  1.00 16.13     0.059 A 
ENDBRANCH   1   2
BRANCH   1  10
HETATM   10  C8    D T 600       5.491   1.596  -8.650  1.00 16.10     0.106 A 
HETATM   11  C9    D T 600       6.566   2.534  -9.263  1.00 14.15     0.063 A 
HETATM   12  C10   D T 600       6.669   2.650 -10.707  1.00 14.71     0.078 A 
HETATM   13 CL16   D T 600       7.600   3.422  -8.296  1.00  1.00    -0.085 Cl
HETATM   14  C11   D T 600       5.705   1.832 -11.541  1.00 14.35     0.041 A 
HETATM   15  C12   D T 600       4.761   0.998 -10.918  1.00 18.52     0.009 A 
HETATM   16 CL15   D T 600       5.833   1.992 -13.211  1.00  1.63    -0.087 Cl
HETATM   17  C13   D T 600       4.611   0.846  -9.577  1.00 15.99     0.026 A 
ENDBRANCH   1  10
TORSDOF 2
ENDMDL
MODEL 3
REMARK VINA RESULT:    -7.403      1.214      1.976
REMARK INTER + INTRA:          -8.745
REMARK INTER:                  -8.417
REMARK INTRA:                  -0.328
REMARK UNBOUND:                -0.476
REMARK  2 active torsions:
REMARK  status: ('A' for Active; 'I' for Inactive)
REMARK    1  A    between atoms: C5_4  and  O7_13 
REMARK    2  A    between atoms: C8_10  and  O7_13 
ROOT
HETATM    1  O7    D T 600       4.749   0.906  -7.967  1.00 18.03    -0.309 OA
ENDROOT
BRANCH   1   2
HETATM    2  C5    D T 600       4.915   1.173  -9.337  1.00 18.33     0.099 A 
HETATM    3  C6    D T 600       3.807   1.083 -10.315  1.00 17.53     0.132 A 
HETATM    4  C1    D T 600       4.028   1.363 -11.732  1.00 16.53     0.089 A 
HETATM    5  O17   D T 600       2.535   0.731  -9.913  1.00 20.49    -0.193 OA
HETATM    6  C2    D T 600       5.361   1.732 -12.160  1.00 14.58     0.020 A 
HETATM    7  C3    D T 600       6.458   1.822 -11.201  1.00 14.14     0.041 A 
HETATM    8 CL14   D T 600       5.688   2.072 -13.756  1.00  1.00    -0.091 Cl
HETATM    9  C4    D T 600       6.232   1.542  -9.791  1.00 16.13     0.059 A 
ENDBRANCH   1   2
BRANCH   1  10
HETATM   10  C8    D T 600       3.928   1.721  -7.105  1.00 16.10     0.106 A 
HETATM   11  C9    D T 600       2.923   0.951  -6.205  1.00 14.15     0.063 A 
HETATM   12  C10   D T 600       2.049   1.696  -5.317  1.00 14.71     0.078 A 
HETATM   13 CL16   D T 600       2.819  -0.716  -6.246  1.00  1.00    -0.085 Cl
HETATM   14  C11   D T 600       2.174   3.205  -5.320  1.00 14.35     0.041 A 
HETATM   15  C12   D T 600       3.112   3.835  -6.157  1.00 18.52     0.009 A 
HETATM   16 CL15   D T 600       1.142   4.048  -4.293  1.00  1.63    -0.087 Cl
HETATM   17  C13   D T 600       3.956   3.200  -7.010  1.00 15.99     0.026 A 
ENDBRANCH   1  10
TORSDOF 2
ENDMDL
MODEL 4
REMARK VINA RESULT:    -7.393      9.065     11.971
REMARK INTER + INTRA:          -8.733
REMARK INTER:                  -8.301
REMARK INTRA:                  -0.432
REMARK UNBOUND:                -0.476
REMARK  2 active torsions:
REMARK  status: ('A' for Active; 'I' for Inactive)
REMARK    1  A    between atoms: C5_4  and  O7_13 
REMARK    2  A    between atoms: C8_10  and  O7_13 
ROOT
HETATM    1  O7    D T 600       5.158   6.230   2.458  1.00 18.03    -0.309 OA
ENDROOT
BRANCH   1   2
HETATM    2  C5    D T 600       6.258   5.486   2.918  1.00 18.33     0.099 A 
HETATM    3  C6    D T 600       6.167   4.525   4.040  1.00 17.53     0.132 A 
HETATM    4  C1    D T 600       7.340   3.779   4.489  1.00 16.53     0.089 A 
HETATM    5  O17   D T 600       4.971   4.311   4.693  1.00 20.49    -0.193 OA
HETATM    6  C2    D T 600       8.598   4.001   3.809  1.00 14.58     0.020 A 
HETATM    7  C3    D T 600       8.695   4.947   2.702  1.00 14.14     0.041 A 
HETATM    8 CL14   D T 600       9.975   3.182   4.260  1.00  1.00    -0.091 Cl
HETATM    9  C4    D T 600       7.524   5.687   2.259  1.00 16.13     0.059 A 
ENDBRANCH   1   2
BRANCH   1  10
HETATM   10  C8    D T 600       4.872   6.418   1.055  1.00 16.10     0.106 A 
HETATM   11  C9    D T 600       5.097   7.854   0.509  1.00 14.15     0.063 A 
HETATM   12  C10   D T 600       4.820   8.135  -0.889  1.00 14.71     0.078 A 
HETATM   13 CL16   D T 600       5.639   9.088   1.498  1.00  1.00    -0.085 Cl
HETATM   14  C11   D T 600       4.323   6.988  -1.744  1.00 14.35     0.041 A 
HETATM   15  C12   D T 600       4.149   5.711  -1.183  1.00 18.52     0.009 A 
HETATM   16 CL15   D T 600       3.996   7.339  -3.356  1.00  1.63    -0.087 Cl
HETATM   17  C13   D T 600       4.387   5.383   0.113  1.00 15.99     0.026 A 
ENDBRANCH   1  10
TORSDOF 2
ENDMDL
MODEL 5
REMARK VINA RESULT:    -7.207      1.615      2.355
REMARK INTER + INTRA:          -8.525
REMARK INTER:                  -8.104
REMARK INTRA:                  -0.422
REMARK UNBOUND:                -0.476
REMARK  2 active torsions:
REMARK  status: ('A' for Active; 'I' for Inactive)
REMARK    1  A    between atoms: C5_4  and  O7_13 
REMARK    2  A    between atoms: C8_10  and  O7_13 
ROOT
HETATM    1  O7    D T 600       4.562   3.624  -7.760  1.00 18.03    -0.309 OA
ENDROOT
BRANCH   1   2
HETATM    2  C5    D T 600       4.871   3.198  -9.064  1.00 18.33     0.099 A 
HETATM    3  C6    D T 600       6.256   2.941  -9.519  1.00 17.53     0.132 A 
HETATM    4  C1    D T 600       6.530   2.507 -10.887  1.00 16.53     0.089 A 
HETATM    5  O17   D T 600       7.325   3.107  -8.663  1.00 20.49    -0.193 OA
HETATM    6  C2    D T 600       5.412   2.334 -11.791  1.00 14.58     0.020 A 
HETATM    7  C3    D T 600       4.044   2.586 -11.348  1.00 14.14     0.041 A 
HETATM    8 CL14   D T 600       5.646   1.835 -13.361  1.00  1.00    -0.091 Cl
HETATM    9  C4    D T 600       3.777   3.017  -9.984  1.00 16.13     0.059 A 
ENDBRANCH   1   2
BRANCH   1  10
HETATM   10  C8    D T 600       4.181   2.711  -6.709  1.00 16.10     0.106 A 
HETATM   11  C9    D T 600       2.969   3.149  -5.843  1.00 14.15     0.063 A 
HETATM   12  C10   D T 600       2.527   2.296  -4.754  1.00 14.71     0.078 A 
HETATM   13 CL16   D T 600       2.169   4.588  -6.129  1.00  1.00    -0.085 Cl
HETATM   14  C11   D T 600       3.288   1.006  -4.528  1.00 14.35     0.041 A 
HETATM   15  C12   D T 600       4.373   0.670  -5.356  1.00 18.52     0.009 A 
HETATM   16 CL15   D T 600       2.768   0.040  -3.253  1.00  1.63    -0.087 Cl
HETATM   17  C13   D T 600       4.836   1.422  -6.387  1.00 15.99     0.026 A 
ENDBRANCH   1  10
TORSDOF 2
ENDMDL
MODEL 6
REMARK VINA RESULT:    -7.169      3.296      6.001
REMARK INTER + INTRA:          -8.484
REMARK INTER:                  -8.387
REMARK INTRA:                  -0.097
REMARK UNBOUND:                -0.476
REMARK  2 active torsions:
REMARK  status: ('A' for Active; 'I' for Inactive)
REMARK    1  A    between atoms: C5_4  and  O7_13 
REMARK    2  A    between atoms: C8_10  and  O7_13 
ROOT
HETATM    1  O7    D T 600       6.206   2.365  -7.617  1.00 18.03    -0.309 OA
ENDROOT
BRANCH   1   2
HETATM    2  C5    D T 600       7.405   2.281  -6.888  1.00 18.33     0.099 A 
HETATM    3  C6    D T 600       7.488   2.575  -5.439  1.00 17.53     0.132 A 
HETATM    4  C1    D T 600       8.759   2.481  -4.724  1.00 16.53     0.089 A 
HETATM    5  O17   D T 600       6.367   2.947  -4.727  1.00 20.49    -0.193 OA
HETATM    6  C2    D T 600       9.939   2.092  -5.467  1.00 14.58     0.020 A 
HETATM    7  C3    D T 600       9.864   1.801  -6.895  1.00 14.14     0.041 A 
HETATM    8 CL14   D T 600      11.419   1.957  -4.718  1.00  1.00    -0.091 Cl
HETATM    9  C4    D T 600       8.596   1.896  -7.602  1.00 16.13     0.059 A 
ENDBRANCH   1   2
BRANCH   1  10
HETATM   10  C8    D T 600       6.161   2.300  -9.059  1.00 16.10     0.106 A 
HETATM   11  C9    D T 600       5.246   1.195  -9.654  1.00 14.15     0.063 A 
HETATM   12  C10   D T 600       5.153   1.050 -11.096  1.00 14.71     0.078 A 
HETATM   13 CL16   D T 600       4.375   0.162  -8.671  1.00  1.00    -0.085 Cl
HETATM   14  C11   D T 600       5.967   2.004 -11.946  1.00 14.35     0.041 A 
HETATM   15  C12   D T 600       6.769   2.985 -11.337  1.00 18.52     0.009 A 
HETATM   16 CL15   D T 600       5.855   1.809 -13.613  1.00  1.63    -0.087 Cl
HETATM   17  C13   D T 600       6.901   3.173  -9.999  1.00 15.99     0.026 A 
ENDBRANCH   1  10
TORSDOF 2
ENDMDL
MODEL 7
REMARK VINA RESULT:    -7.122      2.354      6.321
REMARK INTER + INTRA:          -8.431
REMARK INTER:                  -8.013
REMARK INTRA:                  -0.418
REMARK UNBOUND:                -0.476
REMARK  2 active torsions:
REMARK  status: ('A' for Active; 'I' for Inactive)
REMARK    1  A    between atoms: C5_4  and  O7_13 
REMARK    2  A    between atoms: C8_10  and  O7_13 
ROOT
HETATM    1  O7    D T 600       4.608   3.756  -7.617  1.00 18.03    -0.309 OA
ENDROOT
BRANCH   1   2
HETATM    2  C5    D T 600       4.145   2.919  -6.587  1.00 18.33     0.099 A 
HETATM    3  C6    D T 600       3.040   3.297  -5.679  1.00 17.53     0.132 A 
HETATM    4  C1    D T 600       2.597   2.397  -4.616  1.00 16.53     0.089 A 
HETATM    5  O17   D T 600       2.399   4.512  -5.810  1.00 20.49    -0.193 OA
HETATM    6  C2    D T 600       3.267   1.122  -4.472  1.00 14.58     0.020 A 
HETATM    7  C3    D T 600       4.358   0.743  -5.364  1.00 14.14     0.041 A 
HETATM    8 CL14   D T 600       2.813   0.042  -3.290  1.00  1.00    -0.091 Cl
HETATM    9  C4    D T 600       4.794   1.643  -6.421  1.00 16.13     0.059 A 
ENDBRANCH   1   2
BRANCH   1  10
HETATM   10  C8    D T 600       4.788   3.300  -8.975  1.00 16.10     0.106 A 
HETATM   11  C9    D T 600       6.257   3.052  -9.414  1.00 14.15     0.063 A 
HETATM   12  C10   D T 600       6.529   2.606 -10.768  1.00 14.71     0.078 A 
HETATM   13 CL16   D T 600       7.533   3.301  -8.364  1.00  1.00    -0.085 Cl
HETATM   14  C11   D T 600       5.341   2.402 -11.686  1.00 14.35     0.041 A 
HETATM   15  C12   D T 600       4.037   2.640 -11.219  1.00 18.52     0.009 A 
HETATM   16 CL15   D T 600       5.680   1.897 -13.255  1.00  1.63    -0.087 Cl
HETATM   17  C13   D T 600       3.715   3.059  -9.968  1.00 15.99     0.026 A 
ENDBRANCH   1  10
TORSDOF 2
ENDMDL
MODEL 8
REMARK VINA RESULT:    -6.969      2.251      2.714
REMARK INTER + INTRA:          -8.260
REMARK INTER:                  -7.792
REMARK INTRA:                  -0.468
REMARK UNBOUND:                -0.476
REMARK  2 active torsions:
REMARK  status: ('A' for Active; 'I' for Inactive)
REMARK    1  A    between atoms: C5_4  and  O7_13 
REMARK    2  A    between atoms: C8_10  and  O7_13 
ROOT
HETATM    1  O7    D T 600       4.734   3.759  -7.763  1.00 18.03    -0.309 OA
ENDROOT
BRANCH   1   2
HETATM    2  C5    D T 600       4.957   3.285  -9.068  1.00 18.33     0.099 A 
HETATM    3  C6    D T 600       3.915   3.301 -10.119  1.00 17.53     0.132 A 
HETATM    4  C1    D T 600       4.191   2.790 -11.460  1.00 16.53     0.089 A 
HETATM    5  O17   D T 600       2.655   3.798  -9.859  1.00 20.49    -0.193 OA
HETATM    6  C2    D T 600       5.511   2.266 -11.739  1.00 14.58     0.020 A 
HETATM    7  C3    D T 600       6.543   2.247 -10.706  1.00 14.14     0.041 A 
HETATM    8 CL14   D T 600       5.901   1.674 -13.245  1.00  1.00    -0.091 Cl
HETATM    9  C4    D T 600       6.263   2.757  -9.373  1.00 16.13     0.059 A 
ENDBRANCH   1   2
BRANCH   1  10
HETATM   10  C8    D T 600       4.163   2.940  -6.721  1.00 16.10     0.106 A 
HETATM   11  C9    D T 600       5.171   2.362  -5.691  1.00 14.15     0.063 A 
HETATM   12  C10   D T 600       4.683   1.516  -4.616  1.00 14.71     0.078 A 
HETATM   13 CL16   D T 600       6.808   2.682  -5.799  1.00  1.00    -0.085 Cl
HETATM   14  C11   D T 600       3.194   1.247  -4.564  1.00 14.35     0.041 A 
HETATM   15  C12   D T 600       2.338   1.810  -5.527  1.00 18.52     0.009 A 
HETATM   16 CL15   D T 600       2.652   0.253  -3.318  1.00  1.63    -0.087 Cl
HETATM   17  C13   D T 600       2.729   2.606  -6.555  1.00 15.99     0.026 A 
ENDBRANCH   1  10
TORSDOF 2
ENDMDL
MODEL 9
REMARK VINA RESULT:    -6.682      2.696      4.119
REMARK INTER + INTRA:          -7.940
REMARK INTER:                  -7.564
REMARK INTRA:                  -0.376
REMARK UNBOUND:                -0.476
REMARK  2 active torsions:
REMARK  status: ('A' for Active; 'I' for Inactive)
REMARK    1  A    between atoms: C5_4  and  O7_13 
REMARK    2  A    between atoms: C8_10  and  O7_13 
ROOT
HETATM    1  O7    D T 600       2.568   2.176  -5.727  1.00 18.03    -0.309 OA
ENDROOT
BRANCH   1   2
HETATM    2  C5    D T 600       3.238   1.820  -6.911  1.00 18.33     0.099 A 
HETATM    3  C6    D T 600       2.759   0.752  -7.817  1.00 17.53     0.132 A 
HETATM    4  C1    D T 600       3.493   0.412  -9.034  1.00 16.53     0.089 A 
HETATM    5  O17   D T 600       1.607   0.049  -7.535  1.00 20.49    -0.193 OA
HETATM    6  C2    D T 600       4.704   1.145  -9.334  1.00 14.58     0.020 A 
HETATM    7  C3    D T 600       5.182   2.199  -8.445  1.00 14.14     0.041 A 
HETATM    8 CL14   D T 600       5.589   0.818 -10.706  1.00  1.00    -0.091 Cl
HETATM    9  C4    D T 600       4.447   2.535  -7.235  1.00 16.13     0.059 A 
ENDBRANCH   1   2
BRANCH   1  10
HETATM   10  C8    D T 600       3.129   3.080  -4.752  1.00 16.10     0.106 A 
HETATM   11  C9    D T 600       2.707   4.568  -4.891  1.00 14.15     0.063 A 
HETATM   12  C10   D T 600       3.236   5.548  -3.960  1.00 14.71     0.078 A 
HETATM   13 CL16   D T 600       1.664   5.068  -6.098  1.00  1.00    -0.085 Cl
HETATM   14  C11   D T 600       4.184   5.049  -2.889  1.00 14.35     0.041 A 
HETATM   15  C12   D T 600       4.518   3.685  -2.819  1.00 18.52     0.009 A 
HETATM   16 CL15   D T 600       4.796   6.204  -1.829  1.00  1.63    -0.087 Cl
HETATM   17  C13   D T 600       4.060   2.720  -3.657  1.00 15.99     0.026 A 
ENDBRANCH   1  10
TORSDOF 2
ENDMDL
