MODEL 1
REMARK VINA RESULT:    -7.723      0.000      0.000
REMARK INTER + INTRA:          -9.009
REMARK INTER:                  -8.626
REMARK INTRA:                  -0.383
REMARK UNBOUND:                -0.383
REMARK  2 active torsions:
REMARK  status: ('A' for Active; 'I' for Inactive)
REMARK    1  A    between atoms: C5_4  and  O7_13 
REMARK    2  A    between atoms: C8_10  and  O7_13 
ROOT
HETATM    1  O7    D T 600       5.752   0.239  -7.568  1.00 18.03    -0.309 OA
ENDROOT
BRANCH   1   2
HETATM    2  C5    D T 600       5.009   1.138  -6.784  1.00 18.33     0.099 A 
HETATM    3  C6    D T 600       3.980   0.701  -5.814  1.00 17.53     0.132 A 
HETATM    4  C1    D T 600       3.227   1.674  -5.024  1.00 16.53     0.089 A 
HETATM    5  O17   D T 600       3.702  -0.638  -5.632  1.00 20.49    -0.193 OA
HETATM    6  C2    D T 600       3.513   3.080  -5.214  1.00 14.58     0.020 A 
HETATM    7  C3    D T 600       4.526   3.518  -6.169  1.00 14.14     0.041 A 
HETATM    8 CL14   D T 600       2.701   4.245  -4.345  1.00  1.00    -0.091 Cl
HETATM    9  C4    D T 600       5.273   2.544  -6.951  1.00 16.13     0.059 A 
ENDBRANCH   1   2
BRANCH   1  10
HETATM   10  C8    D T 600       6.245   0.571  -8.884  1.00 16.10     0.106 A 
HETATM   11  C9    D T 600       5.197   0.526 -10.028  1.00 14.15     0.063 A 
HETATM   12  C10   D T 600       5.611   0.833 -11.387  1.00 14.71     0.078 A 
HETATM   13 CL16   D T 600       3.602   0.120  -9.732  1.00  1.00    -0.085 Cl
HETATM   14  C11   D T 600       7.066   1.187 -11.605  1.00 14.35     0.041 A 
HETATM   15  C12   D T 600       7.960   1.215 -10.520  1.00 18.52     0.009 A 
HETATM   16 CL15   D T 600       7.527   1.525 -13.189  1.00  1.63    -0.087 Cl
HETATM   17  C13   D T 600       7.638   0.938  -9.231  1.00 15.99     0.026 A 
ENDBRANCH   1  10
TORSDOF 2
ENDMDL
MODEL 2
REMARK VINA RESULT:    -7.701      1.266      6.058
REMARK INTER + INTRA:          -8.985
REMARK INTER:                  -8.631
REMARK INTRA:                  -0.353
REMARK UNBOUND:                -0.383
REMARK  2 active torsions:
REMARK  status: ('A' for Active; 'I' for Inactive)
REMARK    1  A    between atoms: C5_4  and  O7_13 
REMARK    2  A    between atoms: C8_10  and  O7_13 
ROOT
HETATM    1  O7    D T 600       5.889   0.433  -7.635  1.00 18.03    -0.309 OA
ENDROOT
BRANCH   1   2
HETATM    2  C5    D T 600       6.244   0.673  -8.974  1.00 18.33     0.099 A 
HETATM    3  C6    D T 600       5.269   0.627 -10.086  1.00 17.53     0.132 A 
HETATM    4  C1    D T 600       5.686   0.876 -11.465  1.00 16.53     0.089 A 
HETATM    5  O17   D T 600       3.940   0.345  -9.850  1.00 20.49    -0.193 OA
HETATM    6  C2    D T 600       7.081   1.169 -11.718  1.00 14.58     0.020 A 
HETATM    7  C3    D T 600       8.048   1.216 -10.626  1.00 14.14     0.041 A 
HETATM    8 CL14   D T 600       7.628   1.471 -13.260  1.00  1.00    -0.091 Cl
HETATM    9  C4    D T 600       7.626   0.968  -9.255  1.00 16.13     0.059 A 
ENDBRANCH   1   2
BRANCH   1  10
HETATM   10  C8    D T 600       5.126   1.373  -6.848  1.00 16.10     0.106 A 
HETATM   11  C9    D T 600       4.086   0.751  -5.877  1.00 14.15     0.063 A 
HETATM   12  C10   D T 600       3.264   1.625  -5.058  1.00 14.71     0.078 A 
HETATM   13 CL16   D T 600       3.883  -0.904  -5.764  1.00  1.00    -0.085 Cl
HETATM   14  C11   D T 600       3.480   3.117  -5.203  1.00 14.35     0.041 A 
HETATM   15  C12   D T 600       4.445   3.611  -6.098  1.00 18.52     0.009 A 
HETATM   16 CL15   D T 600       2.508   4.112  -4.254  1.00  1.63    -0.087 Cl
HETATM   17  C13   D T 600       5.242   2.849  -6.891  1.00 15.99     0.026 A 
ENDBRANCH   1  10
TORSDOF 2
ENDMDL
MODEL 3
REMARK VINA RESULT:    -7.436      2.544      3.112
REMARK INTER + INTRA:          -8.688
REMARK INTER:                  -8.286
REMARK INTRA:                  -0.402
REMARK UNBOUND:                -0.383
REMARK  2 active torsions:
REMARK  status: ('A' for Active; 'I' for Inactive)
REMARK    1  A    between atoms: C5_4  and  O7_13 
REMARK    2  A    between atoms: C8_10  and  O7_13 
ROOT
HETATM    1  O7    D T 600       4.836   3.283  -7.528  1.00 18.03    -0.309 OA
ENDROOT
BRANCH   1   2
HETATM    2  C5    D T 600       4.490   2.507  -6.408  1.00 18.33     0.099 A 
HETATM    3  C6    D T 600       4.612   2.999  -5.017  1.00 17.53     0.132 A 
HETATM    4  C1    D T 600       4.246   2.153  -3.884  1.00 16.53     0.089 A 
HETATM    5  O17   D T 600       5.078   4.271  -4.756  1.00 20.49    -0.193 OA
HETATM    6  C2    D T 600       3.759   0.816  -4.153  1.00 14.58     0.020 A 
HETATM    7  C3    D T 600       3.637   0.324  -5.521  1.00 14.14     0.041 A 
HETATM    8 CL14   D T 600       3.317  -0.202  -2.913  1.00  1.00    -0.091 Cl
HETATM    9  C4    D T 600       4.001   1.172  -6.646  1.00 16.13     0.059 A 
ENDBRANCH   1   2
BRANCH   1  10
HETATM   10  C8    D T 600       5.446   2.721  -8.710  1.00 16.10     0.106 A 
HETATM   11  C9    D T 600       6.973   2.457  -8.620  1.00 14.15     0.063 A 
HETATM   12  C10   D T 600       7.670   1.907  -9.769  1.00 14.71     0.078 A 
HETATM   13 CL16   D T 600       7.835   2.803  -7.230  1.00  1.00    -0.085 Cl
HETATM   14  C11   D T 600       6.847   1.618 -11.007  1.00 14.35     0.041 A 
HETATM   15  C12   D T 600       5.465   1.876 -11.016  1.00 18.52     0.009 A 
HETATM   16 CL15   D T 600       7.678   0.993 -12.332  1.00  1.63    -0.087 Cl
HETATM   17  C13   D T 600       4.756   2.390  -9.979  1.00 15.99     0.026 A 
ENDBRANCH   1  10
TORSDOF 2
ENDMDL
MODEL 4
REMARK VINA RESULT:    -7.395      1.968      6.392
REMARK INTER + INTRA:          -8.643
REMARK INTER:                  -8.254
REMARK INTRA:                  -0.389
REMARK UNBOUND:                -0.383
REMARK  2 active torsions:
REMARK  status: ('A' for Active; 'I' for Inactive)
REMARK    1  A    between atoms: C5_4  and  O7_13 
REMARK    2  A    between atoms: C8_10  and  O7_13 
ROOT
HETATM    1  O7    D T 600       4.678   2.812  -7.547  1.00 18.03    -0.309 OA
ENDROOT
BRANCH   1   2
HETATM    2  C5    D T 600       5.432   2.359  -8.643  1.00 18.33     0.099 A 
HETATM    3  C6    D T 600       6.912   2.354  -8.655  1.00 17.53     0.132 A 
HETATM    4  C1    D T 600       7.654   1.879  -9.821  1.00 16.53     0.089 A 
HETATM    5  O17   D T 600       7.630   2.800  -7.565  1.00 20.49    -0.193 OA
HETATM    6  C2    D T 600       6.905   1.413 -10.969  1.00 14.58     0.020 A 
HETATM    7  C3    D T 600       5.446   1.416 -10.964  1.00 14.14     0.041 A 
HETATM    8 CL14   D T 600       7.682   0.852 -12.330  1.00  1.00    -0.091 Cl
HETATM    9  C4    D T 600       4.713   1.889  -9.799  1.00 16.13     0.059 A 
ENDBRANCH   1   2
BRANCH   1  10
HETATM   10  C8    D T 600       4.333   1.964  -6.430  1.00 16.10     0.106 A 
HETATM   11  C9    D T 600       3.664   2.676  -5.223  1.00 14.15     0.063 A 
HETATM   12  C10   D T 600       3.299   1.901  -4.051  1.00 14.71     0.078 A 
HETATM   13 CL16   D T 600       3.367   4.321  -5.240  1.00  1.00    -0.085 Cl
HETATM   14  C11   D T 600       3.596   0.416  -4.081  1.00 14.35     0.041 A 
HETATM   15  C12   D T 600       4.198  -0.164  -5.211  1.00 18.52     0.009 A 
HETATM   16 CL15   D T 600       3.176  -0.461  -2.707  1.00  1.63    -0.087 Cl
HETATM   17  C13   D T 600       4.565   0.504  -6.335  1.00 15.99     0.026 A 
ENDBRANCH   1  10
TORSDOF 2
ENDMDL
MODEL 5
REMARK VINA RESULT:    -7.260      2.417      6.465
REMARK INTER + INTRA:          -8.492
REMARK INTER:                  -8.023
REMARK INTRA:                  -0.469
REMARK UNBOUND:                -0.383
REMARK  2 active torsions:
REMARK  status: ('A' for Active; 'I' for Inactive)
REMARK    1  A    between atoms: C5_4  and  O7_13 
REMARK    2  A    between atoms: C8_10  and  O7_13 
ROOT
HETATM    1  O7    D T 600       4.039   1.716  -6.943  1.00 18.03    -0.309 OA
ENDROOT
BRANCH   1   2
HETATM    2  C5    D T 600       4.963   1.485  -7.976  1.00 18.33     0.099 A 
HETATM    3  C6    D T 600       5.313   2.507  -8.988  1.00 17.53     0.132 A 
HETATM    4  C1    D T 600       6.276   2.218 -10.049  1.00 16.53     0.089 A 
HETATM    5  O17   D T 600       4.734   3.759  -8.958  1.00 20.49    -0.193 OA
HETATM    6  C2    D T 600       6.883   0.905 -10.087  1.00 14.58     0.020 A 
HETATM    7  C3    D T 600       6.544  -0.107  -9.092  1.00 14.14     0.041 A 
HETATM    8 CL14   D T 600       7.994   0.506 -11.260  1.00  1.00    -0.091 Cl
HETATM    9  C4    D T 600       5.585   0.187  -8.037  1.00 16.13     0.059 A 
ENDBRANCH   1   2
BRANCH   1  10
HETATM   10  C8    D T 600       4.414   2.283  -5.669  1.00 16.10     0.106 A 
HETATM   11  C9    D T 600       4.384   1.308  -4.462  1.00 14.15     0.063 A 
HETATM   12  C10   D T 600       4.733   1.799  -3.140  1.00 14.71     0.078 A 
HETATM   13 CL16   D T 600       3.946  -0.295  -4.648  1.00  1.00    -0.085 Cl
HETATM   14  C11   D T 600       5.115   3.259  -3.021  1.00 14.35     0.041 A 
HETATM   15  C12   D T 600       5.127   4.084  -4.159  1.00 18.52     0.009 A 
HETATM   16 CL15   D T 600       5.502   3.810  -1.478  1.00  1.63    -0.087 Cl
HETATM   17  C13   D T 600       4.810   3.688  -5.418  1.00 15.99     0.026 A 
ENDBRANCH   1  10
TORSDOF 2
ENDMDL
MODEL 6
REMARK VINA RESULT:    -7.245      2.512      6.344
REMARK INTER + INTRA:          -8.475
REMARK INTER:                  -8.045
REMARK INTRA:                  -0.430
REMARK UNBOUND:                -0.383
REMARK  2 active torsions:
REMARK  status: ('A' for Active; 'I' for Inactive)
REMARK    1  A    between atoms: C5_4  and  O7_13 
REMARK    2  A    between atoms: C8_10  and  O7_13 
ROOT
HETATM    1  O7    D T 600       6.628   2.823  -7.524  1.00 18.03    -0.309 OA
ENDROOT
BRANCH   1   2
HETATM    2  C5    D T 600       6.759   2.449  -8.872  1.00 18.33     0.099 A 
HETATM    3  C6    D T 600       5.774   2.823  -9.912  1.00 17.53     0.132 A 
HETATM    4  C1    D T 600       5.949   2.405 -11.301  1.00 16.53     0.089 A 
HETATM    5  O17   D T 600       4.662   3.574  -9.594  1.00 20.49    -0.193 OA
HETATM    6  C2    D T 600       7.114   1.613 -11.639  1.00 14.58     0.020 A 
HETATM    7  C3    D T 600       8.089   1.241 -10.619  1.00 14.14     0.041 A 
HETATM    8 CL14   D T 600       7.384   1.107 -13.201  1.00  1.00    -0.091 Cl
HETATM    9  C4    D T 600       7.909   1.662  -9.237  1.00 16.13     0.059 A 
ENDBRANCH   1   2
BRANCH   1  10
HETATM   10  C8    D T 600       5.792   2.104  -6.591  1.00 16.10     0.106 A 
HETATM   11  C9    D T 600       6.522   1.075  -5.686  1.00 14.15     0.063 A 
HETATM   12  C10   D T 600       5.754   0.297  -4.729  1.00 14.71     0.078 A 
HETATM   13 CL16   D T 600       8.172   0.832  -5.800  1.00  1.00    -0.085 Cl
HETATM   14  C11   D T 600       4.262   0.547  -4.670  1.00 14.35     0.041 A 
HETATM   15  C12   D T 600       3.668   1.501  -5.514  1.00 18.52     0.009 A 
HETATM   16 CL15   D T 600       3.390  -0.375  -3.563  1.00  1.63    -0.087 Cl
HETATM   17  C13   D T 600       4.327   2.256  -6.430  1.00 15.99     0.026 A 
ENDBRANCH   1  10
TORSDOF 2
ENDMDL
MODEL 7
REMARK VINA RESULT:    -7.150      2.003      2.154
REMARK INTER + INTRA:          -8.369
REMARK INTER:                  -7.899
REMARK INTRA:                  -0.470
REMARK UNBOUND:                -0.383
REMARK  2 active torsions:
REMARK  status: ('A' for Active; 'I' for Inactive)
REMARK    1  A    between atoms: C5_4  and  O7_13 
REMARK    2  A    between atoms: C8_10  and  O7_13 
ROOT
HETATM    1  O7    D T 600       4.048   1.612  -7.283  1.00 18.03    -0.309 OA
ENDROOT
BRANCH   1   2
HETATM    2  C5    D T 600       4.384   2.011  -5.979  1.00 18.33     0.099 A 
HETATM    3  C6    D T 600       4.408   1.076  -4.831  1.00 17.53     0.132 A 
HETATM    4  C1    D T 600       4.757   1.540  -3.489  1.00 16.53     0.089 A 
HETATM    5  O17   D T 600       4.097  -0.257  -4.998  1.00 20.49    -0.193 OA
HETATM    6  C2    D T 600       5.081   2.939  -3.308  1.00 14.58     0.020 A 
HETATM    7  C3    D T 600       5.060   3.865  -4.435  1.00 14.14     0.041 A 
HETATM    8 CL14   D T 600       5.495   3.537  -1.811  1.00  1.00    -0.091 Cl
HETATM    9  C4    D T 600       4.712   3.398  -5.769  1.00 16.13     0.059 A 
ENDBRANCH   1   2
BRANCH   1  10
HETATM   10  C8    D T 600       5.040   1.293  -8.284  1.00 16.10     0.106 A 
HETATM   11  C9    D T 600       5.289   2.385  -9.359  1.00 14.15     0.063 A 
HETATM   12  C10   D T 600       6.259   2.140 -10.411  1.00 14.71     0.078 A 
HETATM   13 CL16   D T 600       4.453   3.832  -9.338  1.00  1.00    -0.085 Cl
HETATM   14  C11   D T 600       6.984   0.811 -10.392  1.00 14.35     0.041 A 
HETATM   15  C12   D T 600       6.714  -0.130  -9.383  1.00 18.52     0.009 A 
HETATM   16 CL15   D T 600       8.094   0.543 -11.629  1.00  1.63    -0.087 Cl
HETATM   17  C13   D T 600       5.819   0.036  -8.375  1.00 15.99     0.026 A 
ENDBRANCH   1  10
TORSDOF 2
ENDMDL
MODEL 8
REMARK VINA RESULT:    -6.940      2.390      3.199
REMARK INTER + INTRA:          -8.134
REMARK INTER:                  -7.751
REMARK INTRA:                  -0.383
REMARK UNBOUND:                -0.383
REMARK  2 active torsions:
REMARK  status: ('A' for Active; 'I' for Inactive)
REMARK    1  A    between atoms: C5_4  and  O7_13 
REMARK    2  A    between atoms: C8_10  and  O7_13 
ROOT
HETATM    1  O7    D T 600       3.593   2.108  -5.671  1.00 18.03    -0.309 OA
ENDROOT
BRANCH   1   2
HETATM    2  C5    D T 600       3.919   3.156  -4.792  1.00 18.33     0.099 A 
HETATM    3  C6    D T 600       4.640   2.944  -3.517  1.00 17.53     0.132 A 
HETATM    4  C1    D T 600       4.951   4.064  -2.632  1.00 16.53     0.089 A 
HETATM    5  O17   D T 600       5.035   1.680  -3.130  1.00 20.49    -0.193 OA
HETATM    6  C2    D T 600       4.536   5.392  -3.032  1.00 14.58     0.020 A 
HETATM    7  C3    D T 600       3.824   5.608  -4.288  1.00 14.14     0.041 A 
HETATM    8 CL14   D T 600       4.861   6.717  -2.079  1.00  1.00    -0.091 Cl
HETATM    9  C4    D T 600       3.519   4.489  -5.165  1.00 16.13     0.059 A 
ENDBRANCH   1   2
BRANCH   1  10
HETATM   10  C8    D T 600       4.454   1.702  -6.757  1.00 16.10     0.106 A 
HETATM   11  C9    D T 600       3.928   0.532  -7.632  1.00 14.15     0.063 A 
HETATM   12  C10   D T 600       4.738   0.050  -8.737  1.00 14.71     0.078 A 
HETATM   13 CL16   D T 600       2.455  -0.194  -7.320  1.00  1.00    -0.085 Cl
HETATM   14  C11   D T 600       6.068   0.734  -8.974  1.00 14.35     0.041 A 
HETATM   15  C12   D T 600       6.478   1.793  -8.146  1.00 18.52     0.009 A 
HETATM   16 CL15   D T 600       6.995   0.150 -10.252  1.00  1.63    -0.087 Cl
HETATM   17  C13   D T 600       5.771   2.289  -7.097  1.00 15.99     0.026 A 
ENDBRANCH   1  10
TORSDOF 2
ENDMDL
MODEL 9
REMARK VINA RESULT:    -6.924      2.415      2.931
REMARK INTER + INTRA:          -8.117
REMARK INTER:                  -7.694
REMARK INTRA:                  -0.423
REMARK UNBOUND:                -0.383
REMARK  2 active torsions:
REMARK  status: ('A' for Active; 'I' for Inactive)
REMARK    1  A    between atoms: C5_4  and  O7_13 
REMARK    2  A    between atoms: C8_10  and  O7_13 
ROOT
HETATM    1  O7    D T 600       6.166   0.887  -5.808  1.00 18.03    -0.309 OA
ENDROOT
BRANCH   1   2
HETATM    2  C5    D T 600       5.411   1.903  -5.199  1.00 18.33     0.099 A 
HETATM    3  C6    D T 600       5.917   2.718  -4.070  1.00 17.53     0.132 A 
HETATM    4  C1    D T 600       5.092   3.760  -3.464  1.00 16.53     0.089 A 
HETATM    5  O17   D T 600       7.182   2.511  -3.561  1.00 20.49    -0.193 OA
HETATM    6  C2    D T 600       3.762   3.979  -3.993  1.00 14.58     0.020 A 
HETATM    7  C3    D T 600       3.257   3.180  -5.105  1.00 14.14     0.041 A 
HETATM    8 CL14   D T 600       2.768   5.153  -3.358  1.00  1.00    -0.091 Cl
HETATM    9  C4    D T 600       4.084   2.144  -5.706  1.00 16.13     0.059 A 
ENDBRANCH   1   2
BRANCH   1  10
HETATM   10  C8    D T 600       6.399   0.832  -7.232  1.00 16.10     0.106 A 
HETATM   11  C9    D T 600       7.536   1.745  -7.765  1.00 14.15     0.063 A 
HETATM   12  C10   D T 600       7.828   1.763  -9.187  1.00 14.71     0.078 A 
HETATM   13 CL16   D T 600       8.424   2.718  -6.736  1.00  1.00    -0.085 Cl
HETATM   14  C11   D T 600       6.990   0.870 -10.079  1.00 14.35     0.041 A 
HETATM   15  C12   D T 600       5.980   0.063  -9.527  1.00 18.52     0.009 A 
HETATM   16 CL15   D T 600       7.337   0.916 -11.726  1.00  1.63    -0.087 Cl
HETATM   17  C13   D T 600       5.657   0.002  -8.210  1.00 15.99     0.026 A 
ENDBRANCH   1  10
TORSDOF 2
ENDMDL
