MODEL 1
REMARK VINA RESULT:    -7.642      0.000      0.000
REMARK INTER + INTRA:          -8.989
REMARK INTER:                  -8.535
REMARK INTRA:                  -0.453
REMARK UNBOUND:                -0.453
REMARK  2 active torsions:
REMARK  status: ('A' for Active; 'I' for Inactive)
REMARK    1  A    between atoms: C5_4  and  O7_13 
REMARK    2  A    between atoms: C8_10  and  O7_13 
ROOT
HETATM    1  O7    D T 600       6.798   1.153  -6.574  1.00 18.03    -0.309 OA
ENDROOT
BRANCH   1   2
HETATM    2  C5    D T 600       5.803   1.867  -5.887  1.00 18.33     0.099 A 
HETATM    3  C6    D T 600       4.572   1.231  -5.362  1.00 17.53     0.132 A 
HETATM    4  C1    D T 600       3.560   2.017  -4.658  1.00 16.53     0.089 A 
HETATM    5  O17   D T 600       4.349  -0.119  -5.527  1.00 20.49    -0.193 OA
HETATM    6  C2    D T 600       3.789   3.436  -4.485  1.00 14.58     0.020 A 
HETATM    7  C3    D T 600       5.000   4.069  -5.000  1.00 14.14     0.041 A 
HETATM    8 CL14   D T 600       2.685   4.392  -3.688  1.00  1.00    -0.091 Cl
HETATM    9  C4    D T 600       6.005   3.282  -5.698  1.00 16.13     0.059 A 
ENDBRANCH   1   2
BRANCH   1  10
HETATM   10  C8    D T 600       7.052   1.325  -7.985  1.00 16.10     0.106 A 
HETATM   11  C9    D T 600       8.364   2.071  -8.348  1.00 14.15     0.063 A 
HETATM   12  C10   D T 600       8.690   2.301  -9.746  1.00 14.71     0.078 A 
HETATM   13 CL16   D T 600       9.406   2.627  -7.165  1.00  1.00    -0.085 Cl
HETATM   14  C11   D T 600       7.711   1.786 -10.780  1.00 14.35     0.041 A 
HETATM   15  C12   D T 600       6.545   1.113 -10.379  1.00 18.52     0.009 A 
HETATM   16 CL15   D T 600       8.101   2.074 -12.392  1.00  1.63    -0.087 Cl
HETATM   17  C13   D T 600       6.182   0.868  -9.093  1.00 15.99     0.026 A 
ENDBRANCH   1  10
TORSDOF 2
ENDMDL
MODEL 2
REMARK VINA RESULT:    -7.633      1.587      6.382
REMARK INTER + INTRA:          -8.979
REMARK INTER:                  -8.508
REMARK INTRA:                  -0.471
REMARK UNBOUND:                -0.453
REMARK  2 active torsions:
REMARK  status: ('A' for Active; 'I' for Inactive)
REMARK    1  A    between atoms: C5_4  and  O7_13 
REMARK    2  A    between atoms: C8_10  and  O7_13 
ROOT
HETATM    1  O7    D T 600       6.910   1.117  -6.884  1.00 18.03    -0.309 OA
ENDROOT
BRANCH   1   2
HETATM    2  C5    D T 600       7.262   1.379  -8.219  1.00 18.33     0.099 A 
HETATM    3  C6    D T 600       8.482   2.128  -8.598  1.00 17.53     0.132 A 
HETATM    4  C1    D T 600       8.803   2.383 -10.001  1.00 16.53     0.089 A 
HETATM    5  O17   D T 600       9.346   2.606  -7.636  1.00 20.49    -0.193 OA
HETATM    6  C2    D T 600       7.898   1.885 -11.015  1.00 14.58     0.020 A 
HETATM    7  C3    D T 600       6.694   1.146 -10.648  1.00 14.14     0.041 A 
HETATM    8 CL14   D T 600       8.202   2.130 -12.633  1.00  1.00    -0.091 Cl
HETATM    9  C4    D T 600       6.379   0.894  -9.250  1.00 16.13     0.059 A 
ENDBRANCH   1   2
BRANCH   1  10
HETATM   10  C8    D T 600       5.964   1.924  -6.150  1.00 16.10     0.106 A 
HETATM   11  C9    D T 600       4.637   1.221  -5.762  1.00 14.15     0.063 A 
HETATM   12  C10   D T 600       3.622   1.966  -5.035  1.00 14.71     0.078 A 
HETATM   13 CL16   D T 600       4.341  -0.372  -6.171  1.00  1.00    -0.085 Cl
HETATM   14  C11   D T 600       3.932   3.409  -4.693  1.00 14.35     0.041 A 
HETATM   15  C12   D T 600       5.159   3.979  -5.072  1.00 18.52     0.009 A 
HETATM   16 CL15   D T 600       2.738   4.257  -3.862  1.00  1.63    -0.087 Cl
HETATM   17  C13   D T 600       6.146   3.340  -5.752  1.00 15.99     0.026 A 
ENDBRANCH   1  10
TORSDOF 2
ENDMDL
MODEL 3
REMARK VINA RESULT:    -7.583      1.564      2.018
REMARK INTER + INTRA:          -8.923
REMARK INTER:                  -8.527
REMARK INTRA:                  -0.396
REMARK UNBOUND:                -0.453
REMARK  2 active torsions:
REMARK  status: ('A' for Active; 'I' for Inactive)
REMARK    1  A    between atoms: C5_4  and  O7_13 
REMARK    2  A    between atoms: C8_10  and  O7_13 
ROOT
HETATM    1  O7    D T 600       6.207   0.800  -7.199  1.00 18.03    -0.309 OA
ENDROOT
BRANCH   1   2
HETATM    2  C5    D T 600       5.402   1.640  -6.413  1.00 18.33     0.099 A 
HETATM    3  C6    D T 600       4.275   1.140  -5.593  1.00 17.53     0.132 A 
HETATM    4  C1    D T 600       3.460   2.054  -4.795  1.00 16.53     0.089 A 
HETATM    5  O17   D T 600       3.963  -0.203  -5.563  1.00 20.49    -0.193 OA
HETATM    6  C2    D T 600       3.782   3.466  -4.824  1.00 14.58     0.020 A 
HETATM    7  C3    D T 600       4.891   3.965  -5.630  1.00 14.14     0.041 A 
HETATM    8 CL14   D T 600       2.903   4.564  -3.936  1.00  1.00    -0.091 Cl
HETATM    9  C4    D T 600       5.700   3.050  -6.422  1.00 16.13     0.059 A 
ENDBRANCH   1   2
BRANCH   1  10
HETATM   10  C8    D T 600       6.663   1.164  -8.520  1.00 16.10     0.106 A 
HETATM   11  C9    D T 600       5.587   1.135  -9.637  1.00 14.15     0.063 A 
HETATM   12  C10   D T 600       5.965   1.474 -11.000  1.00 14.71     0.078 A 
HETATM   13 CL16   D T 600       4.003   0.711  -9.312  1.00  1.00    -0.085 Cl
HETATM   14  C11   D T 600       7.413   1.843 -11.247  1.00 14.35     0.041 A 
HETATM   15  C12   D T 600       8.333   1.854 -10.185  1.00 18.52     0.009 A 
HETATM   16 CL15   D T 600       7.831   2.219 -12.834  1.00  1.63    -0.087 Cl
HETATM   17  C13   D T 600       8.045   1.547  -8.893  1.00 15.99     0.026 A 
ENDBRANCH   1  10
TORSDOF 2
ENDMDL
MODEL 4
REMARK VINA RESULT:    -7.422      2.121      6.314
REMARK INTER + INTRA:          -8.743
REMARK INTER:                  -8.341
REMARK INTRA:                  -0.401
REMARK UNBOUND:                -0.453
REMARK  2 active torsions:
REMARK  status: ('A' for Active; 'I' for Inactive)
REMARK    1  A    between atoms: C5_4  and  O7_13 
REMARK    2  A    between atoms: C8_10  and  O7_13 
ROOT
HETATM    1  O7    D T 600       6.193   3.553  -6.868  1.00 18.03    -0.309 OA
ENDROOT
BRANCH   1   2
HETATM    2  C5    D T 600       6.629   3.159  -8.143  1.00 18.33     0.099 A 
HETATM    3  C6    D T 600       7.993   2.643  -8.404  1.00 17.53     0.132 A 
HETATM    4  C1    D T 600       8.405   2.251  -9.751  1.00 16.53     0.089 A 
HETATM    5  O17   D T 600       8.910   2.520  -7.382  1.00 20.49    -0.193 OA
HETATM    6  C2    D T 600       7.446   2.379 -10.828  1.00 14.58     0.020 A 
HETATM    7  C3    D T 600       6.101   2.887 -10.578  1.00 14.14     0.041 A 
HETATM    8 CL14   D T 600       7.841   1.946 -12.385  1.00  1.00    -0.091 Cl
HETATM    9  C4    D T 600       5.695   3.275  -9.235  1.00 16.13     0.059 A 
ENDBRANCH   1   2
BRANCH   1  10
HETATM   10  C8    D T 600       5.552   2.646  -5.945  1.00 16.10     0.106 A 
HETATM   11  C9    D T 600       4.401   3.249  -5.097  1.00 14.15     0.063 A 
HETATM   12  C10   D T 600       3.711   2.409  -4.132  1.00 14.71     0.078 A 
HETATM   13 CL16   D T 600       3.942   4.848  -5.261  1.00  1.00    -0.085 Cl
HETATM   14  C11   D T 600       4.167   0.970  -4.014  1.00 14.35     0.041 A 
HETATM   15  C12   D T 600       5.214   0.490  -4.819  1.00 18.52     0.009 A 
HETATM   16 CL15   D T 600       3.364   0.019  -2.880  1.00  1.63    -0.087 Cl
HETATM   17  C13   D T 600       5.898   1.221  -5.736  1.00 15.99     0.026 A 
ENDBRANCH   1  10
TORSDOF 2
ENDMDL
MODEL 5
REMARK VINA RESULT:    -7.419      1.970      2.302
REMARK INTER + INTRA:          -8.739
REMARK INTER:                  -8.310
REMARK INTRA:                  -0.429
REMARK UNBOUND:                -0.453
REMARK  2 active torsions:
REMARK  status: ('A' for Active; 'I' for Inactive)
REMARK    1  A    between atoms: C5_4  and  O7_13 
REMARK    2  A    between atoms: C8_10  and  O7_13 
ROOT
HETATM    1  O7    D T 600       6.443   3.548  -6.673  1.00 18.03    -0.309 OA
ENDROOT
BRANCH   1   2
HETATM    2  C5    D T 600       5.652   2.790  -5.794  1.00 18.33     0.099 A 
HETATM    3  C6    D T 600       4.476   3.346  -5.087  1.00 17.53     0.132 A 
HETATM    4  C1    D T 600       3.686   2.520  -4.175  1.00 16.53     0.089 A 
HETATM    5  O17   D T 600       4.096   4.658  -5.269  1.00 20.49    -0.193 OA
HETATM    6  C2    D T 600       4.082   1.141  -3.978  1.00 14.58     0.020 A 
HETATM    7  C3    D T 600       5.240   0.588  -4.672  1.00 14.14     0.041 A 
HETATM    8 CL14   D T 600       3.227   0.140  -2.961  1.00  1.00    -0.091 Cl
HETATM    9  C4    D T 600       6.022   1.414  -5.579  1.00 16.13     0.059 A 
ENDBRANCH   1   2
BRANCH   1  10
HETATM   10  C8    D T 600       6.646   3.183  -8.056  1.00 16.10     0.106 A 
HETATM   11  C9    D T 600       8.043   2.602  -8.401  1.00 14.15     0.063 A 
HETATM   12  C10   D T 600       8.337   2.222  -9.773  1.00 14.71     0.078 A 
HETATM   13 CL16   D T 600       9.223   2.414  -7.232  1.00  1.00    -0.085 Cl
HETATM   14  C11   D T 600       7.241   2.419 -10.798  1.00 14.35     0.041 A 
HETATM   15  C12   D T 600       5.996   2.946 -10.412  1.00 18.52     0.009 A 
HETATM   16 CL15   D T 600       7.607   1.986 -12.383  1.00  1.63    -0.087 Cl
HETATM   17  C13   D T 600       5.659   3.320  -9.151  1.00 15.99     0.026 A 
ENDBRANCH   1  10
TORSDOF 2
ENDMDL
MODEL 6
REMARK VINA RESULT:    -7.362      8.738     10.893
REMARK INTER + INTRA:          -8.676
REMARK INTER:                  -8.246
REMARK INTRA:                  -0.430
REMARK UNBOUND:                -0.453
REMARK  2 active torsions:
REMARK  status: ('A' for Active; 'I' for Inactive)
REMARK    1  A    between atoms: C5_4  and  O7_13 
REMARK    2  A    between atoms: C8_10  and  O7_13 
ROOT
HETATM    1  O7    D T 600       6.409   5.729   3.342  1.00 18.03    -0.309 OA
ENDROOT
BRANCH   1   2
HETATM    2  C5    D T 600       7.131   4.631   3.839  1.00 18.33     0.099 A 
HETATM    3  C6    D T 600       6.522   3.590   4.699  1.00 17.53     0.132 A 
HETATM    4  C1    D T 600       7.315   2.468   5.199  1.00 16.53     0.089 A 
HETATM    5  O17   D T 600       5.191   3.653   5.051  1.00 20.49    -0.193 OA
HETATM    6  C2    D T 600       8.714   2.398   4.834  1.00 14.58     0.020 A 
HETATM    7  C3    D T 600       9.320   3.421   3.987  1.00 14.14     0.041 A 
HETATM    8 CL14   D T 600       9.677   1.147   5.360  1.00  1.00    -0.091 Cl
HETATM    9  C4    D T 600       8.526   4.535   3.491  1.00 16.13     0.059 A 
ENDBRANCH   1   2
BRANCH   1  10
HETATM   10  C8    D T 600       6.279   6.006   1.931  1.00 16.10     0.106 A 
HETATM   11  C9    D T 600       6.883   7.351   1.449  1.00 14.15     0.063 A 
HETATM   12  C10   D T 600       6.783   7.716   0.045  1.00 14.71     0.078 A 
HETATM   13 CL16   D T 600       7.638   8.398   2.511  1.00  1.00    -0.085 Cl
HETATM   14  C11   D T 600       6.084   6.739  -0.877  1.00 14.35     0.041 A 
HETATM   15  C12   D T 600       5.565   5.535  -0.372  1.00 18.52     0.009 A 
HETATM   16 CL15   D T 600       5.967   7.187  -2.495  1.00  1.63    -0.087 Cl
HETATM   17  C13   D T 600       5.624   5.137   0.925  1.00 15.99     0.026 A 
ENDBRANCH   1  10
TORSDOF 2
ENDMDL
MODEL 7
REMARK VINA RESULT:    -7.302      2.319      6.421
REMARK INTER + INTRA:          -8.609
REMARK INTER:                  -8.166
REMARK INTRA:                  -0.442
REMARK UNBOUND:                -0.453
REMARK  2 active torsions:
REMARK  status: ('A' for Active; 'I' for Inactive)
REMARK    1  A    between atoms: C5_4  and  O7_13 
REMARK    2  A    between atoms: C8_10  and  O7_13 
ROOT
HETATM    1  O7    D T 600       4.334   1.872  -7.489  1.00 18.03    -0.309 OA
ENDROOT
BRANCH   1   2
HETATM    2  C5    D T 600       5.232   1.919  -8.569  1.00 18.33     0.099 A 
HETATM    3  C6    D T 600       5.360   3.095  -9.460  1.00 17.53     0.132 A 
HETATM    4  C1    D T 600       6.304   3.095 -10.576  1.00 16.53     0.089 A 
HETATM    5  O17   D T 600       4.590   4.220  -9.260  1.00 20.49    -0.193 OA
HETATM    6  C2    D T 600       7.114   1.914 -10.791  1.00 14.58     0.020 A 
HETATM    7  C3    D T 600       6.993   0.752  -9.916  1.00 14.14     0.041 A 
HETATM    8 CL14   D T 600       8.215   1.844 -12.036  1.00  1.00    -0.091 Cl
HETATM    9  C4    D T 600       6.052   0.758  -8.806  1.00 16.13     0.059 A 
ENDBRANCH   1   2
BRANCH   1  10
HETATM   10  C8    D T 600       4.684   2.315  -6.160  1.00 16.10     0.106 A 
HETATM   11  C9    D T 600       4.559   1.250  -5.039  1.00 14.15     0.063 A 
HETATM   12  C10   D T 600       4.878   1.616  -3.669  1.00 14.71     0.078 A 
HETATM   13 CL16   D T 600       4.055  -0.309  -5.371  1.00  1.00    -0.085 Cl
HETATM   14  C11   D T 600       5.323   3.041  -3.417  1.00 14.35     0.041 A 
HETATM   15  C12   D T 600       5.419   3.952  -4.482  1.00 18.52     0.009 A 
HETATM   16 CL15   D T 600       5.674   3.447  -1.821  1.00  1.63    -0.087 Cl
HETATM   17  C13   D T 600       5.136   3.675  -5.781  1.00 15.99     0.026 A 
ENDBRANCH   1  10
TORSDOF 2
ENDMDL
MODEL 8
REMARK VINA RESULT:    -7.161      2.175      2.323
REMARK INTER + INTRA:          -8.451
REMARK INTER:                  -8.025
REMARK INTRA:                  -0.426
REMARK UNBOUND:                -0.453
REMARK  2 active torsions:
REMARK  status: ('A' for Active; 'I' for Inactive)
REMARK    1  A    between atoms: C5_4  and  O7_13 
REMARK    2  A    between atoms: C8_10  and  O7_13 
ROOT
HETATM    1  O7    D T 600       4.211   2.136  -6.798  1.00 18.03    -0.309 OA
ENDROOT
BRANCH   1   2
HETATM    2  C5    D T 600       4.569   2.444  -5.476  1.00 18.33     0.099 A 
HETATM    3  C6    D T 600       4.660   1.423  -4.407  1.00 17.53     0.132 A 
HETATM    4  C1    D T 600       5.031   1.791  -3.042  1.00 16.53     0.089 A 
HETATM    5  O17   D T 600       4.394   0.096  -4.673  1.00 20.49    -0.193 OA
HETATM    6  C2    D T 600       5.309   3.184  -2.758  1.00 14.58     0.020 A 
HETATM    7  C3    D T 600       5.222   4.195  -3.806  1.00 14.14     0.041 A 
HETATM    8 CL14   D T 600       5.745   3.677  -1.229  1.00  1.00    -0.091 Cl
HETATM    9  C4    D T 600       4.853   3.822  -5.164  1.00 16.13     0.059 A 
ENDBRANCH   1   2
BRANCH   1  10
HETATM   10  C8    D T 600       5.183   1.854  -7.828  1.00 16.10     0.106 A 
HETATM   11  C9    D T 600       5.551   3.044  -8.752  1.00 14.15     0.063 A 
HETATM   12  C10   D T 600       6.511   2.843  -9.825  1.00 14.71     0.078 A 
HETATM   13 CL16   D T 600       4.860   4.553  -8.549  1.00  1.00    -0.085 Cl
HETATM   14  C11   D T 600       7.105   1.458  -9.974  1.00 14.35     0.041 A 
HETATM   15  C12   D T 600       6.729   0.427  -9.096  1.00 18.52     0.009 A 
HETATM   16 CL15   D T 600       8.204   1.243 -11.231  1.00  1.63    -0.087 Cl
HETATM   17  C13   D T 600       5.839   0.549  -8.078  1.00 15.99     0.026 A 
ENDBRANCH   1  10
TORSDOF 2
ENDMDL
MODEL 9
REMARK VINA RESULT:    -6.968      2.532      3.521
REMARK INTER + INTRA:          -8.236
REMARK INTER:                  -7.864
REMARK INTRA:                  -0.372
REMARK UNBOUND:                -0.453
REMARK  2 active torsions:
REMARK  status: ('A' for Active; 'I' for Inactive)
REMARK    1  A    between atoms: C5_4  and  O7_13 
REMARK    2  A    between atoms: C8_10  and  O7_13 
ROOT
HETATM    1  O7    D T 600       3.868   2.570  -5.530  1.00 18.03    -0.309 OA
ENDROOT
BRANCH   1   2
HETATM    2  C5    D T 600       4.254   3.445  -4.500  1.00 18.33     0.099 A 
HETATM    3  C6    D T 600       4.884   2.981  -3.243  1.00 17.53     0.132 A 
HETATM    4  C1    D T 600       5.263   3.928  -2.196  1.00 16.53     0.089 A 
HETATM    5  O17   D T 600       5.129   1.642  -3.027  1.00 20.49    -0.193 OA
HETATM    6  C2    D T 600       5.006   5.336  -2.417  1.00 14.58     0.020 A 
HETATM    7  C3    D T 600       4.385   5.800  -3.654  1.00 14.14     0.041 A 
HETATM    8 CL14   D T 600       5.416   6.473  -1.274  1.00  1.00    -0.091 Cl
HETATM    9  C4    D T 600       4.011   4.852  -4.694  1.00 16.13     0.059 A 
ENDBRANCH   1   2
BRANCH   1  10
HETATM   10  C8    D T 600       4.744   2.208  -6.619  1.00 16.10     0.106 A 
HETATM   11  C9    D T 600       4.215   1.104  -7.572  1.00 14.15     0.063 A 
HETATM   12  C10   D T 600       5.040   0.669  -8.687  1.00 14.71     0.078 A 
HETATM   13 CL16   D T 600       2.719   0.395  -7.339  1.00  1.00    -0.085 Cl
HETATM   14  C11   D T 600       6.390   1.335  -8.852  1.00 14.35     0.041 A 
HETATM   15  C12   D T 600       6.803   2.333  -7.954  1.00 18.52     0.009 A 
HETATM   16 CL15   D T 600       7.335   0.807 -10.142  1.00  1.63    -0.087 Cl
HETATM   17  C13   D T 600       6.082   2.783  -6.894  1.00 15.99     0.026 A 
ENDBRANCH   1  10
TORSDOF 2
ENDMDL
