MODEL 1
REMARK VINA RESULT:    -2.192      0.000      0.000
REMARK INTER + INTRA:          -2.450
REMARK INTER:                  -2.384
REMARK INTRA:                  -0.067
REMARK UNBOUND:                -0.067
REMARK  3 active torsions:
REMARK  status: ('A' for Active; 'I' for Inactive)
REMARK    1  A    between atoms: N2_13  and  C19_21 
REMARK    2  A    between atoms: C24_26  and  C25_27 
REMARK    3  A    between atoms: C25_27  and  C26_28 
ROOT
HETATM    1  C25   D T4001      45.515  35.646  11.686  1.00267.77    -0.009 C 
ENDROOT
BRANCH   1   2
HETATM    2  C24   D T4001      46.137  34.510  11.681  1.00256.23    -0.026 C 
HETATM    3  C23   D T4001      46.449  33.103  12.588  1.00273.17     0.031 C 
ENDBRANCH   1   2
BRANCH   1   4
HETATM    4  C26   D T4001      46.028  36.912  11.273  1.00319.60    -0.026 C 
HETATM    5  C27   D T4001      45.393  37.972  10.564  1.00376.98     0.031 C 
ENDBRANCH   1   4
TORSDOF 3
ENDMDL
MODEL 2
REMARK VINA RESULT:    -2.004     16.675     17.661
REMARK INTER + INTRA:          -2.247
REMARK INTER:                  -2.173
REMARK INTRA:                  -0.074
REMARK UNBOUND:                -0.067
REMARK  3 active torsions:
REMARK  status: ('A' for Active; 'I' for Inactive)
REMARK    1  A    between atoms: N2_13  and  C19_21 
REMARK    2  A    between atoms: C24_26  and  C25_27 
REMARK    3  A    between atoms: C25_27  and  C26_28 
ROOT
HETATM    1  C25   D T4001      42.729  17.838  12.907  1.00267.77    -0.009 C 
ENDROOT
BRANCH   1   2
HETATM    2  C24   D T4001      43.958  18.180  12.683  1.00256.23    -0.026 C 
HETATM    3  C23   D T4001      45.241  19.158  13.231  1.00273.17     0.031 C 
ENDBRANCH   1   2
BRANCH   1   4
HETATM    4  C26   D T4001      41.598  18.702  13.005  1.00319.60    -0.026 C 
HETATM    5  C27   D T4001      40.441  18.608  13.829  1.00376.98     0.031 C 
ENDBRANCH   1   4
TORSDOF 3
ENDMDL
MODEL 3
REMARK VINA RESULT:    -1.982     14.004     16.607
REMARK INTER + INTRA:          -2.222
REMARK INTER:                  -2.135
REMARK INTRA:                  -0.088
REMARK UNBOUND:                -0.067
REMARK  3 active torsions:
REMARK  status: ('A' for Active; 'I' for Inactive)
REMARK    1  A    between atoms: N2_13  and  C19_21 
REMARK    2  A    between atoms: C24_26  and  C25_27 
REMARK    3  A    between atoms: C25_27  and  C26_28 
ROOT
HETATM    1  C25   D T4001      41.293  19.836  13.270  1.00267.77    -0.009 C 
ENDROOT
BRANCH   1   2
HETATM    2  C24   D T4001      42.040  20.894  13.293  1.00256.23    -0.026 C 
HETATM    3  C23   D T4001      42.131  22.531  12.832  1.00273.17     0.031 C 
ENDBRANCH   1   2
BRANCH   1   4
HETATM    4  C26   D T4001      41.720  18.481  13.140  1.00319.60    -0.026 C 
HETATM    5  C27   D T4001      42.995  17.951  12.795  1.00376.98     0.031 C 
ENDBRANCH   1   4
TORSDOF 3
ENDMDL
MODEL 4
REMARK VINA RESULT:    -1.972     16.000     17.459
REMARK INTER + INTRA:          -2.211
REMARK INTER:                  -2.086
REMARK INTRA:                  -0.125
REMARK UNBOUND:                -0.067
REMARK  3 active torsions:
REMARK  status: ('A' for Active; 'I' for Inactive)
REMARK    1  A    between atoms: N2_13  and  C19_21 
REMARK    2  A    between atoms: C24_26  and  C25_27 
REMARK    3  A    between atoms: C25_27  and  C26_28 
ROOT
HETATM    1  C25   D T4001      43.504  17.967  12.411  1.00267.77    -0.009 C 
ENDROOT
BRANCH   1   2
HETATM    2  C24   D T4001      42.366  17.888  13.026  1.00256.23    -0.026 C 
HETATM    3  C23   D T4001      40.973  18.763  13.469  1.00273.17     0.031 C 
ENDBRANCH   1   2
BRANCH   1   4
HETATM    4  C26   D T4001      44.718  18.521  12.913  1.00319.60    -0.026 C 
HETATM    5  C27   D T4001      45.029  19.858  13.290  1.00376.98     0.031 C 
ENDBRANCH   1   4
TORSDOF 3
ENDMDL
MODEL 5
REMARK VINA RESULT:    -1.922     14.668     16.656
REMARK INTER + INTRA:          -2.157
REMARK INTER:                  -2.032
REMARK INTRA:                  -0.125
REMARK UNBOUND:                -0.067
REMARK  3 active torsions:
REMARK  status: ('A' for Active; 'I' for Inactive)
REMARK    1  A    between atoms: N2_13  and  C19_21 
REMARK    2  A    between atoms: C24_26  and  C25_27 
REMARK    3  A    between atoms: C25_27  and  C26_28 
ROOT
HETATM    1  C25   D T4001      40.714  19.416  13.088  1.00267.77    -0.009 C 
ENDROOT
BRANCH   1   2
HETATM    2  C24   D T4001      41.597  18.487  13.277  1.00256.23    -0.026 C 
HETATM    3  C23   D T4001      43.099  17.881  12.751  1.00273.17     0.031 C 
ENDBRANCH   1   2
BRANCH   1   4
HETATM    4  C26   D T4001      40.766  20.763  13.556  1.00319.60    -0.026 C 
HETATM    5  C27   D T4001      41.671  21.812  13.230  1.00376.98     0.031 C 
ENDBRANCH   1   4
TORSDOF 3
ENDMDL
MODEL 6
REMARK VINA RESULT:    -1.913      1.517      3.341
REMARK INTER + INTRA:          -2.148
REMARK INTER:                  -2.012
REMARK INTRA:                  -0.136
REMARK UNBOUND:                -0.067
REMARK  3 active torsions:
REMARK  status: ('A' for Active; 'I' for Inactive)
REMARK    1  A    between atoms: N2_13  and  C19_21 
REMARK    2  A    between atoms: C24_26  and  C25_27 
REMARK    3  A    between atoms: C25_27  and  C26_28 
ROOT
HETATM    1  C25   D T4001      45.806  34.470  12.033  1.00267.77    -0.009 C 
ENDROOT
BRANCH   1   2
HETATM    2  C24   D T4001      45.823  35.524  11.280  1.00256.23    -0.026 C 
HETATM    3  C23   D T4001      45.956  37.222  11.284  1.00273.17     0.031 C 
ENDBRANCH   1   2
BRANCH   1   4
HETATM    4  C26   D T4001      44.736  34.022  12.864  1.00319.60    -0.026 C 
HETATM    5  C27   D T4001      43.557  34.699  13.285  1.00376.98     0.031 C 
ENDBRANCH   1   4
TORSDOF 3
ENDMDL
MODEL 7
REMARK VINA RESULT:    -1.866     12.652     13.480
REMARK INTER + INTRA:          -2.096
REMARK INTER:                  -1.982
REMARK INTRA:                  -0.114
REMARK UNBOUND:                -0.067
REMARK  3 active torsions:
REMARK  status: ('A' for Active; 'I' for Inactive)
REMARK    1  A    between atoms: N2_13  and  C19_21 
REMARK    2  A    between atoms: C24_26  and  C25_27 
REMARK    3  A    between atoms: C25_27  and  C26_28 
ROOT
HETATM    1  C25   D T4001      41.714  22.208  13.153  1.00267.77    -0.009 C 
ENDROOT
BRANCH   1   2
HETATM    2  C24   D T4001      42.905  22.459  12.712  1.00256.23    -0.026 C 
HETATM    3  C23   D T4001      44.349  23.303  13.037  1.00273.17     0.031 C 
ENDBRANCH   1   2
BRANCH   1   4
HETATM    4  C26   D T4001      40.516  22.925  12.858  1.00319.60    -0.026 C 
HETATM    5  C27   D T4001      40.075  24.200  13.311  1.00376.98     0.031 C 
ENDBRANCH   1   4
TORSDOF 3
ENDMDL
MODEL 8
REMARK VINA RESULT:    -1.790      5.771      7.385
REMARK INTER + INTRA:          -2.013
REMARK INTER:                  -1.891
REMARK INTRA:                  -0.123
REMARK UNBOUND:                -0.067
REMARK  3 active torsions:
REMARK  status: ('A' for Active; 'I' for Inactive)
REMARK    1  A    between atoms: N2_13  and  C19_21 
REMARK    2  A    between atoms: C24_26  and  C25_27 
REMARK    3  A    between atoms: C25_27  and  C26_28 
ROOT
HETATM    1  C25   D T4001      44.600  29.332   9.754  1.00267.77    -0.009 C 
ENDROOT
BRANCH   1   2
HETATM    2  C24   D T4001      45.036  30.127  10.680  1.00256.23    -0.026 C 
HETATM    3  C23   D T4001      45.689  30.187  12.252  1.00273.17     0.031 C 
ENDBRANCH   1   2
BRANCH   1   4
HETATM    4  C26   D T4001      45.262  28.187   9.219  1.00319.60    -0.026 C 
HETATM    5  C27   D T4001      46.077  27.214   9.864  1.00376.98     0.031 C 
ENDBRANCH   1   4
TORSDOF 3
ENDMDL
MODEL 9
REMARK VINA RESULT:    -1.777     12.714     13.552
REMARK INTER + INTRA:          -1.999
REMARK INTER:                  -1.921
REMARK INTRA:                  -0.079
REMARK UNBOUND:                -0.067
REMARK  3 active torsions:
REMARK  status: ('A' for Active; 'I' for Inactive)
REMARK    1  A    between atoms: N2_13  and  C19_21 
REMARK    2  A    between atoms: C24_26  and  C25_27 
REMARK    3  A    between atoms: C25_27  and  C26_28 
ROOT
HETATM    1  C25   D T4001      42.806  22.195  12.629  1.00267.77    -0.009 C 
ENDROOT
BRANCH   1   2
HETATM    2  C24   D T4001      41.596  22.349  13.065  1.00256.23    -0.026 C 
HETATM    3  C23   D T4001      40.224  23.358  13.006  1.00273.17     0.031 C 
ENDBRANCH   1   2
BRANCH   1   4
HETATM    4  C26   D T4001      43.940  23.005  12.930  1.00319.60    -0.026 C 
HETATM    5  C27   D T4001      45.203  23.095  12.278  1.00376.98     0.031 C 
ENDBRANCH   1   4
TORSDOF 3
ENDMDL
