MODEL 1
REMARK VINA RESULT:    -7.765      0.000      0.000
REMARK INTER + INTRA:          -9.040
REMARK INTER:                  -8.673
REMARK INTRA:                  -0.366
REMARK UNBOUND:                -0.366
REMARK  4 active torsions:
REMARK  status: ('A' for Active; 'I' for Inactive)
REMARK    1  A    between atoms: C5_4  and  O7_13 
REMARK    2  A    between atoms: C8_10  and  O7_13 
REMARK    3  A    between atoms: C5_21  and  O7_30 
REMARK    4  A    between atoms: C8_27  and  O7_30 
ROOT
HETATM    1  O7    D T 400       4.106   8.993  34.250  1.00 53.30    -0.304 OA
ENDROOT
BRANCH   1   2
HETATM    2  C5    D T 400       3.918   9.776  35.376  1.00 52.25     0.125 A 
HETATM    3  C6    D T 400       2.576  10.134  35.745  1.00 52.67     0.154 A 
HETATM    4  C1    D T 400       2.408  10.942  36.867  1.00 56.55     0.041 A 
HETATM    5  O17   D T 400       1.516   9.716  35.056  1.00 49.90    -0.188 OA
HETATM    6  C2    D T 400       3.524  11.391  37.580  1.00 54.31     0.060 A 
HETATM    7  C3    D T 400       4.833  11.030  37.206  1.00 52.92     0.014 A 
HETATM    8 CL14   D T 400       3.259  12.423  38.945  1.00 55.46    -0.082 Cl
HETATM    9  C4    D T 400       5.010  10.232  36.090  1.00 50.04     0.028 A 
ENDBRANCH   1   2
BRANCH   1  10
HETATM   10  C8    D T 400       3.804   7.581  34.283  1.00 54.37     0.111 A 
HETATM   11  C9    D T 400       3.020   7.055  33.202  1.00 54.35     0.081 A 
HETATM   12  C10   D T 400       2.634   5.747  33.032  1.00 53.50     0.025 A 
HETATM   13 CL16   D T 400       2.525   8.158  32.008  1.00 64.25    -0.080 Cl
HETATM   14  C11   D T 400       3.056   4.825  34.026  1.00 57.87     0.059 A 
HETATM   15  C12   D T 400       3.848   5.285  35.109  1.00 58.16     0.013 A 
HETATM   16 CL15   D T 400       2.653   3.148  33.992  1.00 56.65    -0.082 Cl
HETATM   17  C13   D T 400       4.214   6.663  35.253  1.00 55.40     0.026 A 
ENDBRANCH   1  10
TORSDOF 4
ENDMDL
MODEL 2
REMARK VINA RESULT:    -7.629      1.104      5.862
REMARK INTER + INTRA:          -8.887
REMARK INTER:                  -8.743
REMARK INTRA:                  -0.144
REMARK UNBOUND:                -0.366
REMARK  4 active torsions:
REMARK  status: ('A' for Active; 'I' for Inactive)
REMARK    1  A    between atoms: C5_4  and  O7_13 
REMARK    2  A    between atoms: C8_10  and  O7_13 
REMARK    3  A    between atoms: C5_21  and  O7_30 
REMARK    4  A    between atoms: C8_27  and  O7_30 
ROOT
HETATM    1  O7    D T 400       4.244   9.005  33.976  1.00 53.30    -0.304 OA
ENDROOT
BRANCH   1   2
HETATM    2  C5    D T 400       3.849   7.678  33.966  1.00 52.25     0.125 A 
HETATM    3  C6    D T 400       3.413   7.101  32.724  1.00 52.67     0.154 A 
HETATM    4  C1    D T 400       2.997   5.772  32.739  1.00 56.55     0.041 A 
HETATM    5  O17   D T 400       3.403   7.794  31.587  1.00 49.90    -0.188 OA
HETATM    6  C2    D T 400       2.996   5.053  33.937  1.00 54.31     0.060 A 
HETATM    7  C3    D T 400       3.428   5.631  35.147  1.00 52.92     0.014 A 
HETATM    8 CL14   D T 400       2.435   3.415  33.905  1.00 55.46    -0.082 Cl
HETATM    9  C4    D T 400       3.838   6.953  35.143  1.00 50.04     0.028 A 
ENDBRANCH   1   2
BRANCH   1  10
HETATM   10  C8    D T 400       4.114   9.797  35.176  1.00 54.37     0.111 A 
HETATM   11  C9    D T 400       2.789  10.203  35.552  1.00 54.35     0.081 A 
HETATM   12  C10   D T 400       2.442  10.942  36.656  1.00 53.50     0.025 A 
HETATM   13 CL16   D T 400       1.522   9.712  34.532  1.00 64.25    -0.080 Cl
HETATM   14  C11   D T 400       3.502  11.344  37.512  1.00 57.87     0.059 A 
HETATM   15  C12   D T 400       4.831  10.957  37.200  1.00 58.16     0.013 A 
HETATM   16 CL15   D T 400       3.262  12.292  38.933  1.00 56.65    -0.082 Cl
HETATM   17  C13   D T 400       5.147  10.197  36.027  1.00 55.40     0.026 A 
ENDBRANCH   1  10
TORSDOF 4
ENDMDL
MODEL 3
REMARK VINA RESULT:    -7.475      1.641      6.122
REMARK INTER + INTRA:          -8.715
REMARK INTER:                  -8.438
REMARK INTRA:                  -0.277
REMARK UNBOUND:                -0.366
REMARK  4 active torsions:
REMARK  status: ('A' for Active; 'I' for Inactive)
REMARK    1  A    between atoms: C5_4  and  O7_13 
REMARK    2  A    between atoms: C8_10  and  O7_13 
REMARK    3  A    between atoms: C5_21  and  O7_30 
REMARK    4  A    between atoms: C8_27  and  O7_30 
ROOT
HETATM    1  O7    D T 400       3.574   8.320  33.776  1.00 53.30    -0.304 OA
ENDROOT
BRANCH   1   2
HETATM    2  C5    D T 400       3.365   6.958  33.911  1.00 52.25     0.125 A 
HETATM    3  C6    D T 400       3.431   6.134  32.736  1.00 52.67     0.154 A 
HETATM    4  C1    D T 400       3.194   4.770  32.890  1.00 56.55     0.041 A 
HETATM    5  O17   D T 400       3.712   6.635  31.535  1.00 49.90    -0.188 OA
HETATM    6  C2    D T 400       2.887   4.250  34.150  1.00 54.31     0.060 A 
HETATM    7  C3    D T 400       2.827   5.071  35.293  1.00 52.92     0.014 A 
HETATM    8 CL14   D T 400       2.566   2.553  34.276  1.00 55.46    -0.082 Cl
HETATM    9  C4    D T 400       3.055   6.428  35.150  1.00 50.04     0.028 A 
ENDBRANCH   1   2
BRANCH   1  10
HETATM   10  C8    D T 400       3.415   9.200  34.909  1.00 54.37     0.111 A 
HETATM   11  C9    D T 400       4.607   9.585  35.611  1.00 54.35     0.081 A 
HETATM   12  C10   D T 400       4.682  10.420  36.699  1.00 53.50     0.025 A 
HETATM   13 CL16   D T 400       6.073   8.950  35.033  1.00 64.25    -0.080 Cl
HETATM   14  C11   D T 400       3.457  10.957  37.176  1.00 57.87     0.059 A 
HETATM   15  C12   D T 400       2.249  10.625  36.511  1.00 58.16     0.013 A 
HETATM   16 CL15   D T 400       3.352  12.007  38.541  1.00 56.65    -0.082 Cl
HETATM   17  C13   D T 400       2.217   9.737  35.387  1.00 55.40     0.026 A 
ENDBRANCH   1  10
TORSDOF 4
ENDMDL
MODEL 4
REMARK VINA RESULT:    -7.453      1.119      1.897
REMARK INTER + INTRA:          -8.691
REMARK INTER:                  -8.209
REMARK INTRA:                  -0.482
REMARK UNBOUND:                -0.366
REMARK  4 active torsions:
REMARK  status: ('A' for Active; 'I' for Inactive)
REMARK    1  A    between atoms: C5_4  and  O7_13 
REMARK    2  A    between atoms: C8_10  and  O7_13 
REMARK    3  A    between atoms: C5_21  and  O7_30 
REMARK    4  A    between atoms: C8_27  and  O7_30 
ROOT
HETATM    1  O7    D T 400       4.230   8.227  34.241  1.00 53.30    -0.304 OA
ENDROOT
BRANCH   1   2
HETATM    2  C5    D T 400       3.987   9.163  35.232  1.00 52.25     0.125 A 
HETATM    3  C6    D T 400       5.089   9.612  36.037  1.00 52.67     0.154 A 
HETATM    4  C1    D T 400       4.820  10.536  37.044  1.00 56.55     0.041 A 
HETATM    5  O17   D T 400       6.332   9.175  35.842  1.00 49.90    -0.188 OA
HETATM    6  C2    D T 400       3.512  10.981  37.254  1.00 54.31     0.060 A 
HETATM    7  C3    D T 400       2.442  10.533  36.455  1.00 52.92     0.014 A 
HETATM    8 CL14   D T 400       3.229  12.102  38.543  1.00 55.46    -0.082 Cl
HETATM    9  C4    D T 400       2.698   9.611  35.456  1.00 50.04     0.028 A 
ENDBRANCH   1   2
BRANCH   1  10
HETATM   10  C8    D T 400       4.054   6.819  34.507  1.00 54.37     0.111 A 
HETATM   11  C9    D T 400       3.053   6.130  33.744  1.00 54.35     0.081 A 
HETATM   12  C10   D T 400       2.734   4.796  33.827  1.00 53.50     0.025 A 
HETATM   13 CL16   D T 400       2.177   7.055  32.619  1.00 64.25    -0.080 Cl
HETATM   14  C11   D T 400       3.472   4.023  34.762  1.00 57.87     0.059 A 
HETATM   15  C12   D T 400       4.487   4.647  35.531  1.00 58.16     0.013 A 
HETATM   16 CL15   D T 400       3.201   2.338  35.020  1.00 56.65    -0.082 Cl
HETATM   17  C13   D T 400       4.774   6.046  35.421  1.00 55.40     0.026 A 
ENDBRANCH   1  10
TORSDOF 4
ENDMDL
MODEL 5
REMARK VINA RESULT:    -7.388      1.796      6.167
REMARK INTER + INTRA:          -8.618
REMARK INTER:                  -8.245
REMARK INTRA:                  -0.374
REMARK UNBOUND:                -0.366
REMARK  4 active torsions:
REMARK  status: ('A' for Active; 'I' for Inactive)
REMARK    1  A    between atoms: C5_4  and  O7_13 
REMARK    2  A    between atoms: C8_10  and  O7_13 
REMARK    3  A    between atoms: C5_21  and  O7_30 
REMARK    4  A    between atoms: C8_27  and  O7_30 
ROOT
HETATM    1  O7    D T 400       3.791   7.803  32.934  1.00 53.30    -0.304 OA
ENDROOT
BRANCH   1   2
HETATM    2  C5    D T 400       3.546   6.455  33.127  1.00 52.25     0.125 A 
HETATM    3  C6    D T 400       3.752   5.555  32.026  1.00 52.67     0.154 A 
HETATM    4  C1    D T 400       3.477   4.206  32.233  1.00 56.55     0.041 A 
HETATM    5  O17   D T 400       4.192   5.976  30.841  1.00 49.90    -0.188 OA
HETATM    6  C2    D T 400       3.002   3.770  33.473  1.00 54.31     0.060 A 
HETATM    7  C3    D T 400       2.806   4.664  34.544  1.00 52.92     0.014 A 
HETATM    8 CL14   D T 400       2.642   2.087  33.664  1.00 55.46    -0.082 Cl
HETATM    9  C4    D T 400       3.071   6.007  34.347  1.00 50.04     0.028 A 
ENDBRANCH   1   2
BRANCH   1  10
HETATM   10  C8    D T 400       4.168   8.644  34.046  1.00 54.37     0.111 A 
HETATM   11  C9    D T 400       3.161   9.522  34.573  1.00 54.35     0.081 A 
HETATM   12  C10   D T 400       3.303  10.388  35.629  1.00 53.50     0.025 A 
HETATM   13 CL16   D T 400       1.639   9.479  33.819  1.00 64.25    -0.080 Cl
HETATM   14  C11   D T 400       4.573  10.416  36.264  1.00 57.87     0.059 A 
HETATM   15  C12   D T 400       5.601   9.557  35.797  1.00 58.16     0.013 A 
HETATM   16 CL15   D T 400       4.944  11.453  37.592  1.00 56.65    -0.082 Cl
HETATM   17  C13   D T 400       5.412   8.680  34.680  1.00 55.40     0.026 A 
ENDBRANCH   1  10
TORSDOF 4
ENDMDL
MODEL 6
REMARK VINA RESULT:    -7.382      4.078      4.840
REMARK INTER + INTRA:          -8.611
REMARK INTER:                  -8.272
REMARK INTRA:                  -0.339
REMARK UNBOUND:                -0.366
REMARK  4 active torsions:
REMARK  status: ('A' for Active; 'I' for Inactive)
REMARK    1  A    between atoms: C5_4  and  O7_13 
REMARK    2  A    between atoms: C8_10  and  O7_13 
REMARK    3  A    between atoms: C5_21  and  O7_30 
REMARK    4  A    between atoms: C8_27  and  O7_30 
ROOT
HETATM    1  O7    D T 400       6.071   7.564  34.983  1.00 53.30    -0.304 OA
ENDROOT
BRANCH   1   2
HETATM    2  C5    D T 400       5.385   8.504  35.733  1.00 52.25     0.125 A 
HETATM    3  C6    D T 400       4.727   9.582  35.046  1.00 52.67     0.154 A 
HETATM    4  C1    D T 400       4.063  10.531  35.819  1.00 56.55     0.041 A 
HETATM    5  O17   D T 400       4.736   9.685  33.719  1.00 49.90    -0.188 OA
HETATM    6  C2    D T 400       4.067  10.426  37.213  1.00 54.31     0.060 A 
HETATM    7  C3    D T 400       4.716   9.363  37.872  1.00 52.92     0.014 A 
HETATM    8 CL14   D T 400       3.257  11.654  38.127  1.00 55.46    -0.082 Cl
HETATM    9  C4    D T 400       5.383   8.418  37.113  1.00 50.04     0.028 A 
ENDBRANCH   1   2
BRANCH   1  10
HETATM   10  C8    D T 400       7.513   7.508  35.023  1.00 54.37     0.111 A 
HETATM   11  C9    D T 400       8.130   6.273  34.627  1.00 54.35     0.081 A 
HETATM   12  C10   D T 400       9.478   6.011  34.578  1.00 53.50     0.025 A 
HETATM   13 CL16   D T 400       7.089   5.011  34.166  1.00 64.25    -0.080 Cl
HETATM   14  C11   D T 400      10.346   7.069  34.955  1.00 57.87     0.059 A 
HETATM   15  C12   D T 400       9.793   8.318  35.338  1.00 58.16     0.013 A 
HETATM   16 CL15   D T 400      12.065   6.921  34.974  1.00 56.65    -0.082 Cl
HETATM   17  C13   D T 400       8.379   8.540  35.389  1.00 55.40     0.026 A 
ENDBRANCH   1  10
TORSDOF 4
ENDMDL
MODEL 7
REMARK VINA RESULT:    -7.361      2.421      6.297
REMARK INTER + INTRA:          -8.588
REMARK INTER:                  -8.064
REMARK INTRA:                  -0.524
REMARK UNBOUND:                -0.366
REMARK  4 active torsions:
REMARK  status: ('A' for Active; 'I' for Inactive)
REMARK    1  A    between atoms: C5_4  and  O7_13 
REMARK    2  A    between atoms: C8_10  and  O7_13 
REMARK    3  A    between atoms: C5_21  and  O7_30 
REMARK    4  A    between atoms: C8_27  and  O7_30 
ROOT
HETATM    1  O7    D T 400       4.411   6.400  35.841  1.00 53.30    -0.304 OA
ENDROOT
BRANCH   1   2
HETATM    2  C5    D T 400       4.346   6.186  34.475  1.00 52.25     0.125 A 
HETATM    3  C6    D T 400       5.575   6.038  33.745  1.00 52.67     0.154 A 
HETATM    4  C1    D T 400       5.490   5.846  32.368  1.00 56.55     0.041 A 
HETATM    5  O17   D T 400       6.763   6.076  34.345  1.00 49.90    -0.188 OA
HETATM    6  C2    D T 400       4.241   5.820  31.741  1.00 54.31     0.060 A 
HETATM    7  C3    D T 400       3.045   5.965  32.470  1.00 52.92     0.014 A 
HETATM    8 CL14   D T 400       4.195   5.616  30.022  1.00 55.46    -0.082 Cl
HETATM    9  C4    D T 400       3.119   6.161  33.838  1.00 50.04     0.028 A 
ENDBRANCH   1   2
BRANCH   1  10
HETATM   10  C8    D T 400       4.286   7.735  36.378  1.00 54.37     0.111 A 
HETATM   11  C9    D T 400       3.082   8.040  37.098  1.00 54.35     0.081 A 
HETATM   12  C10   D T 400       2.767   9.235  37.698  1.00 53.50     0.025 A 
HETATM   13 CL16   D T 400       1.933   6.795  37.229  1.00 64.25    -0.080 Cl
HETATM   14  C11   D T 400       3.733  10.272  37.596  1.00 57.87     0.059 A 
HETATM   15  C12   D T 400       4.949  10.022  36.910  1.00 58.16     0.013 A 
HETATM   16 CL15   D T 400       3.507  11.844  38.269  1.00 56.65    -0.082 Cl
HETATM   17  C13   D T 400       5.226   8.763  36.286  1.00 55.40     0.026 A 
ENDBRANCH   1  10
TORSDOF 4
ENDMDL
MODEL 8
REMARK VINA RESULT:    -7.334      1.521      1.897
REMARK INTER + INTRA:          -8.557
REMARK INTER:                  -8.142
REMARK INTRA:                  -0.415
REMARK UNBOUND:                -0.366
REMARK  4 active torsions:
REMARK  status: ('A' for Active; 'I' for Inactive)
REMARK    1  A    between atoms: C5_4  and  O7_13 
REMARK    2  A    between atoms: C8_10  and  O7_13 
REMARK    3  A    between atoms: C5_21  and  O7_30 
REMARK    4  A    between atoms: C8_27  and  O7_30 
ROOT
HETATM    1  O7    D T 400       3.742   7.525  33.253  1.00 53.30    -0.304 OA
ENDROOT
BRANCH   1   2
HETATM    2  C5    D T 400       3.985   8.446  34.257  1.00 52.25     0.125 A 
HETATM    3  C6    D T 400       2.915   9.312  34.668  1.00 52.67     0.154 A 
HETATM    4  C1    D T 400       3.186  10.249  35.662  1.00 56.55     0.041 A 
HETATM    5  O17   D T 400       1.698   9.237  34.132  1.00 49.90    -0.188 OA
HETATM    6  C2    D T 400       4.469  10.334  36.212  1.00 54.31     0.060 A 
HETATM    7  C3    D T 400       5.508   9.477  35.800  1.00 52.92     0.014 A 
HETATM    8 CL14   D T 400       4.760  11.541  37.419  1.00 55.46    -0.082 Cl
HETATM    9  C4    D T 400       5.249   8.547  34.809  1.00 50.04     0.028 A 
ENDBRANCH   1   2
BRANCH   1  10
HETATM   10  C8    D T 400       3.449   6.149  33.580  1.00 54.37     0.111 A 
HETATM   11  C9    D T 400       3.665   5.172  32.550  1.00 54.35     0.081 A 
HETATM   12  C10   D T 400       3.465   3.817  32.652  1.00 53.50     0.025 A 
HETATM   13 CL16   D T 400       4.231   5.749  31.055  1.00 64.25    -0.080 Cl
HETATM   14  C11   D T 400       3.000   3.335  33.905  1.00 57.87     0.059 A 
HETATM   15  C12   D T 400       2.786   4.253  34.965  1.00 58.16     0.013 A 
HETATM   16 CL15   D T 400       2.675   1.670  34.216  1.00 56.65    -0.082 Cl
HETATM   17  C13   D T 400       2.993   5.661  34.807  1.00 55.40     0.026 A 
ENDBRANCH   1  10
TORSDOF 4
ENDMDL
MODEL 9
REMARK VINA RESULT:    -7.154      2.388      6.370
REMARK INTER + INTRA:          -8.357
REMARK INTER:                  -7.847
REMARK INTRA:                  -0.510
REMARK UNBOUND:                -0.366
REMARK  4 active torsions:
REMARK  status: ('A' for Active; 'I' for Inactive)
REMARK    1  A    between atoms: C5_4  and  O7_13 
REMARK    2  A    between atoms: C8_10  and  O7_13 
REMARK    3  A    between atoms: C5_21  and  O7_30 
REMARK    4  A    between atoms: C8_27  and  O7_30 
ROOT
HETATM    1  O7    D T 400       2.942   6.888  34.395  1.00 53.30    -0.304 OA
ENDROOT
BRANCH   1   2
HETATM    2  C5    D T 400       3.790   5.826  34.132  1.00 52.25     0.125 A 
HETATM    3  C6    D T 400       4.351   5.707  32.814  1.00 52.67     0.154 A 
HETATM    4  C1    D T 400       5.183   4.619  32.562  1.00 56.55     0.041 A 
HETATM    5  O17   D T 400       4.101   6.597  31.855  1.00 49.90    -0.188 OA
HETATM    6  C2    D T 400       5.432   3.680  33.567  1.00 54.31     0.060 A 
HETATM    7  C3    D T 400       4.876   3.811  34.854  1.00 52.92     0.014 A 
HETATM    8 CL14   D T 400       6.444   2.327  33.187  1.00 55.46    -0.082 Cl
HETATM    9  C4    D T 400       4.044   4.886  35.113  1.00 50.04     0.028 A 
ENDBRANCH   1   2
BRANCH   1  10
HETATM   10  C8    D T 400       3.438   8.072  35.057  1.00 54.37     0.111 A 
HETATM   11  C9    D T 400       3.039   8.274  36.421  1.00 54.35     0.081 A 
HETATM   12  C10   D T 400       3.405   9.318  37.235  1.00 53.50     0.025 A 
HETATM   13 CL16   D T 400       2.017   7.098  37.101  1.00 64.25    -0.080 Cl
HETATM   14  C11   D T 400       4.267  10.294  36.669  1.00 57.87     0.059 A 
HETATM   15  C12   D T 400       4.707  10.138  35.330  1.00 58.16     0.013 A 
HETATM   16 CL15   D T 400       4.817  11.685  37.530  1.00 56.65    -0.082 Cl
HETATM   17  C13   D T 400       4.286   9.039  34.513  1.00 55.40     0.026 A 
ENDBRANCH   1  10
TORSDOF 4
ENDMDL
