MODEL 1
REMARK VINA RESULT:      -7.9      0.000      0.000
REMARK  4 active torsions:
REMARK  status: ('A' for Active; 'I' for Inactive)
REMARK    1  A    between atoms: C5_4  and  O7_13 
REMARK    2  A    between atoms: C8_10  and  O7_13 
REMARK    3  A    between atoms: C5_21  and  O7_30 
REMARK    4  A    between atoms: C8_27  and  O7_30 
ROOT
HETATM    1  O7    D T 400       4.319   9.022  34.297  1.00 53.30    -0.304 OA
ENDROOT
BRANCH   1   2
HETATM    2  C5    D T 400       4.070   9.791  35.420  1.00 52.25     0.125 A 
HETATM    3  C6    D T 400       2.710  10.147  35.720  1.00 52.67     0.154 A 
HETATM    4  C1    D T 400       2.482  10.941  36.841  1.00 56.55     0.041 A 
HETATM    5  O17   D T 400       1.690   9.739  34.969  1.00 49.90    -0.188 OA
HETATM    6  C2    D T 400       3.557  11.379  37.620  1.00 54.31     0.060 A 
HETATM    7  C3    D T 400       4.885  11.020  37.314  1.00 52.92     0.014 A 
HETATM    8 CL14   D T 400       3.219  12.394  38.981  1.00 55.46    -0.082 Cl
HETATM    9  C4    D T 400       5.122  10.236  36.199  1.00 50.04     0.028 A 
ENDBRANCH   1   2
BRANCH   1  10
HETATM   10  C8    D T 400       3.876   7.649  34.239  1.00 54.37     0.111 A 
HETATM   11  C9    D T 400       3.281   7.206  33.009  1.00 54.35     0.081 A 
HETATM   12  C10   D T 400       2.808   5.945  32.737  1.00 53.50     0.025 A 
HETATM   13 CL16   D T 400       3.156   8.354  31.763  1.00 64.25    -0.080 Cl
HETATM   14  C11   D T 400       2.921   4.985  33.777  1.00 57.87     0.059 A 
HETATM   15  C12   D T 400       3.517   5.361  35.008  1.00 58.16     0.013 A 
HETATM   16 CL15   D T 400       2.366   3.358  33.626  1.00 56.65    -0.082 Cl
HETATM   17  C13   D T 400       3.982   6.694  35.252  1.00 55.40     0.026 A 
ENDBRANCH   1  10
TORSDOF 4
ENDMDL
MODEL 2
REMARK VINA RESULT:      -7.6      1.238      1.995
REMARK  4 active torsions:
REMARK  status: ('A' for Active; 'I' for Inactive)
REMARK    1  A    between atoms: C5_4  and  O7_13 
REMARK    2  A    between atoms: C8_10  and  O7_13 
REMARK    3  A    between atoms: C5_21  and  O7_30 
REMARK    4  A    between atoms: C8_27  and  O7_30 
ROOT
HETATM    1  O7    D T 400       4.428   8.188  34.231  1.00 53.30    -0.304 OA
ENDROOT
BRANCH   1   2
HETATM    2  C5    D T 400       4.175   9.126  35.217  1.00 52.25     0.125 A 
HETATM    3  C6    D T 400       5.257   9.535  36.069  1.00 52.67     0.154 A 
HETATM    4  C1    D T 400       4.977  10.462  37.070  1.00 56.55     0.041 A 
HETATM    5  O17   D T 400       6.492   9.060  35.922  1.00 49.90    -0.188 OA
HETATM    6  C2    D T 400       3.677  10.949  37.230  1.00 54.31     0.060 A 
HETATM    7  C3    D T 400       2.626  10.540  36.386  1.00 52.92     0.014 A 
HETATM    8 CL14   D T 400       3.377  12.071  38.514  1.00 55.46    -0.082 Cl
HETATM    9  C4    D T 400       2.893   9.615  35.392  1.00 50.04     0.028 A 
ENDBRANCH   1   2
BRANCH   1  10
HETATM   10  C8    D T 400       4.160   6.789  34.468  1.00 54.37     0.111 A 
HETATM   11  C9    D T 400       3.084   6.195  33.727  1.00 54.35     0.081 A 
HETATM   12  C10   D T 400       2.672   4.886  33.789  1.00 53.50     0.025 A 
HETATM   13 CL16   D T 400       2.237   7.212  32.661  1.00 64.25    -0.080 Cl
HETATM   14  C11   D T 400       3.387   4.036  34.673  1.00 57.87     0.059 A 
HETATM   15  C12   D T 400       4.472   4.564  35.418  1.00 58.16     0.013 A 
HETATM   16 CL15   D T 400       3.004   2.368  34.899  1.00 56.65    -0.082 Cl
HETATM   17  C13   D T 400       4.855   5.941  35.333  1.00 55.40     0.026 A 
ENDBRANCH   1  10
TORSDOF 4
ENDMDL
MODEL 3
REMARK VINA RESULT:      -7.6      1.598      6.071
REMARK  4 active torsions:
REMARK  status: ('A' for Active; 'I' for Inactive)
REMARK    1  A    between atoms: C5_4  and  O7_13 
REMARK    2  A    between atoms: C8_10  and  O7_13 
REMARK    3  A    between atoms: C5_21  and  O7_30 
REMARK    4  A    between atoms: C8_27  and  O7_30 
ROOT
HETATM    1  O7    D T 400       4.081   8.516  34.382  1.00 53.30    -0.304 OA
ENDROOT
BRANCH   1   2
HETATM    2  C5    D T 400       4.216   7.159  34.619  1.00 52.25     0.125 A 
HETATM    3  C6    D T 400       5.473   6.532  34.315  1.00 52.67     0.154 A 
HETATM    4  C1    D T 400       5.581   5.161  34.538  1.00 56.55     0.041 A 
HETATM    5  O17   D T 400       6.510   7.218  33.839  1.00 49.90    -0.188 OA
HETATM    6  C2    D T 400       4.486   4.442  35.025  1.00 54.31     0.060 A 
HETATM    7  C3    D T 400       3.261   5.072  35.320  1.00 52.92     0.014 A 
HETATM    8 CL14   D T 400       4.666   2.735  35.250  1.00 55.46    -0.082 Cl
HETATM    9  C4    D T 400       3.141   6.432  35.096  1.00 50.04     0.028 A 
ENDBRANCH   1   2
BRANCH   1  10
HETATM   10  C8    D T 400       4.016   9.448  35.483  1.00 54.37     0.111 A 
HETATM   11  C9    D T 400       2.738  10.037  35.767  1.00 54.35     0.081 A 
HETATM   12  C10   D T 400       2.453  10.930  36.772  1.00 53.50     0.025 A 
HETATM   13 CL16   D T 400       1.445   9.577  34.765  1.00 64.25    -0.080 Cl
HETATM   14  C11   D T 400       3.533  11.305  37.614  1.00 57.87     0.059 A 
HETATM   15  C12   D T 400       4.816  10.742  37.391  1.00 58.16     0.013 A 
HETATM   16 CL15   D T 400       3.372  12.428  38.914  1.00 56.65    -0.082 Cl
HETATM   17  C13   D T 400       5.069   9.825  36.320  1.00 55.40     0.026 A 
ENDBRANCH   1  10
TORSDOF 4
ENDMDL
MODEL 4
REMARK VINA RESULT:      -7.2      1.966      6.234
REMARK  4 active torsions:
REMARK  status: ('A' for Active; 'I' for Inactive)
REMARK    1  A    between atoms: C5_4  and  O7_13 
REMARK    2  A    between atoms: C8_10  and  O7_13 
REMARK    3  A    between atoms: C5_21  and  O7_30 
REMARK    4  A    between atoms: C8_27  and  O7_30 
ROOT
HETATM    1  O7    D T 400       3.789   7.189  33.298  1.00 53.30    -0.304 OA
ENDROOT
BRANCH   1   2
HETATM    2  C5    D T 400       3.632   5.865  33.667  1.00 52.25     0.125 A 
HETATM    3  C6    D T 400       4.232   4.848  32.848  1.00 52.67     0.154 A 
HETATM    4  C1    D T 400       4.043   3.520  33.223  1.00 56.55     0.041 A 
HETATM    5  O17   D T 400       4.950   5.144  31.766  1.00 49.90    -0.188 OA
HETATM    6  C2    D T 400       3.277   3.214  34.352  1.00 54.31     0.060 A 
HETATM    7  C3    D T 400       2.697   4.222  35.146  1.00 52.92     0.014 A 
HETATM    8 CL14   D T 400       3.045   1.545  34.751  1.00 55.46    -0.082 Cl
HETATM    9  C4    D T 400       2.874   5.543  34.779  1.00 50.04     0.028 A 
ENDBRANCH   1   2
BRANCH   1  10
HETATM   10  C8    D T 400       4.174   8.180  34.275  1.00 54.37     0.111 A 
HETATM   11  C9    D T 400       3.210   9.195  34.593  1.00 54.35     0.081 A 
HETATM   12  C10   D T 400       3.365  10.217  35.498  1.00 53.50     0.025 A 
HETATM   13 CL16   D T 400       1.724   9.121  33.772  1.00 64.25    -0.080 Cl
HETATM   14  C11   D T 400       4.604  10.271  36.189  1.00 57.87     0.059 A 
HETATM   15  C12   D T 400       5.588   9.284  35.929  1.00 58.16     0.013 A 
HETATM   16 CL15   D T 400       4.988  11.491  37.348  1.00 56.65    -0.082 Cl
HETATM   17  C13   D T 400       5.388   8.245  34.963  1.00 55.40     0.026 A 
ENDBRANCH   1  10
TORSDOF 4
ENDMDL
MODEL 5
REMARK VINA RESULT:      -7.2      2.085      2.326
REMARK  4 active torsions:
REMARK  status: ('A' for Active; 'I' for Inactive)
REMARK    1  A    between atoms: C5_4  and  O7_13 
REMARK    2  A    between atoms: C8_10  and  O7_13 
REMARK    3  A    between atoms: C5_21  and  O7_30 
REMARK    4  A    between atoms: C8_27  and  O7_30 
ROOT
HETATM    1  O7    D T 400       2.885   7.096  34.337  1.00 53.30    -0.304 OA
ENDROOT
BRANCH   1   2
HETATM    2  C5    D T 400       3.345   8.160  35.094  1.00 52.25     0.125 A 
HETATM    3  C6    D T 400       2.897   8.277  36.455  1.00 52.67     0.154 A 
HETATM    4  C1    D T 400       3.352   9.367  37.193  1.00 56.55     0.041 A 
HETATM    5  O17   D T 400       2.079   7.385  37.010  1.00 49.90    -0.188 OA
HETATM    6  C2    D T 400       4.199  10.309  36.603  1.00 54.31     0.060 A 
HETATM    7  C3    D T 400       4.631  10.179  35.268  1.00 52.92     0.014 A 
HETATM    8 CL14   D T 400       4.704  11.663  37.556  1.00 55.46    -0.082 Cl
HETATM    9  C4    D T 400       4.180   9.103  34.524  1.00 50.04     0.028 A 
ENDBRANCH   1   2
BRANCH   1  10
HETATM   10  C8    D T 400       3.699   5.916  34.166  1.00 54.37     0.111 A 
HETATM   11  C9    D T 400       4.277   5.703  32.869  1.00 54.35     0.081 A 
HETATM   12  C10   D T 400       5.089   4.660  32.496  1.00 53.50     0.025 A 
HETATM   13 CL16   D T 400       3.927   6.862  31.676  1.00 64.25    -0.080 Cl
HETATM   14  C11   D T 400       5.387   3.697  33.496  1.00 57.87     0.059 A 
HETATM   15  C12   D T 400       4.858   3.865  34.801  1.00 58.16     0.013 A 
HETATM   16 CL15   D T 400       6.373   2.310  33.210  1.00 56.65    -0.082 Cl
HETATM   17  C13   D T 400       4.002   4.963  35.140  1.00 55.40     0.026 A 
ENDBRANCH   1  10
TORSDOF 4
ENDMDL
MODEL 6
REMARK VINA RESULT:      -7.2      3.750      6.224
REMARK  4 active torsions:
REMARK  status: ('A' for Active; 'I' for Inactive)
REMARK    1  A    between atoms: C5_4  and  O7_13 
REMARK    2  A    between atoms: C8_10  and  O7_13 
REMARK    3  A    between atoms: C5_21  and  O7_30 
REMARK    4  A    between atoms: C8_27  and  O7_30 
ROOT
HETATM    1  O7    D T 400       5.387   7.778  35.709  1.00 53.30    -0.304 OA
ENDROOT
BRANCH   1   2
HETATM    2  C5    D T 400       6.756   7.607  35.602  1.00 52.25     0.125 A 
HETATM    3  C6    D T 400       7.375   7.809  34.321  1.00 52.67     0.154 A 
HETATM    4  C1    D T 400       8.750   7.610  34.228  1.00 56.55     0.041 A 
HETATM    5  O17   D T 400       6.676   8.177  33.248  1.00 49.90    -0.188 OA
HETATM    6  C2    D T 400       9.477   7.211  35.353  1.00 54.31     0.060 A 
HETATM    7  C3    D T 400       8.857   7.019  36.603  1.00 52.92     0.014 A 
HETATM    8 CL14   D T 400      11.178   6.943  35.173  1.00 55.46    -0.082 Cl
HETATM    9  C4    D T 400       7.490   7.208  36.704  1.00 50.04     0.028 A 
ENDBRANCH   1   2
BRANCH   1  10
HETATM   10  C8    D T 400       4.844   8.943  36.367  1.00 54.37     0.111 A 
HETATM   11  C9    D T 400       3.621   8.771  37.098  1.00 54.35     0.081 A 
HETATM   12  C10   D T 400       2.946   9.737  37.804  1.00 53.50     0.025 A 
HETATM   13 CL16   D T 400       2.942   7.213  37.097  1.00 64.25    -0.080 Cl
HETATM   14  C11   D T 400       3.519  11.036  37.811  1.00 57.87     0.059 A 
HETATM   15  C12   D T 400       4.737  11.261  37.120  1.00 58.16     0.013 A 
HETATM   16 CL15   D T 400       2.806  12.380  38.626  1.00 56.65    -0.082 Cl
HETATM   17  C13   D T 400       5.398  10.225  36.384  1.00 55.40     0.026 A 
ENDBRANCH   1  10
TORSDOF 4
ENDMDL
MODEL 7
REMARK VINA RESULT:      -7.1      2.229      2.875
REMARK  4 active torsions:
REMARK  status: ('A' for Active; 'I' for Inactive)
REMARK    1  A    between atoms: C5_4  and  O7_13 
REMARK    2  A    between atoms: C8_10  and  O7_13 
REMARK    3  A    between atoms: C5_21  and  O7_30 
REMARK    4  A    between atoms: C8_27  and  O7_30 
ROOT
HETATM    1  O7    D T 400       5.126   6.919  33.310  1.00 53.30    -0.304 OA
ENDROOT
BRANCH   1   2
HETATM    2  C5    D T 400       4.972   7.889  34.285  1.00 52.25     0.125 A 
HETATM    3  C6    D T 400       4.385   9.148  33.914  1.00 52.67     0.154 A 
HETATM    4  C1    D T 400       4.260  10.120  34.904  1.00 56.55     0.041 A 
HETATM    5  O17   D T 400       3.967   9.396  32.674  1.00 49.90    -0.188 OA
HETATM    6  C2    D T 400       4.714   9.861  36.201  1.00 54.31     0.060 A 
HETATM    7  C3    D T 400       5.285   8.621  36.550  1.00 52.92     0.014 A 
HETATM    8 CL14   D T 400       4.567  11.117  37.383  1.00 55.46    -0.082 Cl
HETATM    9  C4    D T 400       5.419   7.651  35.572  1.00 50.04     0.028 A 
ENDBRANCH   1   2
BRANCH   1  10
HETATM   10  C8    D T 400       4.404   5.672  33.399  1.00 54.37     0.111 A 
HETATM   11  C9    D T 400       5.176   4.487  33.647  1.00 54.35     0.081 A 
HETATM   12  C10   D T 400       4.691   3.208  33.782  1.00 53.50     0.025 A 
HETATM   13 CL16   D T 400       6.857   4.686  33.797  1.00 64.25    -0.080 Cl
HETATM   14  C11   D T 400       3.285   3.045  33.666  1.00 57.87     0.059 A 
HETATM   15  C12   D T 400       2.471   4.184  33.438  1.00 58.16     0.013 A 
HETATM   16 CL15   D T 400       2.497   1.515  33.787  1.00 56.65    -0.082 Cl
HETATM   17  C13   D T 400       3.023   5.497  33.289  1.00 55.40     0.026 A 
ENDBRANCH   1  10
TORSDOF 4
ENDMDL
MODEL 8
REMARK VINA RESULT:      -6.9      2.572      6.324
REMARK  4 active torsions:
REMARK  status: ('A' for Active; 'I' for Inactive)
REMARK    1  A    between atoms: C5_4  and  O7_13 
REMARK    2  A    between atoms: C8_10  and  O7_13 
REMARK    3  A    between atoms: C5_21  and  O7_30 
REMARK    4  A    between atoms: C8_27  and  O7_30 
ROOT
HETATM    1  O7    D T 400       2.898   6.113  33.892  1.00 53.30    -0.304 OA
ENDROOT
BRANCH   1   2
HETATM    2  C5    D T 400       3.655   4.957  33.964  1.00 52.25     0.125 A 
HETATM    3  C6    D T 400       3.238   3.919  34.866  1.00 52.67     0.154 A 
HETATM    4  C1    D T 400       4.026   2.773  34.942  1.00 56.55     0.041 A 
HETATM    5  O17   D T 400       2.139   4.028  35.610  1.00 49.90    -0.188 OA
HETATM    6  C2    D T 400       5.186   2.669  34.170  1.00 54.31     0.060 A 
HETATM    7  C3    D T 400       5.582   3.694  33.289  1.00 52.92     0.014 A 
HETATM    8 CL14   D T 400       6.148   1.238  34.331  1.00 55.46    -0.082 Cl
HETATM    9  C4    D T 400       4.809   4.839  33.210  1.00 50.04     0.028 A 
ENDBRANCH   1   2
BRANCH   1  10
HETATM   10  C8    D T 400       3.272   7.281  34.655  1.00 54.37     0.111 A 
HETATM   11  C9    D T 400       2.710   8.537  34.247  1.00 54.35     0.081 A 
HETATM   12  C10   D T 400       2.920   9.759  34.838  1.00 53.50     0.025 A 
HETATM   13 CL16   D T 400       1.673   8.509  32.900  1.00 64.25    -0.080 Cl
HETATM   14  C11   D T 400       3.779   9.779  35.969  1.00 57.87     0.059 A 
HETATM   15  C12   D T 400       4.350   8.564  36.429  1.00 58.16     0.013 A 
HETATM   16 CL15   D T 400       4.176  11.220  36.830  1.00 56.65    -0.082 Cl
HETATM   17  C13   D T 400       4.114   7.314  35.769  1.00 55.40     0.026 A 
ENDBRANCH   1  10
TORSDOF 4
ENDMDL
MODEL 9
REMARK VINA RESULT:      -6.8      3.138      4.649
REMARK  4 active torsions:
REMARK  status: ('A' for Active; 'I' for Inactive)
REMARK    1  A    between atoms: C5_4  and  O7_13 
REMARK    2  A    between atoms: C8_10  and  O7_13 
REMARK    3  A    between atoms: C5_21  and  O7_30 
REMARK    4  A    between atoms: C8_27  and  O7_30 
ROOT
HETATM    1  O7    D T 400       4.459   5.116  32.807  1.00 53.30    -0.304 OA
ENDROOT
BRANCH   1   2
HETATM    2  C5    D T 400       3.794   6.236  33.275  1.00 52.25     0.125 A 
HETATM    3  C6    D T 400       4.153   6.758  34.565  1.00 52.67     0.154 A 
HETATM    4  C1    D T 400       3.456   7.871  35.029  1.00 56.55     0.041 A 
HETATM    5  O17   D T 400       5.117   6.214  35.306  1.00 49.90    -0.188 OA
HETATM    6  C2    D T 400       2.435   8.431  34.255  1.00 54.31     0.060 A 
HETATM    7  C3    D T 400       2.096   7.909  32.992  1.00 52.92     0.014 A 
HETATM    8 CL14   D T 400       1.577   9.791  34.897  1.00 55.46    -0.082 Cl
HETATM    9  C4    D T 400       2.778   6.800  32.525  1.00 50.04     0.028 A 
ENDBRANCH   1   2
BRANCH   1  10
HETATM   10  C8    D T 400       4.084   3.799  33.265  1.00 54.37     0.111 A 
HETATM   11  C9    D T 400       5.142   2.933  33.703  1.00 54.35     0.081 A 
HETATM   12  C10   D T 400       5.006   1.654  34.186  1.00 53.50     0.025 A 
HETATM   13 CL16   D T 400       6.721   3.554  33.622  1.00 64.25    -0.080 Cl
HETATM   14  C11   D T 400       3.684   1.140  34.261  1.00 57.87     0.059 A 
HETATM   15  C12   D T 400       2.597   1.958  33.859  1.00 58.16     0.013 A 
HETATM   16 CL15   D T 400       3.318  -0.450  34.823  1.00 56.65    -0.082 Cl
HETATM   17  C13   D T 400       2.789   3.281  33.346  1.00 55.40     0.026 A 
ENDBRANCH   1  10
TORSDOF 4
ENDMDL
