MODEL 1
REMARK VINA RESULT:    -7.623      0.000      0.000
REMARK INTER + INTRA:          -9.046
REMARK INTER:                  -8.515
REMARK INTRA:                  -0.531
REMARK UNBOUND:                -0.531
REMARK  4 active torsions:
REMARK  status: ('A' for Active; 'I' for Inactive)
REMARK    1  A    between atoms: C5_4  and  O7_13 
REMARK    2  A    between atoms: C8_10  and  O7_13 
REMARK    3  A    between atoms: C5_21  and  O7_30 
REMARK    4  A    between atoms: C8_27  and  O7_30 
ROOT
HETATM    1  O7    D T 400       6.950   1.199  -6.715  1.00 53.30    -0.304 OA
ENDROOT
BRANCH   1   2
HETATM    2  C5    D T 400       5.974   1.897  -6.025  1.00 52.25     0.125 A 
HETATM    3  C6    D T 400       4.803   1.187  -5.588  1.00 52.67     0.154 A 
HETATM    4  C1    D T 400       3.821   1.912  -4.916  1.00 56.55     0.041 A 
HETATM    5  O17   D T 400       4.644  -0.117  -5.803  1.00 49.90    -0.188 OA
HETATM    6  C2    D T 400       3.985   3.283  -4.703  1.00 54.31     0.060 A 
HETATM    7  C3    D T 400       5.139   3.965  -5.137  1.00 52.92     0.014 A 
HETATM    8 CL14   D T 400       2.717   4.142  -3.896  1.00 55.46    -0.082 Cl
HETATM    9  C4    D T 400       6.118   3.255  -5.810  1.00 50.04     0.028 A 
ENDBRANCH   1   2
BRANCH   1  10
HETATM   10  C8    D T 400       7.100   1.369  -8.141  1.00 54.37     0.111 A 
HETATM   11  C9    D T 400       8.299   2.011  -8.600  1.00 54.35     0.081 A 
HETATM   12  C10   D T 400       8.646   2.259  -9.905  1.00 53.50     0.025 A 
HETATM   13 CL16   D T 400       9.404   2.509  -7.408  1.00 64.25    -0.080 Cl
HETATM   14  C11   D T 400       7.726   1.834 -10.900  1.00 57.87     0.059 A 
HETATM   15  C12   D T 400       6.531   1.178 -10.506  1.00 58.16     0.013 A 
HETATM   16 CL15   D T 400       7.981   2.074 -12.590  1.00 56.65    -0.082 Cl
HETATM   17  C13   D T 400       6.204   0.955  -9.130  1.00 55.40     0.026 A 
ENDBRANCH   1  10
TORSDOF 4
ENDMDL
MODEL 2
REMARK VINA RESULT:    -7.582      1.483      6.189
REMARK INTER + INTRA:          -9.000
REMARK INTER:                  -8.469
REMARK INTRA:                  -0.531
REMARK UNBOUND:                -0.531
REMARK  4 active torsions:
REMARK  status: ('A' for Active; 'I' for Inactive)
REMARK    1  A    between atoms: C5_4  and  O7_13 
REMARK    2  A    between atoms: C8_10  and  O7_13 
REMARK    3  A    between atoms: C5_21  and  O7_30 
REMARK    4  A    between atoms: C8_27  and  O7_30 
ROOT
HETATM    1  O7    D T 400       7.032   1.138  -6.829  1.00 53.30    -0.304 OA
ENDROOT
BRANCH   1   2
HETATM    2  C5    D T 400       7.279   1.323  -8.178  1.00 52.25     0.125 A 
HETATM    3  C6    D T 400       8.454   2.055  -8.565  1.00 52.67     0.154 A 
HETATM    4  C1    D T 400       8.673   2.251  -9.927  1.00 56.55     0.041 A 
HETATM    5  O17   D T 400       9.316   2.535  -7.672  1.00 49.90    -0.188 OA
HETATM    6  C2    D T 400       7.759   1.758 -10.862  1.00 54.31     0.060 A 
HETATM    7  C3    D T 400       6.613   1.041 -10.467  1.00 52.92     0.014 A 
HETATM    8 CL14   D T 400       8.062   2.063 -12.539  1.00 55.46    -0.082 Cl
HETATM    9  C4    D T 400       6.383   0.845  -9.116  1.00 50.04     0.028 A 
ENDBRANCH   1   2
BRANCH   1  10
HETATM   10  C8    D T 400       6.056   1.954  -6.147  1.00 54.37     0.111 A 
HETATM   11  C9    D T 400       4.851   1.306  -5.712  1.00 54.35     0.081 A 
HETATM   12  C10   D T 400       3.805   1.888  -5.038  1.00 53.50     0.025 A 
HETATM   13 CL16   D T 400       4.705  -0.351  -6.061  1.00 64.25    -0.080 Cl
HETATM   14  C11   D T 400       3.932   3.270  -4.739  1.00 57.87     0.059 A 
HETATM   15  C12   D T 400       5.110   3.960  -5.129  1.00 58.16     0.013 A 
HETATM   16 CL15   D T 400       2.717   4.176  -3.915  1.00 56.65    -0.082 Cl
HETATM   17  C13   D T 400       6.168   3.313  -5.845  1.00 55.40     0.026 A 
ENDBRANCH   1  10
TORSDOF 4
ENDMDL
MODEL 3
REMARK VINA RESULT:    -7.367      1.521      1.995
REMARK INTER + INTRA:          -8.760
REMARK INTER:                  -8.469
REMARK INTRA:                  -0.290
REMARK UNBOUND:                -0.531
REMARK  4 active torsions:
REMARK  status: ('A' for Active; 'I' for Inactive)
REMARK    1  A    between atoms: C5_4  and  O7_13 
REMARK    2  A    between atoms: C8_10  and  O7_13 
REMARK    3  A    between atoms: C5_21  and  O7_30 
REMARK    4  A    between atoms: C8_27  and  O7_30 
ROOT
HETATM    1  O7    D T 400       5.927   0.689  -7.049  1.00 53.30    -0.304 OA
ENDROOT
BRANCH   1   2
HETATM    2  C5    D T 400       5.237   1.611  -6.281  1.00 52.25     0.125 A 
HETATM    3  C6    D T 400       4.173   1.142  -5.437  1.00 52.67     0.154 A 
HETATM    4  C1    D T 400       3.475   2.089  -4.691  1.00 56.55     0.041 A 
HETATM    5  O17   D T 400       3.851  -0.147  -5.354  1.00 49.90    -0.188 OA
HETATM    6  C2    D T 400       3.807   3.443  -4.790  1.00 54.31     0.060 A 
HETATM    7  C3    D T 400       4.854   3.887  -5.621  1.00 52.92     0.014 A 
HETATM    8 CL14   D T 400       2.882   4.579  -3.868  1.00 55.46    -0.082 Cl
HETATM    9  C4    D T 400       5.550   2.955  -6.371  1.00 50.04     0.028 A 
ENDBRANCH   1   2
BRANCH   1  10
HETATM   10  C8    D T 400       6.441   1.057  -8.347  1.00 54.37     0.111 A 
HETATM   11  C9    D T 400       5.518   1.032  -9.446  1.00 54.35     0.081 A 
HETATM   12  C10   D T 400       5.792   1.357 -10.752  1.00 53.50     0.025 A 
HETATM   13 CL16   D T 400       3.924   0.560  -9.095  1.00 64.25    -0.080 Cl
HETATM   14  C11   D T 400       7.123   1.760 -11.042  1.00 57.87     0.059 A 
HETATM   15  C12   D T 400       8.074   1.820  -9.991  1.00 58.16     0.013 A 
HETATM   16 CL15   D T 400       7.659   2.188 -12.625  1.00 56.65    -0.082 Cl
HETATM   17  C13   D T 400       7.746   1.456  -8.646  1.00 55.40     0.026 A 
ENDBRANCH   1  10
TORSDOF 4
ENDMDL
MODEL 4
REMARK VINA RESULT:    -7.353      1.865      2.193
REMARK INTER + INTRA:          -8.744
REMARK INTER:                  -8.235
REMARK INTRA:                  -0.510
REMARK UNBOUND:                -0.531
REMARK  4 active torsions:
REMARK  status: ('A' for Active; 'I' for Inactive)
REMARK    1  A    between atoms: C5_4  and  O7_13 
REMARK    2  A    between atoms: C8_10  and  O7_13 
REMARK    3  A    between atoms: C5_21  and  O7_30 
REMARK    4  A    between atoms: C8_27  and  O7_30 
ROOT
HETATM    1  O7    D T 400       6.690   3.479  -6.683  1.00 53.30    -0.304 OA
ENDROOT
BRANCH   1   2
HETATM    2  C5    D T 400       5.890   2.720  -5.847  1.00 52.25     0.125 A 
HETATM    3  C6    D T 400       4.695   3.315  -5.313  1.00 52.67     0.154 A 
HETATM    4  C1    D T 400       3.916   2.543  -4.455  1.00 56.55     0.041 A 
HETATM    5  O17   D T 400       4.326   4.557  -5.619  1.00 49.90    -0.188 OA
HETATM    6  C2    D T 400       4.313   1.244  -4.126  1.00 54.31     0.060 A 
HETATM    7  C3    D T 400       5.486   0.674  -4.658  1.00 52.92     0.014 A 
HETATM    8 CL14   D T 400       3.326   0.343  -3.025  1.00 55.46    -0.082 Cl
HETATM    9  C4    D T 400       6.270   1.434  -5.507  1.00 50.04     0.028 A 
ENDBRANCH   1   2
BRANCH   1  10
HETATM   10  C8    D T 400       6.786   3.162  -8.088  1.00 54.37     0.111 A 
HETATM   11  C9    D T 400       8.020   2.588  -8.545  1.00 54.35     0.081 A 
HETATM   12  C10   D T 400       8.317   2.201  -9.829  1.00 53.50     0.025 A 
HETATM   13 CL16   D T 400       9.235   2.357  -7.379  1.00 64.25    -0.080 Cl
HETATM   14  C11   D T 400       7.298   2.386 -10.801  1.00 57.87     0.059 A 
HETATM   15  C12   D T 400       6.051   2.933 -10.403  1.00 58.16     0.013 A 
HETATM   16 CL15   D T 400       7.492   1.977 -12.466  1.00 56.65    -0.082 Cl
HETATM   17  C13   D T 400       5.793   3.337  -9.054  1.00 55.40     0.026 A 
ENDBRANCH   1  10
TORSDOF 4
ENDMDL
MODEL 5
REMARK VINA RESULT:    -7.305      2.102      6.116
REMARK INTER + INTRA:          -8.691
REMARK INTER:                  -8.194
REMARK INTRA:                  -0.497
REMARK UNBOUND:                -0.531
REMARK  4 active torsions:
REMARK  status: ('A' for Active; 'I' for Inactive)
REMARK    1  A    between atoms: C5_4  and  O7_13 
REMARK    2  A    between atoms: C8_10  and  O7_13 
REMARK    3  A    between atoms: C5_21  and  O7_30 
REMARK    4  A    between atoms: C8_27  and  O7_30 
ROOT
HETATM    1  O7    D T 400       6.671   3.333  -6.976  1.00 53.30    -0.304 OA
ENDROOT
BRANCH   1   2
HETATM    2  C5    D T 400       6.872   2.977  -8.299  1.00 52.25     0.125 A 
HETATM    3  C6    D T 400       8.149   2.438  -8.677  1.00 52.67     0.154 A 
HETATM    4  C1    D T 400       8.340   2.109 -10.018  1.00 56.55     0.041 A 
HETATM    5  O17   D T 400       9.128   2.248  -7.795  1.00 49.90    -0.188 OA
HETATM    6  C2    D T 400       7.315   2.322 -10.944  1.00 54.31     0.060 A 
HETATM    7  C3    D T 400       6.069   2.850 -10.557  1.00 52.92     0.014 A 
HETATM    8 CL14   D T 400       7.620   1.929 -12.602  1.00 55.46    -0.082 Cl
HETATM    9  C4    D T 400       5.871   3.186  -9.229  1.00 50.04     0.028 A 
ENDBRANCH   1   2
BRANCH   1  10
HETATM   10  C8    D T 400       5.989   2.435  -6.074  1.00 54.37     0.111 A 
HETATM   11  C9    D T 400       4.802   2.929  -5.434  1.00 54.35     0.081 A 
HETATM   12  C10   D T 400       3.999   2.242  -4.558  1.00 53.50     0.025 A 
HETATM   13 CL16   D T 400       4.341   4.522  -5.804  1.00 64.25    -0.080 Cl
HETATM   14  C11   D T 400       4.381   0.907  -4.257  1.00 57.87     0.059 A 
HETATM   15  C12   D T 400       5.536   0.360  -4.873  1.00 58.16     0.013 A 
HETATM   16 CL15   D T 400       3.507  -0.104  -3.166  1.00 56.65    -0.082 Cl
HETATM   17  C13   D T 400       6.353   1.121  -5.770  1.00 55.40     0.026 A 
ENDBRANCH   1  10
TORSDOF 4
ENDMDL
MODEL 6
REMARK VINA RESULT:    -7.041      3.229      4.462
REMARK INTER + INTRA:          -8.396
REMARK INTER:                  -8.318
REMARK INTRA:                  -0.078
REMARK UNBOUND:                -0.531
REMARK  4 active torsions:
REMARK  status: ('A' for Active; 'I' for Inactive)
REMARK    1  A    between atoms: C5_4  and  O7_13 
REMARK    2  A    between atoms: C8_10  and  O7_13 
REMARK    3  A    between atoms: C5_21  and  O7_30 
REMARK    4  A    between atoms: C8_27  and  O7_30 
ROOT
HETATM    1  O7    D T 400       7.720   2.061  -6.874  1.00 53.30    -0.304 OA
ENDROOT
BRANCH   1   2
HETATM    2  C5    D T 400       8.757   1.657  -6.052  1.00 52.25     0.125 A 
HETATM    3  C6    D T 400       8.566   1.712  -4.628  1.00 52.67     0.154 A 
HETATM    4  C1    D T 400       9.629   1.324  -3.817  1.00 56.55     0.041 A 
HETATM    5  O17   D T 400       7.419   2.114  -4.083  1.00 49.90    -0.188 OA
HETATM    6  C2    D T 400      10.836   0.916  -4.392  1.00 54.31     0.060 A 
HETATM    7  C3    D T 400      11.008   0.866  -5.789  1.00 52.92     0.014 A 
HETATM    8 CL14   D T 400      12.137   0.479  -3.336  1.00 55.46    -0.082 Cl
HETATM    9  C4    D T 400       9.959   1.255  -6.604  1.00 50.04     0.028 A 
ENDBRANCH   1   2
BRANCH   1  10
HETATM   10  C8    D T 400       7.889   2.080  -8.308  1.00 54.37     0.111 A 
HETATM   11  C9    D T 400       7.031   1.224  -9.078  1.00 54.35     0.081 A 
HETATM   12  C10   D T 400       7.014   1.099 -10.445  1.00 53.50     0.025 A 
HETATM   13 CL16   D T 400       5.918   0.277  -8.210  1.00 64.25    -0.080 Cl
HETATM   14  C11   D T 400       7.938   1.898 -11.169  1.00 57.87     0.059 A 
HETATM   15  C12   D T 400       8.800   2.775 -10.462  1.00 58.16     0.013 A 
HETATM   16 CL15   D T 400       8.077   1.862 -12.889  1.00 56.65    -0.082 Cl
HETATM   17  C13   D T 400       8.792   2.861  -9.032  1.00 55.40     0.026 A 
ENDBRANCH   1  10
TORSDOF 4
ENDMDL
MODEL 7
REMARK VINA RESULT:    -6.992      2.077      5.916
REMARK INTER + INTRA:          -8.341
REMARK INTER:                  -7.994
REMARK INTRA:                  -0.347
REMARK UNBOUND:                -0.531
REMARK  4 active torsions:
REMARK  status: ('A' for Active; 'I' for Inactive)
REMARK    1  A    between atoms: C5_4  and  O7_13 
REMARK    2  A    between atoms: C8_10  and  O7_13 
REMARK    3  A    between atoms: C5_21  and  O7_30 
REMARK    4  A    between atoms: C8_27  and  O7_30 
ROOT
HETATM    1  O7    D T 400       6.705   3.562  -6.986  1.00 53.30    -0.304 OA
ENDROOT
BRANCH   1   2
HETATM    2  C5    D T 400       6.988   3.182  -8.287  1.00 52.25     0.125 A 
HETATM    3  C6    D T 400       6.061   3.543  -9.324  1.00 52.67     0.154 A 
HETATM    4  C1    D T 400       6.351   3.131 -10.622  1.00 56.55     0.041 A 
HETATM    5  O17   D T 400       4.959   4.248  -9.075  1.00 49.90    -0.188 OA
HETATM    6  C2    D T 400       7.501   2.379 -10.878  1.00 54.31     0.060 A 
HETATM    7  C3    D T 400       8.401   2.034  -9.851  1.00 52.92     0.014 A 
HETATM    8 CL14   D T 400       7.793   1.862 -12.505  1.00 55.46    -0.082 Cl
HETATM    9  C4    D T 400       8.119   2.434  -8.557  1.00 50.04     0.028 A 
ENDBRANCH   1   2
BRANCH   1  10
HETATM   10  C8    D T 400       5.874   2.732  -6.147  1.00 54.37     0.111 A 
HETATM   11  C9    D T 400       6.538   1.931  -5.157  1.00 54.35     0.081 A 
HETATM   12  C10   D T 400       5.943   1.087  -4.253  1.00 53.50     0.025 A 
HETATM   13 CL16   D T 400       8.233   2.044  -5.094  1.00 64.25    -0.080 Cl
HETATM   14  C11   D T 400       4.526   1.000  -4.301  1.00 57.87     0.059 A 
HETATM   15  C12   D T 400       3.815   1.783  -5.247  1.00 58.16     0.013 A 
HETATM   16 CL15   D T 400       3.604  -0.019  -3.257  1.00 56.65    -0.082 Cl
HETATM   17  C13   D T 400       4.481   2.638  -6.182  1.00 55.40     0.026 A 
ENDBRANCH   1  10
TORSDOF 4
ENDMDL
MODEL 8
REMARK VINA RESULT:    -6.903      2.211      2.663
REMARK INTER + INTRA:          -8.242
REMARK INTER:                  -7.790
REMARK INTRA:                  -0.452
REMARK UNBOUND:                -0.531
REMARK  4 active torsions:
REMARK  status: ('A' for Active; 'I' for Inactive)
REMARK    1  A    between atoms: C5_4  and  O7_13 
REMARK    2  A    between atoms: C8_10  and  O7_13 
REMARK    3  A    between atoms: C5_21  and  O7_30 
REMARK    4  A    between atoms: C8_27  and  O7_30 
ROOT
HETATM    1  O7    D T 400       6.454   3.607  -6.548  1.00 53.30    -0.304 OA
ENDROOT
BRANCH   1   2
HETATM    2  C5    D T 400       5.724   2.804  -5.689  1.00 52.25     0.125 A 
HETATM    3  C6    D T 400       6.436   1.979  -4.751  1.00 52.67     0.154 A 
HETATM    4  C1    D T 400       5.685   1.160  -3.911  1.00 56.55     0.041 A 
HETATM    5  O17   D T 400       7.765   1.985  -4.669  1.00 49.90    -0.188 OA
HETATM    6  C2    D T 400       4.291   1.146  -4.009  1.00 54.31     0.060 A 
HETATM    7  C3    D T 400       3.608   1.961  -4.933  1.00 52.92     0.014 A 
HETATM    8 CL14   D T 400       3.410   0.081  -2.966  1.00 55.46    -0.082 Cl
HETATM    9  C4    D T 400       4.345   2.774  -5.775  1.00 50.04     0.028 A 
ENDBRANCH   1   2
BRANCH   1  10
HETATM   10  C8    D T 400       6.792   3.142  -7.872  1.00 54.37     0.111 A 
HETATM   11  C9    D T 400       6.028   3.670  -8.966  1.00 54.35     0.081 A 
HETATM   12  C10   D T 400       6.191   3.376 -10.297  1.00 53.50     0.025 A 
HETATM   13 CL16   D T 400       4.799   4.778  -8.575  1.00 64.25    -0.080 Cl
HETATM   14  C11   D T 400       7.224   2.457 -10.623  1.00 57.87     0.059 A 
HETATM   15  C12   D T 400       8.024   1.915  -9.584  1.00 58.16     0.013 A 
HETATM   16 CL15   D T 400       7.568   1.952 -12.236  1.00 56.65    -0.082 Cl
HETATM   17  C13   D T 400       7.805   2.241  -8.206  1.00 55.40     0.026 A 
ENDBRANCH   1  10
TORSDOF 4
ENDMDL
MODEL 9
REMARK VINA RESULT:    -6.827      2.794      3.834
REMARK INTER + INTRA:          -8.157
REMARK INTER:                  -7.740
REMARK INTRA:                  -0.417
REMARK UNBOUND:                -0.531
REMARK  4 active torsions:
REMARK  status: ('A' for Active; 'I' for Inactive)
REMARK    1  A    between atoms: C5_4  and  O7_13 
REMARK    2  A    between atoms: C8_10  and  O7_13 
REMARK    3  A    between atoms: C5_21  and  O7_30 
REMARK    4  A    between atoms: C8_27  and  O7_30 
ROOT
HETATM    1  O7    D T 400       3.888   2.575  -5.468  1.00 53.30    -0.304 OA
ENDROOT
BRANCH   1   2
HETATM    2  C5    D T 400       4.368   3.242  -4.354  1.00 52.25     0.125 A 
HETATM    3  C6    D T 400       4.170   4.663  -4.269  1.00 52.67     0.154 A 
HETATM    4  C1    D T 400       4.682   5.321  -3.152  1.00 56.55     0.041 A 
HETATM    5  O17   D T 400       3.522   5.346  -5.210  1.00 49.90    -0.188 OA
HETATM    6  C2    D T 400       5.374   4.603  -2.173  1.00 54.31     0.060 A 
HETATM    7  C3    D T 400       5.559   3.210  -2.270  1.00 52.92     0.014 A 
HETATM    8 CL14   D T 400       6.020   5.477  -0.825  1.00 55.46    -0.082 Cl
HETATM    9  C4    D T 400       5.059   2.549  -3.378  1.00 50.04     0.028 A 
ENDBRANCH   1   2
BRANCH   1  10
HETATM   10  C8    D T 400       4.769   2.262  -6.568  1.00 54.37     0.111 A 
HETATM   11  C9    D T 400       4.403   1.154  -7.405  1.00 54.35     0.081 A 
HETATM   12  C10   D T 400       5.085   0.698  -8.505  1.00 53.50     0.025 A 
HETATM   13 CL16   D T 400       2.975   0.327  -6.995  1.00 64.25    -0.080 Cl
HETATM   14  C11   D T 400       6.273   1.397  -8.851  1.00 57.87     0.059 A 
HETATM   15  C12   D T 400       6.675   2.511  -8.071  1.00 58.16     0.013 A 
HETATM   16 CL15   D T 400       7.272   0.960 -10.188  1.00 56.65    -0.082 Cl
HETATM   17  C13   D T 400       5.938   2.941  -6.921  1.00 55.40     0.026 A 
ENDBRANCH   1  10
TORSDOF 4
ENDMDL
