MODEL 1
REMARK VINA RESULT:    -7.581      0.000      0.000
REMARK INTER + INTRA:          -8.779
REMARK INTER:                  -8.467
REMARK INTRA:                  -0.312
REMARK UNBOUND:                -0.312
REMARK  4 active torsions:
REMARK  status: ('A' for Active; 'I' for Inactive)
REMARK    1  A    between atoms: C5_4  and  O7_13 
REMARK    2  A    between atoms: C8_10  and  O7_13 
REMARK    3  A    between atoms: C5_21  and  O7_30 
REMARK    4  A    between atoms: C8_27  and  O7_30 
ROOT
HETATM    1  O7    D T 400       4.494   0.771  -7.945  1.00 53.30    -0.304 OA
ENDROOT
BRANCH   1   2
HETATM    2  C5    D T 400       4.746   1.104  -9.265  1.00 52.25     0.125 A 
HETATM    3  C6    D T 400       3.669   1.016 -10.213  1.00 52.67     0.154 A 
HETATM    4  C1    D T 400       3.949   1.331 -11.540  1.00 56.55     0.041 A 
HETATM    5  O17   D T 400       2.440   0.652  -9.855  1.00 49.90    -0.188 OA
HETATM    6  C2    D T 400       5.245   1.699 -11.915  1.00 54.31     0.060 A 
HETATM    7  C3    D T 400       6.289   1.782 -10.974  1.00 52.92     0.014 A 
HETATM    8 CL14   D T 400       5.544   2.044 -13.585  1.00 55.46    -0.082 Cl
HETATM    9  C4    D T 400       6.024   1.466  -9.654  1.00 50.04     0.028 A 
ENDBRANCH   1   2
BRANCH   1  10
HETATM   10  C8    D T 400       3.735   1.663  -7.100  1.00 54.37     0.111 A 
HETATM   11  C9    D T 400       2.898   1.061  -6.100  1.00 54.35     0.081 A 
HETATM   12  C10   D T 400       2.110   1.719  -5.189  1.00 53.50     0.025 A 
HETATM   13 CL16   D T 400       2.886  -0.638  -6.034  1.00 64.25    -0.080 Cl
HETATM   14  C11   D T 400       2.127   3.138  -5.239  1.00 57.87     0.059 A 
HETATM   15  C12   D T 400       2.950   3.788  -6.194  1.00 58.16     0.013 A 
HETATM   16 CL15   D T 400       1.189   4.133  -4.188  1.00 56.65    -0.082 Cl
HETATM   17  C13   D T 400       3.744   3.058  -7.137  1.00 55.40     0.026 A 
ENDBRANCH   1  10
TORSDOF 4
ENDMDL
MODEL 2
REMARK VINA RESULT:    -7.550      1.293      2.003
REMARK INTER + INTRA:          -8.744
REMARK INTER:                  -8.213
REMARK INTRA:                  -0.532
REMARK UNBOUND:                -0.312
REMARK  4 active torsions:
REMARK  status: ('A' for Active; 'I' for Inactive)
REMARK    1  A    between atoms: C5_4  and  O7_13 
REMARK    2  A    between atoms: C8_10  and  O7_13 
REMARK    3  A    between atoms: C5_21  and  O7_30 
REMARK    4  A    between atoms: C8_27  and  O7_30 
ROOT
HETATM    1  O7    D T 400       5.671   1.604  -7.617  1.00 53.30    -0.304 OA
ENDROOT
BRANCH   1   2
HETATM    2  C5    D T 400       5.717   1.683  -8.998  1.00 52.25     0.125 A 
HETATM    3  C6    D T 400       6.665   2.578  -9.604  1.00 52.67     0.154 A 
HETATM    4  C1    D T 400       6.679   2.661 -10.994  1.00 56.55     0.041 A 
HETATM    5  O17   D T 400       7.511   3.307  -8.880  1.00 49.90    -0.188 OA
HETATM    6  C2    D T 400       5.779   1.903 -11.750  1.00 54.31     0.060 A 
HETATM    7  C3    D T 400       4.857   1.030 -11.143  1.00 52.92     0.014 A 
HETATM    8 CL14   D T 400       5.816   2.074 -13.472  1.00 55.46    -0.082 Cl
HETATM    9  C4    D T 400       4.830   0.944  -9.762  1.00 50.04     0.028 A 
ENDBRANCH   1   2
BRANCH   1  10
HETATM   10  C8    D T 400       4.608   2.250  -6.883  1.00 54.37     0.111 A 
HETATM   11  C9    D T 400       3.655   1.399  -6.228  1.00 54.35     0.081 A 
HETATM   12  C10   D T 400       2.583   1.803  -5.471  1.00 53.50     0.025 A 
HETATM   13 CL16   D T 400       3.880  -0.276  -6.401  1.00 64.25    -0.080 Cl
HETATM   14  C11   D T 400       2.401   3.203  -5.319  1.00 57.87     0.059 A 
HETATM   15  C12   D T 400       3.323   4.092  -5.930  1.00 58.16     0.013 A 
HETATM   16 CL15   D T 400       1.102   3.897  -4.422  1.00 56.65    -0.082 Cl
HETATM   17  C13   D T 400       4.419   3.624  -6.725  1.00 55.40     0.026 A 
ENDBRANCH   1  10
TORSDOF 4
ENDMDL
MODEL 3
REMARK VINA RESULT:    -7.520      1.774      6.177
REMARK INTER + INTRA:          -8.711
REMARK INTER:                  -8.182
REMARK INTRA:                  -0.529
REMARK UNBOUND:                -0.312
REMARK  4 active torsions:
REMARK  status: ('A' for Active; 'I' for Inactive)
REMARK    1  A    between atoms: C5_4  and  O7_13 
REMARK    2  A    between atoms: C8_10  and  O7_13 
REMARK    3  A    between atoms: C5_21  and  O7_30 
REMARK    4  A    between atoms: C8_27  and  O7_30 
ROOT
HETATM    1  O7    D T 400       5.633   1.534  -7.202  1.00 53.30    -0.304 OA
ENDROOT
BRANCH   1   2
HETATM    2  C5    D T 400       4.558   2.030  -6.486  1.00 52.25     0.125 A 
HETATM    3  C6    D T 400       3.590   1.103  -5.968  1.00 52.67     0.154 A 
HETATM    4  C1    D T 400       2.503   1.624  -5.271  1.00 56.55     0.041 A 
HETATM    5  O17   D T 400       3.713  -0.213  -6.133  1.00 49.90    -0.188 OA
HETATM    6  C2    D T 400       2.371   3.007  -5.110  1.00 54.31     0.060 A 
HETATM    7  C3    D T 400       3.328   3.903  -5.623  1.00 52.92     0.014 A 
HETATM    8 CL14   D T 400       0.981   3.601  -4.268  1.00 55.46    -0.082 Cl
HETATM    9  C4    D T 400       4.410   3.396  -6.322  1.00 50.04     0.028 A 
ENDBRANCH   1   2
BRANCH   1  10
HETATM   10  C8    D T 400       5.627   1.565  -8.646  1.00 54.37     0.111 A 
HETATM   11  C9    D T 400       6.561   2.449  -9.283  1.00 54.35     0.081 A 
HETATM   12  C10   D T 400       6.731   2.623 -10.635  1.00 53.50     0.025 A 
HETATM   13 CL16   D T 400       7.563   3.369  -8.264  1.00 64.25    -0.080 Cl
HETATM   14  C11   D T 400       5.900   1.848 -11.486  1.00 57.87     0.059 A 
HETATM   15  C12   D T 400       4.970   0.944 -10.911  1.00 58.16     0.013 A 
HETATM   16 CL15   D T 400       5.956   1.945 -13.208  1.00 56.65    -0.082 Cl
HETATM   17  C13   D T 400       4.817   0.808  -9.494  1.00 55.40     0.026 A 
ENDBRANCH   1  10
TORSDOF 4
ENDMDL
MODEL 4
REMARK VINA RESULT:    -7.509      3.962      6.526
REMARK INTER + INTRA:          -8.699
REMARK INTER:                  -8.612
REMARK INTRA:                  -0.087
REMARK UNBOUND:                -0.312
REMARK  4 active torsions:
REMARK  status: ('A' for Active; 'I' for Inactive)
REMARK    1  A    between atoms: C5_4  and  O7_13 
REMARK    2  A    between atoms: C8_10  and  O7_13 
REMARK    3  A    between atoms: C5_21  and  O7_30 
REMARK    4  A    between atoms: C8_27  and  O7_30 
ROOT
HETATM    1  O7    D T 400       6.471   2.074  -7.409  1.00 53.30    -0.304 OA
ENDROOT
BRANCH   1   2
HETATM    2  C5    D T 400       7.692   2.046  -6.758  1.00 52.25     0.125 A 
HETATM    3  C6    D T 400       7.748   2.470  -5.386  1.00 52.67     0.154 A 
HETATM    4  C1    D T 400       8.990   2.457  -4.756  1.00 56.55     0.041 A 
HETATM    5  O17   D T 400       6.663   2.860  -4.721  1.00 49.90    -0.188 OA
HETATM    6  C2    D T 400      10.130   2.060  -5.461  1.00 54.31     0.060 A 
HETATM    7  C3    D T 400      10.059   1.646  -6.805  1.00 52.92     0.014 A 
HETATM    8 CL14   D T 400      11.653   2.099  -4.639  1.00 55.46    -0.082 Cl
HETATM    9  C4    D T 400       8.831   1.660  -7.443  1.00 50.04     0.028 A 
ENDBRANCH   1   2
BRANCH   1  10
HETATM   10  C8    D T 400       6.413   2.098  -8.852  1.00 54.37     0.111 A 
HETATM   11  C9    D T 400       5.570   1.125  -9.488  1.00 54.35     0.081 A 
HETATM   12  C10   D T 400       5.360   0.981 -10.837  1.00 53.50     0.025 A 
HETATM   13 CL16   D T 400       4.744   0.045  -8.468  1.00 64.25    -0.080 Cl
HETATM   14  C11   D T 400       6.044   1.890 -11.688  1.00 57.87     0.059 A 
HETATM   15  C12   D T 400       6.876   2.885 -11.114  1.00 58.16     0.013 A 
HETATM   16 CL15   D T 400       5.919   1.852 -13.408  1.00 56.65    -0.082 Cl
HETATM   17  C13   D T 400       7.078   2.985  -9.700  1.00 55.40     0.026 A 
ENDBRANCH   1  10
TORSDOF 4
ENDMDL
MODEL 5
REMARK VINA RESULT:    -7.374      3.855      4.830
REMARK INTER + INTRA:          -8.547
REMARK INTER:                  -8.361
REMARK INTRA:                  -0.186
REMARK UNBOUND:                -0.312
REMARK  4 active torsions:
REMARK  status: ('A' for Active; 'I' for Inactive)
REMARK    1  A    between atoms: C5_4  and  O7_13 
REMARK    2  A    between atoms: C8_10  and  O7_13 
REMARK    3  A    between atoms: C5_21  and  O7_30 
REMARK    4  A    between atoms: C8_27  and  O7_30 
ROOT
HETATM    1  O7    D T 400       6.307   2.238  -7.642  1.00 53.30    -0.304 OA
ENDROOT
BRANCH   1   2
HETATM    2  C5    D T 400       6.179   2.134  -9.016  1.00 52.25     0.125 A 
HETATM    3  C6    D T 400       5.478   1.002  -9.557  1.00 52.67     0.154 A 
HETATM    4  C1    D T 400       5.381   0.903 -10.943  1.00 56.55     0.041 A 
HETATM    5  O17   D T 400       4.930   0.071  -8.779  1.00 49.90    -0.188 OA
HETATM    6  C2    D T 400       5.970   1.876 -11.758  1.00 54.31     0.060 A 
HETATM    7  C3    D T 400       6.652   2.980 -11.213  1.00 52.92     0.014 A 
HETATM    8 CL14   D T 400       5.850   1.683 -13.474  1.00 55.46    -0.082 Cl
HETATM    9  C4    D T 400       6.760   3.085  -9.837  1.00 50.04     0.028 A 
ENDBRANCH   1   2
BRANCH   1  10
HETATM   10  C8    D T 400       7.607   2.146  -7.020  1.00 54.37     0.111 A 
HETATM   11  C9    D T 400       7.682   2.442  -5.617  1.00 54.35     0.081 A 
HETATM   12  C10   D T 400       8.808   2.403  -4.832  1.00 53.50     0.025 A 
HETATM   13 CL16   D T 400       6.231   2.878  -4.848  1.00 64.25    -0.080 Cl
HETATM   14  C11   D T 400      10.019   2.029  -5.473  1.00 57.87     0.059 A 
HETATM   15  C12   D T 400      10.001   1.708  -6.855  1.00 58.16     0.013 A 
HETATM   16 CL15   D T 400      11.535   1.943  -4.656  1.00 56.65    -0.082 Cl
HETATM   17  C13   D T 400       8.804   1.779  -7.638  1.00 55.40     0.026 A 
ENDBRANCH   1  10
TORSDOF 4
ENDMDL
MODEL 6
REMARK VINA RESULT:    -7.359      1.173      5.906
REMARK INTER + INTRA:          -8.531
REMARK INTER:                  -8.295
REMARK INTRA:                  -0.236
REMARK UNBOUND:                -0.312
REMARK  4 active torsions:
REMARK  status: ('A' for Active; 'I' for Inactive)
REMARK    1  A    between atoms: C5_4  and  O7_13 
REMARK    2  A    between atoms: C8_10  and  O7_13 
REMARK    3  A    between atoms: C5_21  and  O7_30 
REMARK    4  A    between atoms: C8_27  and  O7_30 
ROOT
HETATM    1  O7    D T 400       4.494   0.734  -7.495  1.00 53.30    -0.304 OA
ENDROOT
BRANCH   1   2
HETATM    2  C5    D T 400       3.724   1.588  -6.725  1.00 52.25     0.125 A 
HETATM    3  C6    D T 400       2.934   1.031  -5.662  1.00 52.67     0.154 A 
HETATM    4  C1    D T 400       2.148   1.904  -4.915  1.00 56.55     0.041 A 
HETATM    5  O17   D T 400       2.943  -0.271  -5.382  1.00 49.90    -0.188 OA
HETATM    6  C2    D T 400       2.131   3.268  -5.220  1.00 54.31     0.060 A 
HETATM    7  C3    D T 400       2.912   3.800  -6.264  1.00 52.92     0.014 A 
HETATM    8 CL14   D T 400       1.107   4.301  -4.282  1.00 55.46    -0.082 Cl
HETATM    9  C4    D T 400       3.692   2.941  -7.017  1.00 50.04     0.028 A 
ENDBRANCH   1   2
BRANCH   1  10
HETATM   10  C8    D T 400       4.817   1.072  -8.862  1.00 54.37     0.111 A 
HETATM   11  C9    D T 400       3.800   0.842  -9.849  1.00 54.35     0.081 A 
HETATM   12  C10   D T 400       3.891   1.104 -11.194  1.00 53.50     0.025 A 
HETATM   13 CL16   D T 400       2.332   0.186  -9.297  1.00 64.25    -0.080 Cl
HETATM   14  C11   D T 400       5.114   1.662 -11.653  1.00 57.87     0.059 A 
HETATM   15  C12   D T 400       6.148   1.927 -10.719  1.00 58.16     0.013 A 
HETATM   16 CL15   D T 400       5.419   2.039 -13.308  1.00 56.65    -0.082 Cl
HETATM   17  C13   D T 400       6.013   1.621  -9.326  1.00 55.40     0.026 A 
ENDBRANCH   1  10
TORSDOF 4
ENDMDL
MODEL 7
REMARK VINA RESULT:    -7.306      1.698      2.937
REMARK INTER + INTRA:          -8.472
REMARK INTER:                  -8.100
REMARK INTRA:                  -0.372
REMARK UNBOUND:                -0.312
REMARK  4 active torsions:
REMARK  status: ('A' for Active; 'I' for Inactive)
REMARK    1  A    between atoms: C5_4  and  O7_13 
REMARK    2  A    between atoms: C8_10  and  O7_13 
REMARK    3  A    between atoms: C5_21  and  O7_30 
REMARK    4  A    between atoms: C8_27  and  O7_30 
ROOT
HETATM    1  O7    D T 400       3.426   3.389  -7.888  1.00 53.30    -0.304 OA
ENDROOT
BRANCH   1   2
HETATM    2  C5    D T 400       3.997   2.962  -9.074  1.00 52.25     0.125 A 
HETATM    3  C6    D T 400       5.414   3.123  -9.252  1.00 52.67     0.154 A 
HETATM    4  C1    D T 400       5.965   2.710 -10.462  1.00 56.55     0.041 A 
HETATM    5  O17   D T 400       6.191   3.643  -8.304  1.00 49.90    -0.188 OA
HETATM    6  C2    D T 400       5.143   2.176 -11.460  1.00 54.31     0.060 A 
HETATM    7  C3    D T 400       3.757   2.023 -11.271  1.00 52.92     0.014 A 
HETATM    8 CL14   D T 400       5.877   1.713 -12.958  1.00 55.46    -0.082 Cl
HETATM    9  C4    D T 400       3.198   2.437 -10.074  1.00 50.04     0.028 A 
ENDBRANCH   1   2
BRANCH   1  10
HETATM   10  C8    D T 400       3.283   2.479  -6.776  1.00 54.37     0.111 A 
HETATM   11  C9    D T 400       2.580   2.962  -5.622  1.00 54.35     0.081 A 
HETATM   12  C10   D T 400       2.321   2.262  -4.469  1.00 53.50     0.025 A 
HETATM   13 CL16   D T 400       2.003   4.559  -5.690  1.00 64.25    -0.080 Cl
HETATM   14  C11   D T 400       2.795   0.924  -4.416  1.00 57.87     0.059 A 
HETATM   15  C12   D T 400       3.482   0.387  -5.535  1.00 58.16     0.013 A 
HETATM   16 CL15   D T 400       2.581  -0.101  -3.046  1.00 56.65    -0.082 Cl
HETATM   17  C13   D T 400       3.743   1.162  -6.711  1.00 55.40     0.026 A 
ENDBRANCH   1  10
TORSDOF 4
ENDMDL
MODEL 8
REMARK VINA RESULT:    -7.302      1.755      1.841
REMARK INTER + INTRA:          -8.467
REMARK INTER:                  -7.952
REMARK INTRA:                  -0.514
REMARK UNBOUND:                -0.312
REMARK  4 active torsions:
REMARK  status: ('A' for Active; 'I' for Inactive)
REMARK    1  A    between atoms: C5_4  and  O7_13 
REMARK    2  A    between atoms: C8_10  and  O7_13 
REMARK    3  A    between atoms: C5_21  and  O7_30 
REMARK    4  A    between atoms: C8_27  and  O7_30 
ROOT
HETATM    1  O7    D T 400       2.790   1.778  -7.838  1.00 53.30    -0.304 OA
ENDROOT
BRANCH   1   2
HETATM    2  C5    D T 400       3.639   1.708  -8.929  1.00 52.25     0.125 A 
HETATM    3  C6    D T 400       3.494   2.681  -9.977  1.00 52.67     0.154 A 
HETATM    4  C1    D T 400       4.341   2.579 -11.076  1.00 56.55     0.041 A 
HETATM    5  O17   D T 400       2.590   3.657  -9.914  1.00 49.90    -0.188 OA
HETATM    6  C2    D T 400       5.280   1.544 -11.144  1.00 54.31     0.060 A 
HETATM    7  C3    D T 400       5.411   0.598 -10.110  1.00 52.92     0.014 A 
HETATM    8 CL14   D T 400       6.282   1.443 -12.552  1.00 55.46    -0.082 Cl
HETATM    9  C4    D T 400       4.570   0.687  -9.014  1.00 50.04     0.028 A 
ENDBRANCH   1   2
BRANCH   1  10
HETATM   10  C8    D T 400       3.221   2.417  -6.617  1.00 54.37     0.111 A 
HETATM   11  C9    D T 400       3.415   1.574  -5.472  1.00 54.35     0.081 A 
HETATM   12  C10   D T 400       3.833   1.971  -4.225  1.00 53.50     0.025 A 
HETATM   13 CL16   D T 400       3.105  -0.084  -5.680  1.00 64.25    -0.080 Cl
HETATM   14  C11   D T 400       4.101   3.355  -4.054  1.00 57.87     0.059 A 
HETATM   15  C12   D T 400       3.943   4.233  -5.157  1.00 58.16     0.013 A 
HETATM   16 CL15   D T 400       4.615   4.041  -2.557  1.00 56.65    -0.082 Cl
HETATM   17  C13   D T 400       3.489   3.775  -6.436  1.00 55.40     0.026 A 
ENDBRANCH   1  10
TORSDOF 4
ENDMDL
MODEL 9
REMARK VINA RESULT:    -7.296      2.285      6.198
REMARK INTER + INTRA:          -8.461
REMARK INTER:                  -7.970
REMARK INTRA:                  -0.491
REMARK UNBOUND:                -0.312
REMARK  4 active torsions:
REMARK  status: ('A' for Active; 'I' for Inactive)
REMARK    1  A    between atoms: C5_4  and  O7_13 
REMARK    2  A    between atoms: C8_10  and  O7_13 
REMARK    3  A    between atoms: C5_21  and  O7_30 
REMARK    4  A    between atoms: C8_27  and  O7_30 
ROOT
HETATM    1  O7    D T 400       4.720   3.654  -7.647  1.00 53.30    -0.304 OA
ENDROOT
BRANCH   1   2
HETATM    2  C5    D T 400       4.244   2.779  -6.686  1.00 52.25     0.125 A 
HETATM    3  C6    D T 400       3.061   3.140  -5.954  1.00 52.67     0.154 A 
HETATM    4  C1    D T 400       2.613   2.258  -4.974  1.00 56.55     0.041 A 
HETATM    5  O17   D T 400       2.400   4.271  -6.191  1.00 49.90    -0.188 OA
HETATM    6  C2    D T 400       3.317   1.077  -4.718  1.00 54.31     0.060 A 
HETATM    7  C3    D T 400       4.474   0.737  -5.445  1.00 52.92     0.014 A 
HETATM    8 CL14   D T 400       2.735   0.036  -3.464  1.00 55.46    -0.082 Cl
HETATM    9  C4    D T 400       4.932   1.609  -6.417  1.00 50.04     0.028 A 
ENDBRANCH   1   2
BRANCH   1  10
HETATM   10  C8    D T 400       4.798   3.247  -9.030  1.00 54.37     0.111 A 
HETATM   11  C9    D T 400       6.108   3.014  -9.569  1.00 54.35     0.081 A 
HETATM   12  C10   D T 400       6.407   2.610 -10.848  1.00 53.50     0.025 A 
HETATM   13 CL16   D T 400       7.422   3.255  -8.519  1.00 64.25    -0.080 Cl
HETATM   14  C11   D T 400       5.308   2.400 -11.722  1.00 57.87     0.059 A 
HETATM   15  C12   D T 400       3.990   2.598 -11.239  1.00 58.16     0.013 A 
HETATM   16 CL15   D T 400       5.488   1.911 -13.367  1.00 56.65    -0.082 Cl
HETATM   17  C13   D T 400       3.727   3.035  -9.900  1.00 55.40     0.026 A 
ENDBRANCH   1  10
TORSDOF 4
ENDMDL
