MODEL 1
REMARK VINA RESULT:    -7.605      0.000      0.000
REMARK INTER + INTRA:          -9.029
REMARK INTER:                  -8.494
REMARK INTRA:                  -0.535
REMARK UNBOUND:                -0.535
REMARK  2 active torsions:
REMARK  status: ('A' for Active; 'I' for Inactive)
REMARK    1  A    between atoms: C5_4  and  O7_13 
REMARK    2  A    between atoms: C8_10  and  O7_13 
ROOT
HETATM    1  O7    D T 601       6.943   1.070  -6.715  1.00 22.53    -0.304 OA
ENDROOT
BRANCH   1   2
HETATM    2  C5    D T 601       5.968   1.809  -6.076  1.00 21.09     0.125 A 
HETATM    3  C6    D T 601       4.839   1.141  -5.593  1.00 20.02     0.154 A 
HETATM    4  C1    D T 601       3.841   1.843  -4.945  1.00 18.60     0.041 A 
HETATM    5  O17   D T 601       4.720  -0.216  -5.756  1.00 17.91    -0.188 OA
HETATM    6  C2    D T 601       3.963   3.210  -4.782  1.00 21.19     0.060 A 
HETATM    7  C3    D T 601       5.089   3.906  -5.259  1.00 21.69     0.014 A 
HETATM    8 CL14   D T 601       2.688   4.091  -3.964  1.00 22.27    -0.082 Cl
HETATM    9  C4    D T 601       6.096   3.198  -5.910  1.00 21.63     0.028 A 
ENDBRANCH   1   2
BRANCH   1  10
HETATM   10  C8    D T 601       7.149   1.285  -8.071  1.00 23.87     0.111 A 
HETATM   11  C9    D T 601       8.308   1.945  -8.466  1.00 25.62     0.081 A 
HETATM   12  C10   D T 601       8.570   2.195  -9.795  1.00 25.25     0.025 A 
HETATM   13 CL16   D T 601       9.437   2.466  -7.256  1.00 24.80    -0.080 Cl
HETATM   14  C11   D T 601       7.661   1.779 -10.762  1.00 28.16     0.059 A 
HETATM   15  C12   D T 601       6.491   1.109 -10.393  1.00 26.66     0.013 A 
HETATM   16 CL15   D T 601       7.983   2.114 -12.463  1.00 31.04    -0.082 Cl
HETATM   17  C13   D T 601       6.231   0.858  -9.041  1.00 26.39     0.026 A 
ENDBRANCH   1  10
TORSDOF 2
ENDMDL
MODEL 2
REMARK VINA RESULT:    -7.566      1.507      6.056
REMARK INTER + INTRA:          -8.986
REMARK INTER:                  -8.456
REMARK INTRA:                  -0.529
REMARK UNBOUND:                -0.535
REMARK  2 active torsions:
REMARK  status: ('A' for Active; 'I' for Inactive)
REMARK    1  A    between atoms: C5_4  and  O7_13 
REMARK    2  A    between atoms: C8_10  and  O7_13 
ROOT
HETATM    1  O7    D T 601       6.969   1.119  -6.793  1.00 22.53    -0.304 OA
ENDROOT
BRANCH   1   2
HETATM    2  C5    D T 601       7.149   1.326  -8.146  1.00 21.09     0.125 A 
HETATM    3  C6    D T 601       8.313   1.974  -8.568  1.00 20.02     0.154 A 
HETATM    4  C1    D T 601       8.533   2.199  -9.913  1.00 18.60     0.041 A 
HETATM    5  O17   D T 601       9.245   2.386  -7.649  1.00 17.91    -0.188 OA
HETATM    6  C2    D T 601       7.593   1.785 -10.838  1.00 21.19     0.060 A 
HETATM    7  C3    D T 601       6.413   1.131 -10.438  1.00 21.69     0.014 A 
HETATM    8 CL14   D T 601       7.880   2.081 -12.541  1.00 22.27    -0.082 Cl
HETATM    9  C4    D T 601       6.192   0.902  -9.083  1.00 21.63     0.028 A 
ENDBRANCH   1   2
BRANCH   1  10
HETATM   10  C8    D T 601       6.013   1.879  -6.132  1.00 23.87     0.111 A 
HETATM   11  C9    D T 601       4.851   1.247  -5.701  1.00 25.62     0.081 A 
HETATM   12  C10   D T 601       3.861   1.943  -5.044  1.00 25.25     0.025 A 
HETATM   13 CL16   D T 601       4.649  -0.449  -6.005  1.00 24.80    -0.080 Cl
HETATM   14  C11   D T 601       4.023   3.304  -4.805  1.00 28.16     0.059 A 
HETATM   15  C12   D T 601       5.184   3.962  -5.223  1.00 26.66     0.013 A 
HETATM   16 CL15   D T 601       2.750   4.204  -3.983  1.00 31.04    -0.082 Cl
HETATM   17  C13   D T 601       6.186   3.249  -5.890  1.00 26.39     0.026 A 
ENDBRANCH   1  10
TORSDOF 2
ENDMDL
MODEL 3
REMARK VINA RESULT:    -7.407      1.537      2.044
REMARK INTER + INTRA:          -8.808
REMARK INTER:                  -8.551
REMARK INTRA:                  -0.257
REMARK UNBOUND:                -0.535
REMARK  2 active torsions:
REMARK  status: ('A' for Active; 'I' for Inactive)
REMARK    1  A    between atoms: C5_4  and  O7_13 
REMARK    2  A    between atoms: C8_10  and  O7_13 
ROOT
HETATM    1  O7    D T 601       5.855   0.614  -7.118  1.00 22.53    -0.304 OA
ENDROOT
BRANCH   1   2
HETATM    2  C5    D T 601       5.175   1.544  -6.358  1.00 21.09     0.125 A 
HETATM    3  C6    D T 601       4.165   1.092  -5.504  1.00 20.02     0.154 A 
HETATM    4  C1    D T 601       3.461   1.989  -4.724  1.00 18.60     0.041 A 
HETATM    5  O17   D T 601       3.872  -0.247  -5.433  1.00 17.91    -0.188 OA
HETATM    6  C2    D T 601       3.758   3.337  -4.798  1.00 21.19     0.060 A 
HETATM    7  C3    D T 601       4.769   3.818  -5.650  1.00 21.69     0.014 A 
HETATM    8 CL14   D T 601       2.854   4.466  -3.809  1.00 22.27    -0.082 Cl
HETATM    9  C4    D T 601       5.480   2.914  -6.434  1.00 21.63     0.028 A 
ENDBRANCH   1   2
BRANCH   1  10
HETATM   10  C8    D T 601       6.308   0.996  -8.374  1.00 23.87     0.111 A 
HETATM   11  C9    D T 601       5.402   0.993  -9.430  1.00 25.62     0.081 A 
HETATM   12  C10   D T 601       5.788   1.354 -10.702  1.00 25.25     0.025 A 
HETATM   13 CL16   D T 601       3.761   0.516  -9.134  1.00 24.80    -0.080 Cl
HETATM   14  C11   D T 601       7.106   1.732 -10.938  1.00 28.16     0.059 A 
HETATM   15  C12   D T 601       8.035   1.749  -9.892  1.00 26.66     0.013 A 
HETATM   16 CL15   D T 601       7.609   2.177 -12.568  1.00 31.04    -0.082 Cl
HETATM   17  C13   D T 601       7.637   1.380  -8.603  1.00 26.39     0.026 A 
ENDBRANCH   1  10
TORSDOF 2
ENDMDL
MODEL 4
REMARK VINA RESULT:    -7.240      1.530      5.903
REMARK INTER + INTRA:          -8.621
REMARK INTER:                  -8.374
REMARK INTRA:                  -0.247
REMARK UNBOUND:                -0.535
REMARK  2 active torsions:
REMARK  status: ('A' for Active; 'I' for Inactive)
REMARK    1  A    between atoms: C5_4  and  O7_13 
REMARK    2  A    between atoms: C8_10  and  O7_13 
ROOT
HETATM    1  O7    D T 601       6.471   0.820  -7.014  1.00 22.53    -0.304 OA
ENDROOT
BRANCH   1   2
HETATM    2  C5    D T 601       6.820   1.154  -8.307  1.00 21.09     0.125 A 
HETATM    3  C6    D T 601       5.886   0.938  -9.323  1.00 20.02     0.154 A 
HETATM    4  C1    D T 601       6.194   1.261 -10.630  1.00 18.60     0.041 A 
HETATM    5  O17   D T 601       4.655   0.408  -9.026  1.00 17.91    -0.188 OA
HETATM    6  C2    D T 601       7.434   1.794 -10.927  1.00 21.19     0.060 A 
HETATM    7  C3    D T 601       8.393   2.021  -9.923  1.00 21.69     0.014 A 
HETATM    8 CL14   D T 601       7.816   2.194 -12.590  1.00 22.27    -0.082 Cl
HETATM    9  C4    D T 601       8.081   1.698  -8.605  1.00 21.63     0.028 A 
ENDBRANCH   1   2
BRANCH   1  10
HETATM   10  C8    D T 601       5.657   1.692  -6.305  1.00 23.87     0.111 A 
HETATM   11  C9    D T 601       4.525   1.178  -5.681  1.00 25.62     0.081 A 
HETATM   12  C10   D T 601       3.671   1.990  -4.967  1.00 25.25     0.025 A 
HETATM   13 CL16   D T 601       4.183  -0.517  -5.814  1.00 24.80    -0.080 Cl
HETATM   14  C11   D T 601       3.945   3.351  -4.865  1.00 28.16     0.059 A 
HETATM   15  C12   D T 601       5.080   3.892  -5.479  1.00 26.66     0.013 A 
HETATM   16 CL15   D T 601       2.846   4.398  -3.969  1.00 31.04    -0.082 Cl
HETATM   17  C13   D T 601       5.942   3.061  -6.202  1.00 26.39     0.026 A 
ENDBRANCH   1  10
TORSDOF 2
ENDMDL
MODEL 5
REMARK VINA RESULT:    -7.092      2.099      2.487
REMARK INTER + INTRA:          -8.456
REMARK INTER:                  -8.169
REMARK INTRA:                  -0.287
REMARK UNBOUND:                -0.535
REMARK  2 active torsions:
REMARK  status: ('A' for Active; 'I' for Inactive)
REMARK    1  A    between atoms: C5_4  and  O7_13 
REMARK    2  A    between atoms: C8_10  and  O7_13 
ROOT
HETATM    1  O7    D T 601       4.976   3.444  -7.251  1.00 22.53    -0.304 OA
ENDROOT
BRANCH   1   2
HETATM    2  C5    D T 601       4.587   2.598  -6.232  1.00 21.09     0.125 A 
HETATM    3  C6    D T 601       4.639   3.073  -4.919  1.00 20.02     0.154 A 
HETATM    4  C1    D T 601       4.256   2.260  -3.870  1.00 18.60     0.041 A 
HETATM    5  O17   D T 601       5.067   4.352  -4.666  1.00 17.91    -0.188 OA
HETATM    6  C2    D T 601       3.827   0.971  -4.126  1.00 21.19     0.060 A 
HETATM    7  C3    D T 601       3.765   0.469  -5.439  1.00 21.69     0.014 A 
HETATM    8 CL14   D T 601       3.349  -0.053  -2.788  1.00 22.27    -0.082 Cl
HETATM    9  C4    D T 601       4.148   1.289  -6.496  1.00 21.63     0.028 A 
ENDBRANCH   1   2
BRANCH   1  10
HETATM   10  C8    D T 601       5.701   2.911  -8.308  1.00 23.87     0.111 A 
HETATM   11  C9    D T 601       7.070   2.724  -8.140  1.00 25.62     0.081 A 
HETATM   12  C10   D T 601       7.848   2.204  -9.151  1.00 25.25     0.025 A 
HETATM   13 CL16   D T 601       7.804   3.161  -6.630  1.00 24.80    -0.080 Cl
HETATM   14  C11   D T 601       7.258   1.858 -10.362  1.00 28.16     0.059 A 
HETATM   15  C12   D T 601       5.883   2.031 -10.554  1.00 26.66     0.013 A 
HETATM   16 CL15   D T 601       8.254   1.211 -11.665  1.00 31.04    -0.082 Cl
HETATM   17  C13   D T 601       5.099   2.559  -9.524  1.00 26.39     0.026 A 
ENDBRANCH   1  10
TORSDOF 2
ENDMDL
MODEL 6
REMARK VINA RESULT:    -6.956      1.846      2.457
REMARK INTER + INTRA:          -8.305
REMARK INTER:                  -8.120
REMARK INTRA:                  -0.185
REMARK UNBOUND:                -0.535
REMARK  2 active torsions:
REMARK  status: ('A' for Active; 'I' for Inactive)
REMARK    1  A    between atoms: C5_4  and  O7_13 
REMARK    2  A    between atoms: C8_10  and  O7_13 
ROOT
HETATM    1  O7    D T 601       4.694   0.888  -6.562  1.00 22.53    -0.304 OA
ENDROOT
BRANCH   1   2
HETATM    2  C5    D T 601       4.378   1.981  -5.780  1.00 21.09     0.125 A 
HETATM    3  C6    D T 601       3.780   1.756  -4.537  1.00 20.02     0.154 A 
HETATM    4  C1    D T 601       3.450   2.822  -3.722  1.00 18.60     0.041 A 
HETATM    5  O17   D T 601       3.523   0.475  -4.118  1.00 17.91    -0.188 OA
HETATM    6  C2    D T 601       3.710   4.111  -4.146  1.00 21.19     0.060 A 
HETATM    7  C3    D T 601       4.310   4.365  -5.393  1.00 21.69     0.014 A 
HETATM    8 CL14   D T 601       3.282   5.456  -3.106  1.00 22.27    -0.082 Cl
HETATM    9  C4    D T 601       4.645   3.291  -6.213  1.00 21.63     0.028 A 
ENDBRANCH   1   2
BRANCH   1  10
HETATM   10  C8    D T 601       5.593   1.064  -7.605  1.00 23.87     0.111 A 
HETATM   11  C9    D T 601       5.126   0.929  -8.908  1.00 25.62     0.081 A 
HETATM   12  C10   D T 601       5.967   1.085  -9.988  1.00 25.25     0.025 A 
HETATM   13 CL16   D T 601       3.453   0.551  -9.172  1.00 24.80    -0.080 Cl
HETATM   14  C11   D T 601       7.309   1.384  -9.774  1.00 28.16     0.059 A 
HETATM   15  C12   D T 601       7.803   1.530  -8.474  1.00 26.66     0.013 A 
HETATM   16 CL15   D T 601       8.393   1.565 -11.152  1.00 31.04    -0.082 Cl
HETATM   17  C13   D T 601       6.943   1.370  -7.382  1.00 26.39     0.026 A 
ENDBRANCH   1  10
TORSDOF 2
ENDMDL
MODEL 7
REMARK VINA RESULT:    -6.809      8.742     11.314
REMARK INTER + INTRA:          -8.140
REMARK INTER:                  -7.812
REMARK INTRA:                  -0.328
REMARK UNBOUND:                -0.535
REMARK  2 active torsions:
REMARK  status: ('A' for Active; 'I' for Inactive)
REMARK    1  A    between atoms: C5_4  and  O7_13 
REMARK    2  A    between atoms: C8_10  and  O7_13 
ROOT
HETATM    1  O7    D T 601       8.383   6.669   2.449  1.00 22.53    -0.304 OA
ENDROOT
BRANCH   1   2
HETATM    2  C5    D T 601       7.773   6.945   1.241  1.00 21.09     0.125 A 
HETATM    3  C6    D T 601       7.496   8.277   0.927  1.00 20.02     0.154 A 
HETATM    4  C1    D T 601       6.888   8.596  -0.272  1.00 18.60     0.041 A 
HETATM    5  O17   D T 601       7.830   9.277   1.806  1.00 17.91    -0.188 OA
HETATM    6  C2    D T 601       6.552   7.588  -1.156  1.00 21.19     0.060 A 
HETATM    7  C3    D T 601       6.820   6.239  -0.864  1.00 21.69     0.014 A 
HETATM    8 CL14   D T 601       5.776   8.004  -2.672  1.00 22.27    -0.082 Cl
HETATM    9  C4    D T 601       7.434   5.918   0.344  1.00 21.63     0.028 A 
ENDBRANCH   1   2
BRANCH   1  10
HETATM   10  C8    D T 601       8.119   5.450   3.057  1.00 23.87     0.111 A 
HETATM   11  C9    D T 601       9.142   4.509   3.120  1.00 25.62     0.081 A 
HETATM   12  C10   D T 601       8.944   3.277   3.705  1.00 25.25     0.025 A 
HETATM   13 CL16   D T 601      10.690   4.898   2.442  1.00 24.80    -0.080 Cl
HETATM   14  C11   D T 601       7.700   2.966   4.244  1.00 28.16     0.059 A 
HETATM   15  C12   D T 601       6.656   3.897   4.198  1.00 26.66     0.013 A 
HETATM   16 CL15   D T 601       7.436   1.384   4.976  1.00 31.04    -0.082 Cl
HETATM   17  C13   D T 601       6.864   5.145   3.603  1.00 26.39     0.026 A 
ENDBRANCH   1  10
TORSDOF 2
ENDMDL
MODEL 8
REMARK VINA RESULT:    -6.791      2.159      2.346
REMARK INTER + INTRA:          -8.120
REMARK INTER:                  -7.752
REMARK INTRA:                  -0.368
REMARK UNBOUND:                -0.535
REMARK  2 active torsions:
REMARK  status: ('A' for Active; 'I' for Inactive)
REMARK    1  A    between atoms: C5_4  and  O7_13 
REMARK    2  A    between atoms: C8_10  and  O7_13 
ROOT
HETATM    1  O7    D T 601       4.197   2.114  -7.051  1.00 22.53    -0.304 OA
ENDROOT
BRANCH   1   2
HETATM    2  C5    D T 601       4.593   2.441  -5.770  1.00 21.09     0.125 A 
HETATM    3  C6    D T 601       4.544   1.448  -4.787  1.00 20.02     0.154 A 
HETATM    4  C1    D T 601       4.933   1.732  -3.493  1.00 18.60     0.041 A 
HETATM    5  O17   D T 601       4.113   0.185  -5.105  1.00 17.91    -0.188 OA
HETATM    6  C2    D T 601       5.366   3.006  -3.174  1.00 21.19     0.060 A 
HETATM    7  C3    D T 601       5.425   4.023  -4.144  1.00 21.69     0.014 A 
HETATM    8 CL14   D T 601       5.852   3.357  -1.527  1.00 22.27    -0.082 Cl
HETATM    9  C4    D T 601       5.035   3.736  -5.450  1.00 21.63     0.028 A 
ENDBRANCH   1   2
BRANCH   1  10
HETATM   10  C8    D T 601       5.180   1.860  -7.999  1.00 23.87     0.111 A 
HETATM   11  C9    D T 601       5.516   2.875  -8.889  1.00 25.62     0.081 A 
HETATM   12  C10   D T 601       6.478   2.687  -9.856  1.00 25.25     0.025 A 
HETATM   13 CL16   D T 601       4.700   4.401  -8.777  1.00 24.80    -0.080 Cl
HETATM   14  C11   D T 601       7.129   1.460  -9.946  1.00 28.16     0.059 A 
HETATM   15  C12   D T 601       6.814   0.425  -9.060  1.00 26.66     0.013 A 
HETATM   16 CL15   D T 601       8.348   1.208 -11.195  1.00 31.04    -0.082 Cl
HETATM   17  C13   D T 601       5.836   0.623  -8.080  1.00 26.39     0.026 A 
ENDBRANCH   1  10
TORSDOF 2
ENDMDL
MODEL 9
REMARK VINA RESULT:    -6.762      2.483      3.628
REMARK INTER + INTRA:          -8.088
REMARK INTER:                  -7.879
REMARK INTRA:                  -0.209
REMARK UNBOUND:                -0.535
REMARK  2 active torsions:
REMARK  status: ('A' for Active; 'I' for Inactive)
REMARK    1  A    between atoms: C5_4  and  O7_13 
REMARK    2  A    between atoms: C8_10  and  O7_13 
ROOT
HETATM    1  O7    D T 601       3.743   2.293  -5.424  1.00 22.53    -0.304 OA
ENDROOT
BRANCH   1   2
HETATM    2  C5    D T 601       4.105   3.313  -4.568  1.00 21.09     0.125 A 
HETATM    3  C6    D T 601       4.723   2.977  -3.360  1.00 20.02     0.154 A 
HETATM    4  C1    D T 601       5.104   3.968  -2.476  1.00 18.60     0.041 A 
HETATM    5  O17   D T 601       4.959   1.661  -3.050  1.00 17.91    -0.188 OA
HETATM    6  C2    D T 601       4.865   5.292  -2.790  1.00 21.19     0.060 A 
HETATM    7  C3    D T 601       4.244   5.657  -3.999  1.00 21.69     0.014 A 
HETATM    8 CL14   D T 601       5.347   6.540  -1.658  1.00 22.27    -0.082 Cl
HETATM    9  C4    D T 601       3.863   4.658  -4.891  1.00 21.63     0.028 A 
ENDBRANCH   1   2
BRANCH   1  10
HETATM   10  C8    D T 601       4.588   1.992  -6.484  1.00 23.87     0.111 A 
HETATM   11  C9    D T 601       4.131   1.116  -7.463  1.00 25.62     0.081 A 
HETATM   12  C10   D T 601       4.920   0.771  -8.538  1.00 25.25     0.025 A 
HETATM   13 CL16   D T 601       2.539   0.442  -7.318  1.00 24.80    -0.080 Cl
HETATM   14  C11   D T 601       6.198   1.310  -8.650  1.00 28.16     0.059 A 
HETATM   15  C12   D T 601       6.680   2.197  -7.682  1.00 26.66     0.013 A 
HETATM   16 CL15   D T 601       7.220   0.857 -10.014  1.00 31.04    -0.082 Cl
HETATM   17  C13   D T 601       5.872   2.543  -6.593  1.00 26.39     0.026 A 
ENDBRANCH   1  10
TORSDOF 2
ENDMDL
