MODEL 1
REMARK VINA RESULT:      -8.3      0.000      0.000
REMARK  2 active torsions:
REMARK  status: ('A' for Active; 'I' for Inactive)
REMARK    1  A    between atoms: C5_4  and  O7_13 
REMARK    2  A    between atoms: C8_10  and  O7_13 
ROOT
HETATM    1  O7    D T 601      -1.523 -23.696  18.925  1.00 22.53    -0.304 OA
ENDROOT
BRANCH   1   2
HETATM    2  C5    D T 601      -1.893 -24.335  17.760  1.00 21.09     0.125 A 
HETATM    3  C6    D T 601      -1.765 -25.725  17.696  1.00 20.02     0.154 A 
HETATM    4  C1    D T 601      -2.127 -26.404  16.550  1.00 18.60     0.041 A 
HETATM    5  O17   D T 601      -1.284 -26.423  18.775  1.00 17.91    -0.188 OA
HETATM    6  C2    D T 601      -2.611 -25.700  15.463  1.00 21.19     0.060 A 
HETATM    7  C3    D T 601      -2.750 -24.300  15.501  1.00 21.69     0.014 A 
HETATM    8 CL14   D T 601      -3.062 -26.572  14.011  1.00 22.27    -0.082 Cl
HETATM    9  C4    D T 601      -2.387 -23.617  16.658  1.00 21.63     0.028 A 
ENDBRANCH   1   2
BRANCH   1  10
HETATM   10  C8    D T 601      -2.479 -22.945  19.597  1.00 23.87     0.111 A 
HETATM   11  C9    D T 601      -2.892 -23.376  20.854  1.00 25.62     0.081 A 
HETATM   12  C10   D T 601      -3.840 -22.681  21.571  1.00 25.25     0.025 A 
HETATM   13 CL16   D T 601      -2.202 -24.821  21.522  1.00 24.80    -0.080 Cl
HETATM   14  C11   D T 601      -4.396 -21.524  21.032  1.00 28.16     0.059 A 
HETATM   15  C12   D T 601      -3.993 -21.066  19.773  1.00 26.66     0.013 A 
HETATM   16 CL15   D T 601      -5.624 -20.641  21.937  1.00 31.04    -0.082 Cl
HETATM   17  C13   D T 601      -3.029 -21.778  19.050  1.00 26.39     0.026 A 
ENDBRANCH   1  10
TORSDOF 2
ENDMDL
MODEL 2
REMARK VINA RESULT:      -8.2      2.181      2.332
REMARK  2 active torsions:
REMARK  status: ('A' for Active; 'I' for Inactive)
REMARK    1  A    between atoms: C5_4  and  O7_13 
REMARK    2  A    between atoms: C8_10  and  O7_13 
ROOT
HETATM    1  O7    D T 601      -1.627 -24.746  18.892  1.00 22.53    -0.304 OA
ENDROOT
BRANCH   1   2
HETATM    2  C5    D T 601      -0.794 -24.564  17.807  1.00 21.09     0.125 A 
HETATM    3  C6    D T 601      -0.835 -25.504  16.774  1.00 20.02     0.154 A 
HETATM    4  C1    D T 601      -0.020 -25.357  15.669  1.00 18.60     0.041 A 
HETATM    5  O17   D T 601      -1.690 -26.574  16.850  1.00 17.91    -0.188 OA
HETATM    6  C2    D T 601       0.842 -24.279  15.594  1.00 21.19     0.060 A 
HETATM    7  C3    D T 601       0.903 -23.319  16.621  1.00 21.69     0.014 A 
HETATM    8 CL14   D T 601       1.877 -24.107  14.190  1.00 22.27    -0.082 Cl
HETATM    9  C4    D T 601       0.080 -23.465  17.733  1.00 21.63     0.028 A 
ENDBRANCH   1   2
BRANCH   1  10
HETATM   10  C8    D T 601      -2.557 -23.756  19.182  1.00 23.87     0.111 A 
HETATM   11  C9    D T 601      -2.815 -23.464  20.518  1.00 25.62     0.081 A 
HETATM   12  C10   D T 601      -3.729 -22.498  20.873  1.00 25.25     0.025 A 
HETATM   13 CL16   D T 601      -1.972 -24.343  21.753  1.00 24.80    -0.080 Cl
HETATM   14  C11   D T 601      -4.407 -21.796  19.881  1.00 28.16     0.059 A 
HETATM   15  C12   D T 601      -4.161 -22.066  18.530  1.00 26.66     0.013 A 
HETATM   16 CL15   D T 601      -5.593 -20.571  20.332  1.00 31.04    -0.082 Cl
HETATM   17  C13   D T 601      -3.231 -23.049  18.176  1.00 26.39     0.026 A 
ENDBRANCH   1  10
TORSDOF 2
ENDMDL
MODEL 3
REMARK VINA RESULT:      -8.1      2.193      5.843
REMARK  2 active torsions:
REMARK  status: ('A' for Active; 'I' for Inactive)
REMARK    1  A    between atoms: C5_4  and  O7_13 
REMARK    2  A    between atoms: C8_10  and  O7_13 
ROOT
HETATM    1  O7    D T 601      -1.841 -24.691  18.742  1.00 22.53    -0.304 OA
ENDROOT
BRANCH   1   2
HETATM    2  C5    D T 601      -2.621 -23.714  19.326  1.00 21.09     0.125 A 
HETATM    3  C6    D T 601      -2.624 -23.612  20.719  1.00 20.02     0.154 A 
HETATM    4  C1    D T 601      -3.388 -22.646  21.344  1.00 18.60     0.041 A 
HETATM    5  O17   D T 601      -1.865 -24.469  21.474  1.00 17.91    -0.188 OA
HETATM    6  C2    D T 601      -4.154 -21.783  20.582  1.00 21.19     0.060 A 
HETATM    7  C3    D T 601      -4.168 -21.864  19.177  1.00 21.69     0.014 A 
HETATM    8 CL14   D T 601      -5.124 -20.564  21.385  1.00 22.27    -0.082 Cl
HETATM    9  C4    D T 601      -3.396 -22.837  18.548  1.00 21.63     0.028 A 
ENDBRANCH   1   2
BRANCH   1  10
HETATM   10  C8    D T 601      -1.044 -24.340  17.661  1.00 23.87     0.111 A 
HETATM   11  C9    D T 601      -1.330 -24.901  16.420  1.00 25.62     0.081 A 
HETATM   12  C10   D T 601      -0.575 -24.599  15.309  1.00 25.25     0.025 A 
HETATM   13 CL16   D T 601      -2.658 -26.007  16.279  1.00 24.80    -0.080 Cl
HETATM   14  C11   D T 601       0.493 -23.714  15.425  1.00 28.16     0.059 A 
HETATM   15  C12   D T 601       0.798 -23.131  16.660  1.00 26.66     0.013 A 
HETATM   16 CL15   D T 601       1.475 -23.339  14.009  1.00 31.04    -0.082 Cl
HETATM   17  C13   D T 601       0.026 -23.443  17.784  1.00 26.39     0.026 A 
ENDBRANCH   1  10
TORSDOF 2
ENDMDL
MODEL 4
REMARK VINA RESULT:      -7.9     11.938     13.232
REMARK  2 active torsions:
REMARK  status: ('A' for Active; 'I' for Inactive)
REMARK    1  A    between atoms: C5_4  and  O7_13 
REMARK    2  A    between atoms: C8_10  and  O7_13 
ROOT
HETATM    1  O7    D T 601       5.362 -16.005  13.975  1.00 22.53    -0.304 OA
ENDROOT
BRANCH   1   2
HETATM    2  C5    D T 601       5.364 -17.346  14.301  1.00 21.09     0.125 A 
HETATM    3  C6    D T 601       5.787 -17.717  15.580  1.00 20.02     0.154 A 
HETATM    4  C1    D T 601       5.801 -19.048  15.948  1.00 18.60     0.041 A 
HETATM    5  O17   D T 601       6.185 -16.760  16.479  1.00 17.91    -0.188 OA
HETATM    6  C2    D T 601       5.401 -20.012  15.042  1.00 21.19     0.060 A 
HETATM    7  C3    D T 601       4.971 -19.665  13.748  1.00 21.69     0.014 A 
HETATM    8 CL14   D T 601       5.429 -21.698  15.518  1.00 22.27    -0.082 Cl
HETATM    9  C4    D T 601       4.954 -18.323  13.378  1.00 21.63     0.028 A 
ENDBRANCH   1   2
BRANCH   1  10
HETATM   10  C8    D T 601       5.716 -15.642  12.682  1.00 23.87     0.111 A 
HETATM   11  C9    D T 601       7.041 -15.811  12.289  1.00 25.62     0.081 A 
HETATM   12  C10   D T 601       7.459 -15.465  11.023  1.00 25.25     0.025 A 
HETATM   13 CL16   D T 601       8.182 -16.461  13.421  1.00 24.80    -0.080 Cl
HETATM   14  C11   D T 601       6.542 -14.940  10.116  1.00 28.16     0.059 A 
HETATM   15  C12   D T 601       5.203 -14.767  10.485  1.00 26.66     0.013 A 
HETATM   16 CL15   D T 601       7.077 -14.478   8.501  1.00 31.04    -0.082 Cl
HETATM   17  C13   D T 601       4.786 -15.120  11.773  1.00 26.39     0.026 A 
ENDBRANCH   1  10
TORSDOF 2
ENDMDL
MODEL 5
REMARK VINA RESULT:      -7.9     11.799     12.970
REMARK  2 active torsions:
REMARK  status: ('A' for Active; 'I' for Inactive)
REMARK    1  A    between atoms: C5_4  and  O7_13 
REMARK    2  A    between atoms: C8_10  and  O7_13 
ROOT
HETATM    1  O7    D T 601       5.596 -16.386  13.732  1.00 22.53    -0.304 OA
ENDROOT
BRANCH   1   2
HETATM    2  C5    D T 601       5.895 -15.880  12.484  1.00 21.09     0.125 A 
HETATM    3  C6    D T 601       7.180 -16.084  11.975  1.00 20.02     0.154 A 
HETATM    4  C1    D T 601       7.520 -15.596  10.728  1.00 18.60     0.041 A 
HETATM    5  O17   D T 601       8.110 -16.775  12.709  1.00 17.91    -0.188 OA
HETATM    6  C2    D T 601       6.582 -14.898   9.990  1.00 21.19     0.060 A 
HETATM    7  C3    D T 601       5.281 -14.679  10.479  1.00 21.69     0.014 A 
HETATM    8 CL14   D T 601       7.026 -14.278   8.412  1.00 22.27    -0.082 Cl
HETATM    9  C4    D T 601       4.939 -15.173  11.734  1.00 21.63     0.028 A 
ENDBRANCH   1   2
BRANCH   1  10
HETATM   10  C8    D T 601       5.187 -17.710  13.824  1.00 23.87     0.111 A 
HETATM   11  C9    D T 601       5.843 -18.542  14.726  1.00 25.62     0.081 A 
HETATM   12  C10   D T 601       5.490 -19.866  14.863  1.00 25.25     0.025 A 
HETATM   13 CL16   D T 601       7.135 -17.896  15.686  1.00 24.80    -0.080 Cl
HETATM   14  C11   D T 601       4.456 -20.384  14.088  1.00 28.16     0.059 A 
HETATM   15  C12   D T 601       3.775 -19.567  13.179  1.00 26.66     0.013 A 
HETATM   16 CL15   D T 601       4.014 -22.083  14.246  1.00 31.04    -0.082 Cl
HETATM   17  C13   D T 601       4.140 -18.223  13.045  1.00 26.39     0.026 A 
ENDBRANCH   1  10
TORSDOF 2
ENDMDL
MODEL 6
REMARK VINA RESULT:      -7.8     11.412     12.546
REMARK  2 active torsions:
REMARK  status: ('A' for Active; 'I' for Inactive)
REMARK    1  A    between atoms: C5_4  and  O7_13 
REMARK    2  A    between atoms: C8_10  and  O7_13 
ROOT
HETATM    1  O7    D T 601       4.580 -16.356  14.006  1.00 22.53    -0.304 OA
ENDROOT
BRANCH   1   2
HETATM    2  C5    D T 601       5.154 -15.941  12.821  1.00 21.09     0.125 A 
HETATM    3  C6    D T 601       4.312 -15.608  11.757  1.00 20.02     0.154 A 
HETATM    4  C1    D T 601       4.845 -15.185  10.555  1.00 18.60     0.041 A 
HETATM    5  O17   D T 601       2.951 -15.694  11.903  1.00 17.91    -0.188 OA
HETATM    6  C2    D T 601       6.217 -15.101  10.409  1.00 21.19     0.060 A 
HETATM    7  C3    D T 601       7.087 -15.431  11.465  1.00 21.69     0.014 A 
HETATM    8 CL14   D T 601       6.883 -14.569   8.877  1.00 22.27    -0.082 Cl
HETATM    9  C4    D T 601       6.549 -15.854  12.677  1.00 21.63     0.028 A 
ENDBRANCH   1   2
BRANCH   1  10
HETATM   10  C8    D T 601       4.753 -17.679  14.393  1.00 23.87     0.111 A 
HETATM   11  C9    D T 601       5.530 -17.940  15.518  1.00 25.62     0.081 A 
HETATM   12  C10   D T 601       5.745 -19.230  15.952  1.00 25.25     0.025 A 
HETATM   13 CL16   D T 601       6.243 -16.615  16.379  1.00 24.80    -0.080 Cl
HETATM   14  C11   D T 601       5.174 -20.292  15.257  1.00 28.16     0.059 A 
HETATM   15  C12   D T 601       4.384 -20.055  14.127  1.00 26.66     0.013 A 
HETATM   16 CL15   D T 601       5.463 -21.945  15.798  1.00 31.04    -0.082 Cl
HETATM   17  C13   D T 601       4.170 -18.743  13.691  1.00 26.39     0.026 A 
ENDBRANCH   1  10
TORSDOF 2
ENDMDL
MODEL 7
REMARK VINA RESULT:      -7.7     11.462     12.768
REMARK  2 active torsions:
REMARK  status: ('A' for Active; 'I' for Inactive)
REMARK    1  A    between atoms: C5_4  and  O7_13 
REMARK    2  A    between atoms: C8_10  and  O7_13 
ROOT
HETATM    1  O7    D T 601       5.990 -16.796  14.264  1.00 22.53    -0.304 OA
ENDROOT
BRANCH   1   2
HETATM    2  C5    D T 601       5.722 -18.146  14.361  1.00 21.09     0.125 A 
HETATM    3  C6    D T 601       5.430 -18.676  15.620  1.00 20.02     0.154 A 
HETATM    4  C1    D T 601       5.154 -20.022  15.761  1.00 18.60     0.041 A 
HETATM    5  O17   D T 601       5.410 -17.861  16.723  1.00 17.91    -0.188 OA
HETATM    6  C2    D T 601       5.175 -20.843  14.649  1.00 21.19     0.060 A 
HETATM    7  C3    D T 601       5.467 -20.334  13.369  1.00 21.69     0.014 A 
HETATM    8 CL14   D T 601       4.829 -22.551  14.839  1.00 22.27    -0.082 Cl
HETATM    9  C4    D T 601       5.742 -18.978  13.228  1.00 21.63     0.028 A 
ENDBRANCH   1   2
BRANCH   1  10
HETATM   10  C8    D T 601       6.238 -16.262  13.006  1.00 23.87     0.111 A 
HETATM   11  C9    D T 601       5.173 -15.712  12.301  1.00 25.62     0.081 A 
HETATM   12  C10   D T 601       5.350 -15.171  11.047  1.00 25.25     0.025 A 
HETATM   13 CL16   D T 601       3.593 -15.716  13.017  1.00 24.80    -0.080 Cl
HETATM   14  C11   D T 601       6.618 -15.172  10.472  1.00 28.16     0.059 A 
HETATM   15  C12   D T 601       7.707 -15.714  11.163  1.00 26.66     0.013 A 
HETATM   16 CL15   D T 601       6.846 -14.499   8.859  1.00 31.04    -0.082 Cl
HETATM   17  C13   D T 601       7.519 -16.261  12.437  1.00 26.39     0.026 A 
ENDBRANCH   1  10
TORSDOF 2
ENDMDL
MODEL 8
REMARK VINA RESULT:      -7.6      3.528      4.098
REMARK  2 active torsions:
REMARK  status: ('A' for Active; 'I' for Inactive)
REMARK    1  A    between atoms: C5_4  and  O7_13 
REMARK    2  A    between atoms: C8_10  and  O7_13 
ROOT
HETATM    1  O7    D T 601      -1.568 -23.724  16.562  1.00 22.53    -0.304 OA
ENDROOT
BRANCH   1   2
HETATM    2  C5    D T 601      -0.315 -23.191  16.339  1.00 21.09     0.125 A 
HETATM    3  C6    D T 601       0.772 -24.065  16.251  1.00 20.02     0.154 A 
HETATM    4  C1    D T 601       2.043 -23.574  16.026  1.00 18.60     0.041 A 
HETATM    5  O17   D T 601       0.581 -25.417  16.384  1.00 17.91    -0.188 OA
HETATM    6  C2    D T 601       2.235 -22.211  15.894  1.00 21.19     0.060 A 
HETATM    7  C3    D T 601       1.157 -21.310  15.979  1.00 21.69     0.014 A 
HETATM    8 CL14   D T 601       3.852 -21.598  15.615  1.00 22.27    -0.082 Cl
HETATM    9  C4    D T 601      -0.123 -21.806  16.203  1.00 21.63     0.028 A 
ENDBRANCH   1   2
BRANCH   1  10
HETATM   10  C8    D T 601      -2.240 -23.361  17.722  1.00 23.87     0.111 A 
HETATM   11  C9    D T 601      -3.408 -22.614  17.602  1.00 25.62     0.081 A 
HETATM   12  C10   D T 601      -4.119 -22.217  18.712  1.00 25.25     0.025 A 
HETATM   13 CL16   D T 601      -3.967 -22.170  16.021  1.00 24.80    -0.080 Cl
HETATM   14  C11   D T 601      -3.666 -22.570  19.980  1.00 28.16     0.059 A 
HETATM   15  C12   D T 601      -2.498 -23.327  20.128  1.00 26.66     0.013 A 
HETATM   16 CL15   D T 601      -4.563 -22.048  21.405  1.00 31.04    -0.082 Cl
HETATM   17  C13   D T 601      -1.781 -23.727  18.995  1.00 26.39     0.026 A 
ENDBRANCH   1  10
TORSDOF 2
ENDMDL
MODEL 9
REMARK VINA RESULT:      -7.5     10.806     11.725
REMARK  2 active torsions:
REMARK  status: ('A' for Active; 'I' for Inactive)
REMARK    1  A    between atoms: C5_4  and  O7_13 
REMARK    2  A    between atoms: C8_10  and  O7_13 
ROOT
HETATM    1  O7    D T 601       4.265 -18.838  12.615  1.00 22.53    -0.304 OA
ENDROOT
BRANCH   1   2
HETATM    2  C5    D T 601       4.870 -17.864  11.848  1.00 21.09     0.125 A 
HETATM    3  C6    D T 601       6.059 -18.184  11.187  1.00 20.02     0.154 A 
HETATM    4  C1    D T 601       6.696 -17.239  10.407  1.00 18.60     0.041 A 
HETATM    5  O17   D T 601       6.597 -19.440  11.306  1.00 17.91    -0.188 OA
HETATM    6  C2    D T 601       6.154 -15.973  10.289  1.00 21.19     0.060 A 
HETATM    7  C3    D T 601       4.958 -15.625  10.943  1.00 21.69     0.014 A 
HETATM    8 CL14   D T 601       6.974 -14.780   9.301  1.00 22.27    -0.082 Cl
HETATM    9  C4    D T 601       4.315 -16.579  11.727  1.00 21.63     0.028 A 
ENDBRANCH   1   2
BRANCH   1  10
HETATM   10  C8    D T 601       4.387 -18.759  13.996  1.00 23.87     0.111 A 
HETATM   11  C9    D T 601       3.268 -18.393  14.737  1.00 25.62     0.081 A 
HETATM   12  C10   D T 601       3.323 -18.290  16.109  1.00 25.25     0.025 A 
HETATM   13 CL16   D T 601       1.781 -18.053  13.911  1.00 24.80    -0.080 Cl
HETATM   14  C11   D T 601       4.518 -18.559  16.770  1.00 28.16     0.059 A 
HETATM   15  C12   D T 601       5.656 -18.936  16.048  1.00 26.66     0.013 A 
HETATM   16 CL15   D T 601       4.598 -18.411  18.525  1.00 31.04    -0.082 Cl
HETATM   17  C13   D T 601       5.593 -19.038  14.655  1.00 26.39     0.026 A 
ENDBRANCH   1  10
TORSDOF 2
ENDMDL
