MODEL 1
REMARK VINA RESULT:    -7.760      0.000      0.000
REMARK INTER + INTRA:          -8.912
REMARK INTER:                  -8.668
REMARK INTRA:                  -0.244
REMARK UNBOUND:                -0.244
REMARK  2 active torsions:
REMARK  status: ('A' for Active; 'I' for Inactive)
REMARK    1  A    between atoms: C5_4  and  O7_13 
REMARK    2  A    between atoms: C8_10  and  O7_13 
ROOT
HETATM    1  O7    D T 601       5.713   0.066  -7.624  1.00 22.53    -0.304 OA
ENDROOT
BRANCH   1   2
HETATM    2  C5    D T 601       5.014   0.998  -6.885  1.00 21.09     0.125 A 
HETATM    3  C6    D T 601       4.012   0.544  -6.023  1.00 20.02     0.154 A 
HETATM    4  C1    D T 601       3.290   1.443  -5.263  1.00 18.60     0.041 A 
HETATM    5  O17   D T 601       3.744  -0.797  -5.924  1.00 17.91    -0.188 OA
HETATM    6  C2    D T 601       3.559   2.795  -5.364  1.00 21.19     0.060 A 
HETATM    7  C3    D T 601       4.563   3.278  -6.225  1.00 21.69     0.014 A 
HETATM    8 CL14   D T 601       2.632   3.927  -4.400  1.00 22.27    -0.082 Cl
HETATM    9  C4    D T 601       5.292   2.372  -6.988  1.00 21.63     0.028 A 
ENDBRANCH   1   2
BRANCH   1  10
HETATM   10  C8    D T 601       6.170   0.433  -8.884  1.00 23.87     0.111 A 
HETATM   11  C9    D T 601       5.266   0.425  -9.940  1.00 25.62     0.081 A 
HETATM   12  C10   D T 601       5.655   0.773 -11.215  1.00 25.25     0.025 A 
HETATM   13 CL16   D T 601       3.621  -0.037  -9.643  1.00 24.80    -0.080 Cl
HETATM   14  C11   D T 601       6.976   1.140 -11.453  1.00 28.16     0.059 A 
HETATM   15  C12   D T 601       7.904   1.163 -10.405  1.00 26.66     0.013 A 
HETATM   16 CL15   D T 601       7.484   1.568 -13.086  1.00 31.04    -0.082 Cl
HETATM   17  C13   D T 601       7.501   0.808  -9.113  1.00 26.39     0.026 A 
ENDBRANCH   1  10
TORSDOF 2
ENDMDL
MODEL 2
REMARK VINA RESULT:    -7.629      3.257      5.986
REMARK INTER + INTRA:          -8.765
REMARK INTER:                  -8.286
REMARK INTRA:                  -0.479
REMARK UNBOUND:                -0.244
REMARK  2 active torsions:
REMARK  status: ('A' for Active; 'I' for Inactive)
REMARK    1  A    between atoms: C5_4  and  O7_13 
REMARK    2  A    between atoms: C8_10  and  O7_13 
ROOT
HETATM    1  O7    D T 601       6.129   1.666  -7.880  1.00 22.53    -0.304 OA
ENDROOT
BRANCH   1   2
HETATM    2  C5    D T 601       6.466   1.524  -9.211  1.00 21.09     0.125 A 
HETATM    3  C6    D T 601       5.972   2.462 -10.122  1.00 20.02     0.154 A 
HETATM    4  C1    D T 601       6.287   2.359 -11.463  1.00 18.60     0.041 A 
HETATM    5  O17   D T 601       5.177   3.491  -9.689  1.00 17.91    -0.188 OA
HETATM    6  C2    D T 601       7.087   1.319 -11.899  1.00 21.19     0.060 A 
HETATM    7  C3    D T 601       7.596   0.363 -11.001  1.00 21.69     0.014 A 
HETATM    8 CL14   D T 601       7.475   1.195 -13.603  1.00 22.27    -0.082 Cl
HETATM    9  C4    D T 601       7.281   0.469  -9.650  1.00 21.63     0.028 A 
ENDBRANCH   1   2
BRANCH   1  10
HETATM   10  C8    D T 601       7.150   1.663  -6.938  1.00 23.87     0.111 A 
HETATM   11  C9    D T 601       7.133   0.685  -5.949  1.00 25.62     0.081 A 
HETATM   12  C10   D T 601       8.112   0.630  -4.983  1.00 25.25     0.025 A 
HETATM   13 CL16   D T 601       5.847  -0.478  -5.934  1.00 24.80    -0.080 Cl
HETATM   14  C11   D T 601       9.142   1.567  -4.995  1.00 28.16     0.059 A 
HETATM   15  C12   D T 601       9.186   2.557  -5.984  1.00 26.66     0.013 A 
HETATM   16 CL15   D T 601      10.388   1.512  -3.749  1.00 31.04    -0.082 Cl
HETATM   17  C13   D T 601       8.187   2.607  -6.962  1.00 26.39     0.026 A 
ENDBRANCH   1  10
TORSDOF 2
ENDMDL
MODEL 3
REMARK VINA RESULT:    -7.619      1.344      1.607
REMARK INTER + INTRA:          -8.754
REMARK INTER:                  -8.227
REMARK INTRA:                  -0.527
REMARK UNBOUND:                -0.244
REMARK  2 active torsions:
REMARK  status: ('A' for Active; 'I' for Inactive)
REMARK    1  A    between atoms: C5_4  and  O7_13 
REMARK    2  A    between atoms: C8_10  and  O7_13 
ROOT
HETATM    1  O7    D T 601       5.769   0.545  -7.625  1.00 22.53    -0.304 OA
ENDROOT
BRANCH   1   2
HETATM    2  C5    D T 601       5.538   1.631  -6.806  1.00 21.09     0.125 A 
HETATM    3  C6    D T 601       6.277   1.739  -5.625  1.00 20.02     0.154 A 
HETATM    4  C1    D T 601       6.078   2.812  -4.778  1.00 18.60     0.041 A 
HETATM    5  O17   D T 601       7.206   0.784  -5.304  1.00 17.91    -0.188 OA
HETATM    6  C2    D T 601       5.140   3.774  -5.101  1.00 21.19     0.060 A 
HETATM    7  C3    D T 601       4.383   3.688  -6.284  1.00 21.69     0.014 A 
HETATM    8 CL14   D T 601       4.892   5.127  -4.016  1.00 22.27    -0.082 Cl
HETATM    9  C4    D T 601       4.585   2.609  -7.139  1.00 21.63     0.028 A 
ENDBRANCH   1   2
BRANCH   1  10
HETATM   10  C8    D T 601       6.247   0.778  -8.909  1.00 23.87     0.111 A 
HETATM   11  C9    D T 601       5.382   0.583  -9.980  1.00 25.62     0.081 A 
HETATM   12  C10   D T 601       5.794   0.791 -11.277  1.00 25.25     0.025 A 
HETATM   13 CL16   D T 601       3.757   0.061  -9.670  1.00 24.80    -0.080 Cl
HETATM   14  C11   D T 601       7.099   1.207 -11.524  1.00 28.16     0.059 A 
HETATM   15  C12   D T 601       7.988   1.417 -10.463  1.00 26.66     0.013 A 
HETATM   16 CL15   D T 601       7.638   1.456 -13.184  1.00 31.04    -0.082 Cl
HETATM   17  C13   D T 601       7.561   1.203  -9.148  1.00 26.39     0.026 A 
ENDBRANCH   1  10
TORSDOF 2
ENDMDL
MODEL 4
REMARK VINA RESULT:    -7.613      3.208      3.540
REMARK INTER + INTRA:          -8.747
REMARK INTER:                  -8.262
REMARK INTRA:                  -0.486
REMARK UNBOUND:                -0.244
REMARK  2 active torsions:
REMARK  status: ('A' for Active; 'I' for Inactive)
REMARK    1  A    between atoms: C5_4  and  O7_13 
REMARK    2  A    between atoms: C8_10  and  O7_13 
ROOT
HETATM    1  O7    D T 601       6.180   1.644  -7.606  1.00 22.53    -0.304 OA
ENDROOT
BRANCH   1   2
HETATM    2  C5    D T 601       7.224   1.635  -6.703  1.00 21.09     0.125 A 
HETATM    3  C6    D T 601       7.251   0.630  -5.732  1.00 20.02     0.154 A 
HETATM    4  C1    D T 601       8.279   0.583  -4.812  1.00 18.60     0.041 A 
HETATM    5  O17   D T 601       6.259  -0.315  -5.690  1.00 17.91    -0.188 OA
HETATM    6  C2    D T 601       9.279   1.537  -4.852  1.00 21.19     0.060 A 
HETATM    7  C3    D T 601       9.274   2.558  -5.821  1.00 21.69     0.014 A 
HETATM    8 CL14   D T 601      10.575   1.470  -3.676  1.00 22.27    -0.082 Cl
HETATM    9  C4    D T 601       8.239   2.605  -6.750  1.00 21.63     0.028 A 
ENDBRANCH   1   2
BRANCH   1  10
HETATM   10  C8    D T 601       6.475   1.509  -8.956  1.00 23.87     0.111 A 
HETATM   11  C9    D T 601       5.945   2.439  -9.843  1.00 25.62     0.081 A 
HETATM   12  C10   D T 601       6.194   2.359 -11.196  1.00 25.25     0.025 A 
HETATM   13 CL16   D T 601       4.947   3.718  -9.231  1.00 24.80    -0.080 Cl
HETATM   14  C11   D T 601       6.993   1.329 -11.686  1.00 28.16     0.059 A 
HETATM   15  C12   D T 601       7.544   0.384 -10.812  1.00 26.66     0.013 A 
HETATM   16 CL15   D T 601       7.299   1.210 -13.418  1.00 31.04    -0.082 Cl
HETATM   17  C13   D T 601       7.285   0.472  -9.440  1.00 26.39     0.026 A 
ENDBRANCH   1  10
TORSDOF 2
ENDMDL
MODEL 5
REMARK VINA RESULT:    -7.609      1.111      5.718
REMARK INTER + INTRA:          -8.743
REMARK INTER:                  -8.489
REMARK INTRA:                  -0.254
REMARK UNBOUND:                -0.244
REMARK  2 active torsions:
REMARK  status: ('A' for Active; 'I' for Inactive)
REMARK    1  A    between atoms: C5_4  and  O7_13 
REMARK    2  A    between atoms: C8_10  and  O7_13 
ROOT
HETATM    1  O7    D T 601       5.803   0.100  -7.591  1.00 22.53    -0.304 OA
ENDROOT
BRANCH   1   2
HETATM    2  C5    D T 601       6.221   0.447  -8.860  1.00 21.09     0.125 A 
HETATM    3  C6    D T 601       5.282   0.431  -9.895  1.00 20.02     0.154 A 
HETATM    4  C1    D T 601       5.658   0.774 -11.178  1.00 18.60     0.041 A 
HETATM    5  O17   D T 601       3.982   0.078  -9.639  1.00 17.91    -0.188 OA
HETATM    6  C2    D T 601       6.970   1.127 -11.436  1.00 21.19     0.060 A 
HETATM    7  C3    D T 601       7.934   1.151 -10.411  1.00 21.69     0.014 A 
HETATM    8 CL14   D T 601       7.436   1.554 -13.070  1.00 22.27    -0.082 Cl
HETATM    9  C4    D T 601       7.554   0.808  -9.117  1.00 21.63     0.028 A 
ENDBRANCH   1   2
BRANCH   1  10
HETATM   10  C8    D T 601       5.103   1.041  -6.848  1.00 23.87     0.111 A 
HETATM   11  C9    D T 601       3.989   0.619  -6.131  1.00 25.62     0.081 A 
HETATM   12  C10   D T 601       3.247   1.502  -5.378  1.00 25.25     0.025 A 
HETATM   13 CL16   D T 601       3.525  -1.051  -6.196  1.00 24.80    -0.080 Cl
HETATM   14  C11   D T 601       3.618   2.843  -5.331  1.00 28.16     0.059 A 
HETATM   15  C12   D T 601       4.740   3.292  -6.038  1.00 26.66     0.013 A 
HETATM   16 CL15   D T 601       2.661   3.981  -4.384  1.00 31.04    -0.082 Cl
HETATM   17  C13   D T 601       5.488   2.388  -6.800  1.00 26.39     0.026 A 
ENDBRANCH   1  10
TORSDOF 2
ENDMDL
MODEL 6
REMARK VINA RESULT:    -7.459      1.495      1.906
REMARK INTER + INTRA:          -8.576
REMARK INTER:                  -8.203
REMARK INTRA:                  -0.373
REMARK UNBOUND:                -0.244
REMARK  2 active torsions:
REMARK  status: ('A' for Active; 'I' for Inactive)
REMARK    1  A    between atoms: C5_4  and  O7_13 
REMARK    2  A    between atoms: C8_10  and  O7_13 
ROOT
HETATM    1  O7    D T 601       5.529   0.383  -6.890  1.00 22.53    -0.304 OA
ENDROOT
BRANCH   1   2
HETATM    2  C5    D T 601       4.821   1.372  -6.238  1.00 21.09     0.125 A 
HETATM    3  C6    D T 601       3.927   0.995  -5.233  1.00 20.02     0.154 A 
HETATM    4  C1    D T 601       3.200   1.954  -4.555  1.00 18.60     0.041 A 
HETATM    5  O17   D T 601       3.769  -0.329  -4.913  1.00 17.91    -0.188 OA
HETATM    6  C2    D T 601       3.357   3.288  -4.880  1.00 21.19     0.060 A 
HETATM    7  C3    D T 601       4.252   3.694  -5.888  1.00 21.69     0.014 A 
HETATM    8 CL14   D T 601       2.426   4.495  -4.017  1.00 22.27    -0.082 Cl
HETATM    9  C4    D T 601       4.985   2.728  -6.570  1.00 21.63     0.028 A 
ENDBRANCH   1   2
BRANCH   1  10
HETATM   10  C8    D T 601       5.820   0.558  -8.236  1.00 23.87     0.111 A 
HETATM   11  C9    D T 601       7.118   0.910  -8.591  1.00 25.62     0.081 A 
HETATM   12  C10   D T 601       7.471   1.104  -9.908  1.00 25.25     0.025 A 
HETATM   13 CL16   D T 601       8.308   1.114  -7.346  1.00 24.80    -0.080 Cl
HETATM   14  C11   D T 601       6.513   0.944 -10.905  1.00 28.16     0.059 A 
HETATM   15  C12   D T 601       5.201   0.583 -10.575  1.00 26.66     0.013 A 
HETATM   16 CL15   D T 601       6.955   1.210 -12.591  1.00 31.04    -0.082 Cl
HETATM   17  C13   D T 601       4.851   0.388  -9.235  1.00 26.39     0.026 A 
ENDBRANCH   1  10
TORSDOF 2
ENDMDL
MODEL 7
REMARK VINA RESULT:    -7.253      2.140      5.987
REMARK INTER + INTRA:          -8.346
REMARK INTER:                  -7.810
REMARK INTRA:                  -0.536
REMARK UNBOUND:                -0.244
REMARK  2 active torsions:
REMARK  status: ('A' for Active; 'I' for Inactive)
REMARK    1  A    between atoms: C5_4  and  O7_13 
REMARK    2  A    between atoms: C8_10  and  O7_13 
ROOT
HETATM    1  O7    D T 601       4.185   1.450  -7.867  1.00 22.53    -0.304 OA
ENDROOT
BRANCH   1   2
HETATM    2  C5    D T 601       5.094   1.275  -8.891  1.00 21.09     0.125 A 
HETATM    3  C6    D T 601       5.099   2.201  -9.939  1.00 20.02     0.154 A 
HETATM    4  C1    D T 601       5.993   2.064 -10.981  1.00 18.60     0.041 A 
HETATM    5  O17   D T 601       4.217   3.251  -9.934  1.00 17.91    -0.188 OA
HETATM    6  C2    D T 601       6.880   1.003 -10.987  1.00 21.19     0.060 A 
HETATM    7  C3    D T 601       6.896   0.059  -9.944  1.00 21.69     0.014 A 
HETATM    8 CL14   D T 601       8.007   0.837 -12.318  1.00 22.27    -0.082 Cl
HETATM    9  C4    D T 601       5.996   0.198  -8.892  1.00 21.63     0.028 A 
ENDBRANCH   1   2
BRANCH   1  10
HETATM   10  C8    D T 601       4.659   1.870  -6.631  1.00 23.87     0.111 A 
HETATM   11  C9    D T 601       4.586   0.985  -5.561  1.00 25.62     0.081 A 
HETATM   12  C10   D T 601       5.033   1.340  -4.308  1.00 25.25     0.025 A 
HETATM   13 CL16   D T 601       3.913  -0.593  -5.815  1.00 24.80    -0.080 Cl
HETATM   14  C11   D T 601       5.570   2.608  -4.106  1.00 28.16     0.059 A 
HETATM   15  C12   D T 601       5.661   3.516  -5.168  1.00 26.66     0.013 A 
HETATM   16 CL15   D T 601       6.126   3.076  -2.499  1.00 31.04    -0.082 Cl
HETATM   17  C13   D T 601       5.204   3.147  -6.437  1.00 26.39     0.026 A 
ENDBRANCH   1  10
TORSDOF 2
ENDMDL
MODEL 8
REMARK VINA RESULT:    -7.245      2.120      6.211
REMARK INTER + INTRA:          -8.336
REMARK INTER:                  -8.064
REMARK INTRA:                  -0.272
REMARK UNBOUND:                -0.244
REMARK  2 active torsions:
REMARK  status: ('A' for Active; 'I' for Inactive)
REMARK    1  A    between atoms: C5_4  and  O7_13 
REMARK    2  A    between atoms: C8_10  and  O7_13 
ROOT
HETATM    1  O7    D T 601       4.589   3.012  -7.626  1.00 22.53    -0.304 OA
ENDROOT
BRANCH   1   2
HETATM    2  C5    D T 601       5.319   2.452  -8.655  1.00 21.09     0.125 A 
HETATM    3  C6    D T 601       6.712   2.432  -8.544  1.00 20.02     0.154 A 
HETATM    4  C1    D T 601       7.480   1.879  -9.550  1.00 18.60     0.041 A 
HETATM    5  O17   D T 601       7.323   2.958  -7.435  1.00 17.91    -0.188 OA
HETATM    6  C2    D T 601       6.864   1.351 -10.669  1.00 21.19     0.060 A 
HETATM    7  C3    D T 601       5.463   1.359 -10.804  1.00 21.69     0.014 A 
HETATM    8 CL14   D T 601       7.848   0.658 -11.941  1.00 22.27    -0.082 Cl
HETATM    9  C4    D T 601       4.689   1.914  -9.789  1.00 21.63     0.028 A 
ENDBRANCH   1   2
BRANCH   1  10
HETATM   10  C8    D T 601       4.260   2.211  -6.540  1.00 23.87     0.111 A 
HETATM   11  C9    D T 601       4.373   2.752  -5.263  1.00 25.62     0.081 A 
HETATM   12  C10   D T 601       4.068   2.010  -4.144  1.00 25.25     0.025 A 
HETATM   13 CL16   D T 601       4.916   4.390  -5.085  1.00 24.80    -0.080 Cl
HETATM   14  C11   D T 601       3.636   0.695  -4.289  1.00 28.16     0.059 A 
HETATM   15  C12   D T 601       3.507   0.129  -5.563  1.00 26.66     0.013 A 
HETATM   16 CL15   D T 601       3.263  -0.265  -2.858  1.00 31.04    -0.082 Cl
HETATM   17  C13   D T 601       3.819   0.890  -6.695  1.00 26.39     0.026 A 
ENDBRANCH   1  10
TORSDOF 2
ENDMDL
MODEL 9
REMARK VINA RESULT:    -7.219      2.564      6.218
REMARK INTER + INTRA:          -8.308
REMARK INTER:                  -7.791
REMARK INTRA:                  -0.517
REMARK UNBOUND:                -0.244
REMARK  2 active torsions:
REMARK  status: ('A' for Active; 'I' for Inactive)
REMARK    1  A    between atoms: C5_4  and  O7_13 
REMARK    2  A    between atoms: C8_10  and  O7_13 
ROOT
HETATM    1  O7    D T 601       6.085   3.138  -7.004  1.00 22.53    -0.304 OA
ENDROOT
BRANCH   1   2
HETATM    2  C5    D T 601       6.321   2.653  -8.275  1.00 21.09     0.125 A 
HETATM    3  C6    D T 601       5.556   3.160  -9.329  1.00 20.02     0.154 A 
HETATM    4  C1    D T 601       5.762   2.705 -10.616  1.00 18.60     0.041 A 
HETATM    5  O17   D T 601       4.601   4.115  -9.091  1.00 17.91    -0.188 OA
HETATM    6  C2    D T 601       6.724   1.741 -10.855  1.00 21.19     0.060 A 
HETATM    7  C3    D T 601       7.507   1.215  -9.811  1.00 21.69     0.014 A 
HETATM    8 CL14   D T 601       6.971   1.166 -12.492  1.00 22.27    -0.082 Cl
HETATM    9  C4    D T 601       7.301   1.676  -8.514  1.00 21.63     0.028 A 
ENDBRANCH   1   2
BRANCH   1  10
HETATM   10  C8    D T 601       5.396   2.330  -6.109  1.00 23.87     0.111 A 
HETATM   11  C9    D T 601       6.088   1.812  -5.019  1.00 25.62     0.081 A 
HETATM   12  C10   D T 601       5.464   1.000  -4.098  1.00 25.25     0.025 A 
HETATM   13 CL16   D T 601       7.769   2.192  -4.828  1.00 24.80    -0.080 Cl
HETATM   14  C11   D T 601       4.116   0.693  -4.255  1.00 28.16     0.059 A 
HETATM   15  C12   D T 601       3.395   1.208  -5.339  1.00 26.66     0.013 A 
HETATM   16 CL15   D T 601       3.317  -0.361  -3.089  1.00 31.04    -0.082 Cl
HETATM   17  C13   D T 601       4.036   2.031  -6.271  1.00 26.39     0.026 A 
ENDBRANCH   1  10
TORSDOF 2
ENDMDL
