MODEL 1
REMARK VINA RESULT:    -7.919      0.000      0.000
REMARK INTER + INTRA:          -9.184
REMARK INTER:                  -8.845
REMARK INTRA:                  -0.339
REMARK UNBOUND:                -0.339
REMARK  2 active torsions:
REMARK  status: ('A' for Active; 'I' for Inactive)
REMARK    1  A    between atoms: C5_4  and  O7_13 
REMARK    2  A    between atoms: C8_10  and  O7_13 
ROOT
HETATM    1  O7    D T 601      -1.232 -24.384  18.970  1.00 22.53    -0.304 OA
ENDROOT
BRANCH   1   2
HETATM    2  C5    D T 601      -1.251 -24.872  17.679  1.00 21.09     0.125 A 
HETATM    3  C6    D T 601      -0.243 -24.464  16.801  1.00 20.02     0.154 A 
HETATM    4  C1    D T 601      -0.223 -24.930  15.502  1.00 18.60     0.041 A 
HETATM    5  O17   D T 601       0.734 -23.601  17.227  1.00 17.91    -0.188 OA
HETATM    6  C2    D T 601      -1.210 -25.799  15.073  1.00 21.19     0.060 A 
HETATM    7  C3    D T 601      -2.235 -26.225  15.937  1.00 21.69     0.014 A 
HETATM    8 CL14   D T 601      -1.178 -26.380  13.420  1.00 22.27    -0.082 Cl
HETATM    9  C4    D T 601      -2.253 -25.756  17.247  1.00 21.63     0.028 A 
ENDBRANCH   1   2
BRANCH   1  10
HETATM   10  C8    D T 601      -2.273 -23.559  19.377  1.00 23.87     0.111 A 
HETATM   11  C9    D T 601      -2.687 -23.626  20.704  1.00 25.62     0.081 A 
HETATM   12  C10   D T 601      -3.717 -22.840  21.171  1.00 25.25     0.025 A 
HETATM   13 CL16   D T 601      -1.893 -24.729  21.782  1.00 24.80    -0.080 Cl
HETATM   14  C11   D T 601      -4.355 -21.959  20.303  1.00 28.16     0.059 A 
HETATM   15  C12   D T 601      -3.953 -21.867  18.965  1.00 26.66     0.013 A 
HETATM   16 CL15   D T 601      -5.686 -20.964  20.891  1.00 31.04    -0.082 Cl
HETATM   17  C13   D T 601      -2.906 -22.669  18.498  1.00 26.39     0.026 A 
ENDBRANCH   1  10
TORSDOF 2
ENDMDL
MODEL 2
REMARK VINA RESULT:    -7.860      1.381      1.992
REMARK INTER + INTRA:          -9.118
REMARK INTER:                  -8.751
REMARK INTRA:                  -0.367
REMARK UNBOUND:                -0.339
REMARK  2 active torsions:
REMARK  status: ('A' for Active; 'I' for Inactive)
REMARK    1  A    between atoms: C5_4  and  O7_13 
REMARK    2  A    between atoms: C8_10  and  O7_13 
ROOT
HETATM    1  O7    D T 601      -1.761 -24.706  18.923  1.00 22.53    -0.304 OA
ENDROOT
BRANCH   1   2
HETATM    2  C5    D T 601      -1.084 -24.410  17.757  1.00 21.09     0.125 A 
HETATM    3  C6    D T 601      -1.466 -25.066  16.584  1.00 20.02     0.154 A 
HETATM    4  C1    D T 601      -0.817 -24.797  15.395  1.00 18.60     0.041 A 
HETATM    5  O17   D T 601      -2.492 -25.977  16.606  1.00 17.91    -0.188 OA
HETATM    6  C2    D T 601       0.217 -23.881  15.374  1.00 21.19     0.060 A 
HETATM    7  C3    D T 601       0.621 -23.207  16.541  1.00 21.69     0.014 A 
HETATM    8 CL14   D T 601       1.038 -23.552  13.861  1.00 22.27    -0.082 Cl
HETATM    9  C4    D T 601      -0.035 -23.476  17.739  1.00 21.63     0.028 A 
ENDBRANCH   1   2
BRANCH   1  10
HETATM   10  C8    D T 601      -2.612 -23.744  19.452  1.00 23.87     0.111 A 
HETATM   11  C9    D T 601      -2.728 -23.656  20.836  1.00 25.62     0.081 A 
HETATM   12  C10   D T 601      -3.558 -22.729  21.425  1.00 25.25     0.025 A 
HETATM   13 CL16   D T 601      -1.813 -24.742  21.832  1.00 24.80    -0.080 Cl
HETATM   14  C11   D T 601      -4.295 -21.860  20.625  1.00 28.16     0.059 A 
HETATM   15  C12   D T 601      -4.191 -21.924  19.230  1.00 26.66     0.013 A 
HETATM   16 CL15   D T 601      -5.373 -20.685  21.374  1.00 31.04    -0.082 Cl
HETATM   17  C13   D T 601      -3.345 -22.869  18.639  1.00 26.39     0.026 A 
ENDBRANCH   1  10
TORSDOF 2
ENDMDL
MODEL 3
REMARK VINA RESULT:    -7.821      1.851      6.019
REMARK INTER + INTRA:          -9.075
REMARK INTER:                  -8.611
REMARK INTRA:                  -0.464
REMARK UNBOUND:                -0.339
REMARK  2 active torsions:
REMARK  status: ('A' for Active; 'I' for Inactive)
REMARK    1  A    between atoms: C5_4  and  O7_13 
REMARK    2  A    between atoms: C8_10  and  O7_13 
ROOT
HETATM    1  O7    D T 601      -1.853 -24.729  18.677  1.00 22.53    -0.304 OA
ENDROOT
BRANCH   1   2
HETATM    2  C5    D T 601      -2.622 -23.756  19.280  1.00 21.09     0.125 A 
HETATM    3  C6    D T 601      -2.607 -23.668  20.675  1.00 20.02     0.154 A 
HETATM    4  C1    D T 601      -3.360 -22.706  21.319  1.00 18.60     0.041 A 
HETATM    5  O17   D T 601      -1.839 -24.534  21.411  1.00 17.91    -0.188 OA
HETATM    6  C2    D T 601      -4.135 -21.835  20.576  1.00 21.19     0.060 A 
HETATM    7  C3    D T 601      -4.168 -21.902  19.171  1.00 21.69     0.014 A 
HETATM    8 CL14   D T 601      -5.092 -20.622  21.404  1.00 22.27    -0.082 Cl
HETATM    9  C4    D T 601      -3.407 -22.870  18.522  1.00 21.63     0.028 A 
ENDBRANCH   1   2
BRANCH   1  10
HETATM   10  C8    D T 601      -1.053 -24.364  17.602  1.00 23.87     0.111 A 
HETATM   11  C9    D T 601      -1.320 -24.930  16.359  1.00 25.62     0.081 A 
HETATM   12  C10   D T 601      -0.561 -24.615  15.254  1.00 25.25     0.025 A 
HETATM   13 CL16   D T 601      -2.628 -26.059  16.207  1.00 24.80    -0.080 Cl
HETATM   14  C11   D T 601       0.491 -23.712  15.378  1.00 28.16     0.059 A 
HETATM   15  C12   D T 601       0.775 -23.124  16.615  1.00 26.66     0.013 A 
HETATM   16 CL15   D T 601       1.477 -23.320  13.970  1.00 31.04    -0.082 Cl
HETATM   17  C13   D T 601       0.000 -23.449  17.734  1.00 26.39     0.026 A 
ENDBRANCH   1  10
TORSDOF 2
ENDMDL
MODEL 4
REMARK VINA RESULT:    -7.714     10.812     12.746
REMARK INTER + INTRA:          -8.955
REMARK INTER:                  -8.860
REMARK INTRA:                  -0.095
REMARK UNBOUND:                -0.339
REMARK  2 active torsions:
REMARK  status: ('A' for Active; 'I' for Inactive)
REMARK    1  A    between atoms: C5_4  and  O7_13 
REMARK    2  A    between atoms: C8_10  and  O7_13 
ROOT
HETATM    1  O7    D T 601       5.402 -16.032  13.993  1.00 22.53    -0.304 OA
ENDROOT
BRANCH   1   2
HETATM    2  C5    D T 601       5.391 -17.376  14.307  1.00 21.09     0.125 A 
HETATM    3  C6    D T 601       5.748 -17.757  15.603  1.00 20.02     0.154 A 
HETATM    4  C1    D T 601       5.747 -19.091  15.959  1.00 18.60     0.041 A 
HETATM    5  O17   D T 601       6.097 -16.808  16.529  1.00 17.91    -0.188 OA
HETATM    6  C2    D T 601       5.397 -20.048  15.025  1.00 21.19     0.060 A 
HETATM    7  C3    D T 601       5.033 -19.690  13.713  1.00 21.69     0.014 A 
HETATM    8 CL14   D T 601       5.405 -21.739  15.486  1.00 22.27    -0.082 Cl
HETATM    9  C4    D T 601       5.032 -18.345  13.355  1.00 21.63     0.028 A 
ENDBRANCH   1   2
BRANCH   1  10
HETATM   10  C8    D T 601       5.733 -15.662  12.696  1.00 23.87     0.111 A 
HETATM   11  C9    D T 601       7.050 -15.830  12.278  1.00 25.62     0.081 A 
HETATM   12  C10   D T 601       7.445 -15.478  11.006  1.00 25.25     0.025 A 
HETATM   13 CL16   D T 601       8.211 -16.488  13.385  1.00 24.80    -0.080 Cl
HETATM   14  C11   D T 601       6.513 -14.946  10.120  1.00 28.16     0.059 A 
HETATM   15  C12   D T 601       5.181 -14.774  10.514  1.00 26.66     0.013 A 
HETATM   16 CL15   D T 601       7.019 -14.476   8.498  1.00 31.04    -0.082 Cl
HETATM   17  C13   D T 601       4.787 -15.134  11.807  1.00 26.39     0.026 A 
ENDBRANCH   1  10
TORSDOF 2
ENDMDL
MODEL 5
REMARK VINA RESULT:    -7.662      1.440      5.999
REMARK INTER + INTRA:          -8.897
REMARK INTER:                  -8.486
REMARK INTRA:                  -0.411
REMARK UNBOUND:                -0.339
REMARK  2 active torsions:
REMARK  status: ('A' for Active; 'I' for Inactive)
REMARK    1  A    between atoms: C5_4  and  O7_13 
REMARK    2  A    between atoms: C8_10  and  O7_13 
ROOT
HETATM    1  O7    D T 601      -1.177 -24.150  18.838  1.00 22.53    -0.304 OA
ENDROOT
BRANCH   1   2
HETATM    2  C5    D T 601      -2.239 -23.426  19.340  1.00 21.09     0.125 A 
HETATM    3  C6    D T 601      -2.576 -23.588  20.686  1.00 20.02     0.154 A 
HETATM    4  C1    D T 601      -3.631 -22.880  21.229  1.00 18.60     0.041 A 
HETATM    5  O17   D T 601      -1.858 -24.448  21.477  1.00 17.91    -0.188 OA
HETATM    6  C2    D T 601      -4.355 -22.015  20.430  1.00 21.19     0.060 A 
HETATM    7  C3    D T 601      -4.036 -21.833  19.072  1.00 21.69     0.014 A 
HETATM    8 CL14   D T 601      -5.694 -21.126  21.128  1.00 22.27    -0.082 Cl
HETATM    9  C4    D T 601      -2.972 -22.544  18.526  1.00 21.63     0.028 A 
ENDBRANCH   1   2
BRANCH   1  10
HETATM   10  C8    D T 601      -1.304 -24.715  17.575  1.00 23.87     0.111 A 
HETATM   11  C9    D T 601      -0.443 -24.282  16.571  1.00 25.62     0.081 A 
HETATM   12  C10   D T 601      -0.519 -24.797  15.296  1.00 25.25     0.025 A 
HETATM   13 CL16   D T 601       0.738 -23.066  16.935  1.00 24.80    -0.080 Cl
HETATM   14  C11   D T 601      -1.471 -25.770  15.004  1.00 28.16     0.059 A 
HETATM   15  C12   D T 601      -2.343 -26.227  15.999  1.00 26.66     0.013 A 
HETATM   16 CL15   D T 601      -1.584 -26.419  13.369  1.00 31.04    -0.082 Cl
HETATM   17  C13   D T 601      -2.260 -25.699  17.291  1.00 26.39     0.026 A 
ENDBRANCH   1  10
TORSDOF 2
ENDMDL
MODEL 6
REMARK VINA RESULT:    -7.639     10.552     12.242
REMARK INTER + INTRA:          -8.872
REMARK INTER:                  -8.590
REMARK INTRA:                  -0.281
REMARK UNBOUND:                -0.339
REMARK  2 active torsions:
REMARK  status: ('A' for Active; 'I' for Inactive)
REMARK    1  A    between atoms: C5_4  and  O7_13 
REMARK    2  A    between atoms: C8_10  and  O7_13 
ROOT
HETATM    1  O7    D T 601       5.518 -16.500  13.812  1.00 22.53    -0.304 OA
ENDROOT
BRANCH   1   2
HETATM    2  C5    D T 601       5.839 -15.974  12.577  1.00 21.09     0.125 A 
HETATM    3  C6    D T 601       7.138 -16.155  12.096  1.00 20.02     0.154 A 
HETATM    4  C1    D T 601       7.500 -15.647  10.864  1.00 18.60     0.041 A 
HETATM    5  O17   D T 601       8.060 -16.842  12.845  1.00 17.91    -0.188 OA
HETATM    6  C2    D T 601       6.571 -14.954  10.111  1.00 21.19     0.060 A 
HETATM    7  C3    D T 601       5.255 -14.758  10.572  1.00 21.69     0.014 A 
HETATM    8 CL14   D T 601       7.042 -14.309   8.552  1.00 22.27    -0.082 Cl
HETATM    9  C4    D T 601       4.891 -15.272  11.813  1.00 21.63     0.028 A 
ENDBRANCH   1   2
BRANCH   1  10
HETATM   10  C8    D T 601       5.077 -17.816  13.873  1.00 23.87     0.111 A 
HETATM   11  C9    D T 601       5.685 -18.673  14.784  1.00 25.62     0.081 A 
HETATM   12  C10   D T 601       5.299 -19.991  14.891  1.00 25.25     0.025 A 
HETATM   13 CL16   D T 601       6.959 -18.068  15.794  1.00 24.80    -0.080 Cl
HETATM   14  C11   D T 601       4.280 -20.476  14.077  1.00 28.16     0.059 A 
HETATM   15  C12   D T 601       3.647 -19.632  13.157  1.00 26.66     0.013 A 
HETATM   16 CL15   D T 601       3.795 -22.167  14.197  1.00 31.04    -0.082 Cl
HETATM   17  C13   D T 601       4.045 -18.295  13.054  1.00 26.39     0.026 A 
ENDBRANCH   1  10
TORSDOF 2
ENDMDL
MODEL 7
REMARK VINA RESULT:    -7.463     10.187     11.964
REMARK INTER + INTRA:          -8.675
REMARK INTER:                  -8.203
REMARK INTRA:                  -0.472
REMARK UNBOUND:                -0.339
REMARK  2 active torsions:
REMARK  status: ('A' for Active; 'I' for Inactive)
REMARK    1  A    between atoms: C5_4  and  O7_13 
REMARK    2  A    between atoms: C8_10  and  O7_13 
ROOT
HETATM    1  O7    D T 601       4.885 -16.753  13.954  1.00 22.53    -0.304 OA
ENDROOT
BRANCH   1   2
HETATM    2  C5    D T 601       5.396 -16.234  12.783  1.00 21.09     0.125 A 
HETATM    3  C6    D T 601       4.509 -15.659  11.869  1.00 20.02     0.154 A 
HETATM    4  C1    D T 601       4.979 -15.125  10.685  1.00 18.60     0.041 A 
HETATM    5  O17   D T 601       3.166 -15.617  12.146  1.00 17.91    -0.188 OA
HETATM    6  C2    D T 601       6.332 -15.170  10.406  1.00 21.19     0.060 A 
HETATM    7  C3    D T 601       7.247 -15.743  11.309  1.00 21.69     0.014 A 
HETATM    8 CL14   D T 601       6.917 -14.495   8.898  1.00 22.27    -0.082 Cl
HETATM    9  C4    D T 601       6.773 -16.278  12.503  1.00 21.63     0.028 A 
ENDBRANCH   1   2
BRANCH   1  10
HETATM   10  C8    D T 601       4.764 -18.132  14.066  1.00 23.87     0.111 A 
HETATM   11  C9    D T 601       5.689 -18.814  14.850  1.00 25.62     0.081 A 
HETATM   12  C10   D T 601       5.629 -20.182  14.998  1.00 25.25     0.025 A 
HETATM   13 CL16   D T 601       6.944 -17.920  15.648  1.00 24.80    -0.080 Cl
HETATM   14  C11   D T 601       4.624 -20.899  14.355  1.00 28.16     0.059 A 
HETATM   15  C12   D T 601       3.678 -20.236  13.566  1.00 26.66     0.013 A 
HETATM   16 CL15   D T 601       4.555 -22.652  14.526  1.00 31.04    -0.082 Cl
HETATM   17  C13   D T 601       3.745 -18.846  13.420  1.00 26.39     0.026 A 
ENDBRANCH   1  10
TORSDOF 2
ENDMDL
MODEL 8
REMARK VINA RESULT:    -7.369      9.638     12.009
REMARK INTER + INTRA:          -8.570
REMARK INTER:                  -8.043
REMARK INTRA:                  -0.528
REMARK UNBOUND:                -0.339
REMARK  2 active torsions:
REMARK  status: ('A' for Active; 'I' for Inactive)
REMARK    1  A    between atoms: C5_4  and  O7_13 
REMARK    2  A    between atoms: C8_10  and  O7_13 
ROOT
HETATM    1  O7    D T 601       4.303 -18.886  12.715  1.00 22.53    -0.304 OA
ENDROOT
BRANCH   1   2
HETATM    2  C5    D T 601       4.411 -18.763  14.085  1.00 21.09     0.125 A 
HETATM    3  C6    D T 601       3.252 -18.505  14.822  1.00 20.02     0.154 A 
HETATM    4  C1    D T 601       3.315 -18.378  16.195  1.00 18.60     0.041 A 
HETATM    5  O17   D T 601       2.044 -18.380  14.184  1.00 17.91    -0.188 OA
HETATM    6  C2    D T 601       4.533 -18.501  16.837  1.00 21.19     0.060 A 
HETATM    7  C3    D T 601       5.715 -18.762  16.119  1.00 21.69     0.014 A 
HETATM    8 CL14   D T 601       4.603 -18.333  18.580  1.00 22.27    -0.082 Cl
HETATM    9  C4    D T 601       5.651 -18.892  14.735  1.00 21.63     0.028 A 
ENDBRANCH   1   2
BRANCH   1  10
HETATM   10  C8    D T 601       4.804 -17.861  11.921  1.00 23.87     0.111 A 
HETATM   11  C9    D T 601       5.961 -18.102  11.187  1.00 25.62     0.081 A 
HETATM   12  C10   D T 601       6.512 -17.127  10.385  1.00 25.25     0.025 A 
HETATM   13 CL16   D T 601       6.722 -19.656  11.294  1.00 24.80    -0.080 Cl
HETATM   14  C11   D T 601       5.902 -15.879  10.303  1.00 28.16     0.059 A 
HETATM   15  C12   D T 601       4.733 -15.614  11.027  1.00 26.66     0.013 A 
HETATM   16 CL15   D T 601       6.615 -14.623   9.292  1.00 31.04    -0.082 Cl
HETATM   17  C13   D T 601       4.179 -16.609  11.840  1.00 26.39     0.026 A 
ENDBRANCH   1  10
TORSDOF 2
ENDMDL
MODEL 9
REMARK VINA RESULT:    -7.277      9.436     11.097
REMARK INTER + INTRA:          -8.467
REMARK INTER:                  -8.090
REMARK INTRA:                  -0.377
REMARK UNBOUND:                -0.339
REMARK  2 active torsions:
REMARK  status: ('A' for Active; 'I' for Inactive)
REMARK    1  A    between atoms: C5_4  and  O7_13 
REMARK    2  A    between atoms: C8_10  and  O7_13 
ROOT
HETATM    1  O7    D T 601       5.696 -17.513  15.365  1.00 22.53    -0.304 OA
ENDROOT
BRANCH   1   2
HETATM    2  C5    D T 601       5.549 -16.801  14.192  1.00 21.09     0.125 A 
HETATM    3  C6    D T 601       6.701 -16.409  13.505  1.00 20.02     0.154 A 
HETATM    4  C1    D T 601       6.599 -15.697  12.326  1.00 18.60     0.041 A 
HETATM    5  O17   D T 601       7.940 -16.733  13.997  1.00 17.91    -0.188 OA
HETATM    6  C2    D T 601       5.350 -15.369  11.833  1.00 21.19     0.060 A 
HETATM    7  C3    D T 601       4.175 -15.752  12.505  1.00 21.69     0.014 A 
HETATM    8 CL14   D T 601       5.232 -14.461  10.339  1.00 22.27    -0.082 Cl
HETATM    9  C4    D T 601       4.278 -16.471  13.692  1.00 21.63     0.028 A 
ENDBRANCH   1   2
BRANCH   1  10
HETATM   10  C8    D T 601       5.389 -18.867  15.356  1.00 23.87     0.111 A 
HETATM   11  C9    D T 601       4.816 -19.421  16.496  1.00 25.62     0.081 A 
HETATM   12  C10   D T 601       4.492 -20.758  16.555  1.00 25.25     0.025 A 
HETATM   13 CL16   D T 601       4.513 -18.405  17.869  1.00 24.80    -0.080 Cl
HETATM   14  C11   D T 601       4.739 -21.573  15.454  1.00 28.16     0.059 A 
HETATM   15  C12   D T 601       5.309 -21.039  14.293  1.00 26.66     0.013 A 
HETATM   16 CL15   D T 601       4.344 -23.290  15.532  1.00 31.04    -0.082 Cl
HETATM   17  C13   D T 601       5.635 -19.680  14.240  1.00 26.39     0.026 A 
ENDBRANCH   1  10
TORSDOF 2
ENDMDL
