MODEL 1
REMARK VINA RESULT:    -7.325      0.000      0.000
REMARK INTER + INTRA:          -8.723
REMARK INTER:                  -8.181
REMARK INTRA:                  -0.542
REMARK UNBOUND:                -0.542
REMARK  2 active torsions:
REMARK  status: ('A' for Active; 'I' for Inactive)
REMARK    1  A    between atoms: C5_4  and  O7_13 
REMARK    2  A    between atoms: C8_10  and  O7_13 
ROOT
HETATM    1  O7    D T 601       5.683   1.484  -7.497  1.00 22.53    -0.304 OA
ENDROOT
BRANCH   1   2
HETATM    2  C5    D T 601       4.631   2.049  -6.805  1.00 21.09     0.125 A 
HETATM    3  C6    D T 601       3.738   1.200  -6.146  1.00 20.02     0.154 A 
HETATM    4  C1    D T 601       2.673   1.724  -5.440  1.00 18.60     0.041 A 
HETATM    5  O17   D T 601       3.918  -0.159  -6.194  1.00 17.91    -0.188 OA
HETATM    6  C2    D T 601       2.492   3.093  -5.394  1.00 21.19     0.060 A 
HETATM    7  C3    D T 601       3.376   3.970  -6.049  1.00 21.69     0.014 A 
HETATM    8 CL14   D T 601       1.134   3.747  -4.500  1.00 22.27    -0.082 Cl
HETATM    9  C4    D T 601       4.451   3.442  -6.758  1.00 21.63     0.028 A 
ENDBRANCH   1   2
BRANCH   1  10
HETATM   10  C8    D T 601       5.686   1.581  -8.883  1.00 23.87     0.111 A 
HETATM   11  C9    D T 601       6.628   2.410  -9.483  1.00 25.62     0.081 A 
HETATM   12  C10   D T 601       6.682   2.556 -10.852  1.00 25.25     0.025 A 
HETATM   13 CL16   D T 601       7.748   3.280  -8.485  1.00 24.80    -0.080 Cl
HETATM   14  C11   D T 601       5.781   1.859 -11.652  1.00 28.16     0.059 A 
HETATM   15  C12   D T 601       4.827   1.013 -11.073  1.00 26.66     0.013 A 
HETATM   16 CL15   D T 601       5.833   2.056 -13.403  1.00 31.04    -0.082 Cl
HETATM   17  C13   D T 601       4.778   0.872  -9.682  1.00 26.39     0.026 A 
ENDBRANCH   1  10
TORSDOF 2
ENDMDL
MODEL 2
REMARK VINA RESULT:    -7.267      1.514      6.066
REMARK INTER + INTRA:          -8.659
REMARK INTER:                  -8.132
REMARK INTRA:                  -0.527
REMARK UNBOUND:                -0.542
REMARK  2 active torsions:
REMARK  status: ('A' for Active; 'I' for Inactive)
REMARK    1  A    between atoms: C5_4  and  O7_13 
REMARK    2  A    between atoms: C8_10  and  O7_13 
ROOT
HETATM    1  O7    D T 601       5.154   1.020  -7.661  1.00 22.53    -0.304 OA
ENDROOT
BRANCH   1   2
HETATM    2  C5    D T 601       5.237   1.235  -9.022  1.00 21.09     0.125 A 
HETATM    3  C6    D T 601       6.384   1.853  -9.527  1.00 20.02     0.154 A 
HETATM    4  C1    D T 601       6.508   2.084 -10.882  1.00 18.60     0.041 A 
HETATM    5  O17   D T 601       7.394   2.228  -8.679  1.00 17.91    -0.188 OA
HETATM    6  C2    D T 601       5.489   1.706 -11.736  1.00 21.19     0.060 A 
HETATM    7  C3    D T 601       4.324   1.083 -11.253  1.00 21.69     0.014 A 
HETATM    8 CL14   D T 601       5.655   2.010 -13.455  1.00 22.27    -0.082 Cl
HETATM    9  C4    D T 601       4.200   0.847  -9.887  1.00 21.63     0.028 A 
ENDBRANCH   1   2
BRANCH   1  10
HETATM   10  C8    D T 601       4.257   1.786  -6.927  1.00 23.87     0.111 A 
HETATM   11  C9    D T 601       3.246   1.130  -6.231  1.00 25.62     0.081 A 
HETATM   12  C10   D T 601       2.320   1.830  -5.489  1.00 25.25     0.025 A 
HETATM   13 CL16   D T 601       3.151  -0.600  -6.308  1.00 24.80    -0.080 Cl
HETATM   14  C11   D T 601       2.396   3.218  -5.431  1.00 28.16     0.059 A 
HETATM   15  C12   D T 601       3.407   3.902  -6.117  1.00 26.66     0.013 A 
HETATM   16 CL15   D T 601       1.202   4.120  -4.499  1.00 31.04    -0.082 Cl
HETATM   17  C13   D T 601       4.343   3.184  -6.869  1.00 26.39     0.026 A 
ENDBRANCH   1  10
TORSDOF 2
ENDMDL
MODEL 3
REMARK VINA RESULT:    -7.253      1.571      2.100
REMARK INTER + INTRA:          -8.643
REMARK INTER:                  -8.379
REMARK INTRA:                  -0.264
REMARK UNBOUND:                -0.542
REMARK  2 active torsions:
REMARK  status: ('A' for Active; 'I' for Inactive)
REMARK    1  A    between atoms: C5_4  and  O7_13 
REMARK    2  A    between atoms: C8_10  and  O7_13 
ROOT
HETATM    1  O7    D T 601       4.545   0.553  -7.830  1.00 22.53    -0.304 OA
ENDROOT
BRANCH   1   2
HETATM    2  C5    D T 601       3.796   1.415  -7.055  1.00 21.09     0.125 A 
HETATM    3  C6    D T 601       2.891   0.869  -6.140  1.00 20.02     0.154 A 
HETATM    4  C1    D T 601       2.124   1.696  -5.344  1.00 18.60     0.041 A 
HETATM    5  O17   D T 601       2.765  -0.492  -6.026  1.00 17.91    -0.188 OA
HETATM    6  C2    D T 601       2.251   3.067  -5.461  1.00 21.19     0.060 A 
HETATM    7  C3    D T 601       3.154   3.642  -6.374  1.00 21.69     0.014 A 
HETATM    8 CL14   D T 601       1.268   4.108  -4.450  1.00 22.27    -0.082 Cl
HETATM    9  C4    D T 601       3.929   2.808  -7.175  1.00 21.63     0.028 A 
ENDBRANCH   1   2
BRANCH   1  10
HETATM   10  C8    D T 601       4.837   0.927  -9.135  1.00 23.87     0.111 A 
HETATM   11  C9    D T 601       3.857   0.750 -10.106  1.00 25.62     0.081 A 
HETATM   12  C10   D T 601       4.083   1.094 -11.420  1.00 25.25     0.025 A 
HETATM   13 CL16   D T 601       2.326   0.075  -9.649  1.00 24.80    -0.080 Cl
HETATM   14  C11   D T 601       5.313   1.632 -11.786  1.00 28.16     0.059 A 
HETATM   15  C12   D T 601       6.314   1.826 -10.827  1.00 26.66     0.013 A 
HETATM   16 CL15   D T 601       5.615   2.057 -13.470  1.00 31.04    -0.082 Cl
HETATM   17  C13   D T 601       6.077   1.473  -9.495  1.00 26.39     0.026 A 
ENDBRANCH   1  10
TORSDOF 2
ENDMDL
MODEL 4
REMARK VINA RESULT:    -7.057      1.754      6.021
REMARK INTER + INTRA:          -8.425
REMARK INTER:                  -8.300
REMARK INTRA:                  -0.125
REMARK UNBOUND:                -0.542
REMARK  2 active torsions:
REMARK  status: ('A' for Active; 'I' for Inactive)
REMARK    1  A    between atoms: C5_4  and  O7_13 
REMARK    2  A    between atoms: C8_10  and  O7_13 
ROOT
HETATM    1  O7    D T 601       4.248   0.702  -7.972  1.00 22.53    -0.304 OA
ENDROOT
BRANCH   1   2
HETATM    2  C5    D T 601       4.596   1.011  -9.271  1.00 21.09     0.125 A 
HETATM    3  C6    D T 601       3.620   0.893 -10.265  1.00 20.02     0.154 A 
HETATM    4  C1    D T 601       3.926   1.196 -11.577  1.00 18.60     0.041 A 
HETATM    5  O17   D T 601       2.353   0.481  -9.941  1.00 17.91    -0.188 OA
HETATM    6  C2    D T 601       5.203   1.610 -11.903  1.00 21.19     0.060 A 
HETATM    7  C3    D T 601       6.204   1.737 -10.921  1.00 21.69     0.014 A 
HETATM    8 CL14   D T 601       5.582   1.986 -13.573  1.00 22.27    -0.082 Cl
HETATM    9  C4    D T 601       5.895   1.435  -9.598  1.00 21.63     0.028 A 
ENDBRANCH   1   2
BRANCH   1  10
HETATM   10  C8    D T 601       3.619   1.677  -7.209  1.00 23.87     0.111 A 
HETATM   11  C9    D T 601       2.982   1.286  -6.036  1.00 25.62     0.081 A 
HETATM   12  C10   D T 601       2.334   2.202  -5.236  1.00 25.25     0.025 A 
HETATM   13 CL16   D T 601       2.999  -0.387  -5.580  1.00 24.80    -0.080 Cl
HETATM   14  C11   D T 601       2.319   3.544  -5.604  1.00 28.16     0.059 A 
HETATM   15  C12   D T 601       2.958   3.964  -6.776  1.00 26.66     0.013 A 
HETATM   16 CL15   D T 601       1.475   4.717  -4.593  1.00 31.04    -0.082 Cl
HETATM   17  C13   D T 601       3.612   3.028  -7.584  1.00 26.39     0.026 A 
ENDBRANCH   1  10
TORSDOF 2
ENDMDL
MODEL 5
REMARK VINA RESULT:    -6.802      2.217      2.436
REMARK INTER + INTRA:          -8.140
REMARK INTER:                  -7.726
REMARK INTRA:                  -0.413
REMARK UNBOUND:                -0.542
REMARK  2 active torsions:
REMARK  status: ('A' for Active; 'I' for Inactive)
REMARK    1  A    between atoms: C5_4  and  O7_13 
REMARK    2  A    between atoms: C8_10  and  O7_13 
ROOT
HETATM    1  O7    D T 601       2.704   1.935  -7.392  1.00 22.53    -0.304 OA
ENDROOT
BRANCH   1   2
HETATM    2  C5    D T 601       3.183   2.449  -6.204  1.00 21.09     0.125 A 
HETATM    3  C6    D T 601       3.337   1.581  -5.120  1.00 20.02     0.154 A 
HETATM    4  C1    D T 601       3.815   2.054  -3.914  1.00 18.60     0.041 A 
HETATM    5  O17   D T 601       3.017   0.254  -5.249  1.00 17.91    -0.188 OA
HETATM    6  C2    D T 601       4.136   3.392  -3.784  1.00 21.19     0.060 A 
HETATM    7  C3    D T 601       3.990   4.287  -4.860  1.00 21.69     0.014 A 
HETATM    8 CL14   D T 601       4.736   3.983  -2.247  1.00 22.27    -0.082 Cl
HETATM    9  C4    D T 601       3.511   3.810  -6.076  1.00 21.63     0.028 A 
ENDBRANCH   1   2
BRANCH   1  10
HETATM   10  C8    D T 601       3.606   1.723  -8.428  1.00 23.87     0.111 A 
HETATM   11  C9    D T 601       3.666   2.664  -9.451  1.00 25.62     0.081 A 
HETATM   12  C10   D T 601       4.533   2.511 -10.510  1.00 25.25     0.025 A 
HETATM   13 CL16   D T 601       2.624   4.048  -9.390  1.00 24.80    -0.080 Cl
HETATM   14  C11   D T 601       5.367   1.398 -10.559  1.00 28.16     0.059 A 
HETATM   15  C12   D T 601       5.330   0.440  -9.540  1.00 26.66     0.013 A 
HETATM   16 CL15   D T 601       6.465   1.189 -11.923  1.00 31.04    -0.082 Cl
HETATM   17  C13   D T 601       4.446   0.602  -8.467  1.00 26.39     0.026 A 
ENDBRANCH   1  10
TORSDOF 2
ENDMDL
MODEL 6
REMARK VINA RESULT:    -6.691      2.822      3.692
REMARK INTER + INTRA:          -8.015
REMARK INTER:                  -7.476
REMARK INTRA:                  -0.540
REMARK UNBOUND:                -0.542
REMARK  2 active torsions:
REMARK  status: ('A' for Active; 'I' for Inactive)
REMARK    1  A    between atoms: C5_4  and  O7_13 
REMARK    2  A    between atoms: C8_10  and  O7_13 
ROOT
HETATM    1  O7    D T 601       2.465   2.345  -6.340  1.00 22.53    -0.304 OA
ENDROOT
BRANCH   1   2
HETATM    2  C5    D T 601       3.067   3.003  -5.287  1.00 21.09     0.125 A 
HETATM    3  C6    D T 601       2.696   4.326  -5.033  1.00 20.02     0.154 A 
HETATM    4  C1    D T 601       3.273   5.020  -3.987  1.00 18.60     0.041 A 
HETATM    5  O17   D T 601       1.755   4.941  -5.817  1.00 17.91    -0.188 OA
HETATM    6  C2    D T 601       4.223   4.400  -3.197  1.00 21.19     0.060 A 
HETATM    7  C3    D T 601       4.614   3.069  -3.432  1.00 21.69     0.014 A 
HETATM    8 CL14   D T 601       4.952   5.292  -1.876  1.00 22.27    -0.082 Cl
HETATM    9  C4    D T 601       4.031   2.369  -4.485  1.00 21.63     0.028 A 
ENDBRANCH   1   2
BRANCH   1  10
HETATM   10  C8    D T 601       3.235   2.050  -7.458  1.00 23.87     0.111 A 
HETATM   11  C9    D T 601       3.392   0.715  -7.815  1.00 25.62     0.081 A 
HETATM   12  C10   D T 601       4.148   0.353  -8.909  1.00 25.25     0.025 A 
HETATM   13 CL16   D T 601       2.629  -0.513  -6.858  1.00 24.80    -0.080 Cl
HETATM   14  C11   D T 601       4.763   1.339  -9.675  1.00 28.16     0.059 A 
HETATM   15  C12   D T 601       4.614   2.690  -9.340  1.00 26.66     0.013 A 
HETATM   16 CL15   D T 601       5.746   0.880 -11.064  1.00 31.04    -0.082 Cl
HETATM   17  C13   D T 601       3.847   3.050  -8.227  1.00 26.39     0.026 A 
ENDBRANCH   1  10
TORSDOF 2
ENDMDL
MODEL 7
REMARK VINA RESULT:    -6.663      1.937      6.228
REMARK INTER + INTRA:          -7.984
REMARK INTER:                  -7.640
REMARK INTRA:                  -0.345
REMARK UNBOUND:                -0.542
REMARK  2 active torsions:
REMARK  status: ('A' for Active; 'I' for Inactive)
REMARK    1  A    between atoms: C5_4  and  O7_13 
REMARK    2  A    between atoms: C8_10  and  O7_13 
ROOT
HETATM    1  O7    D T 601       3.305   1.645  -7.159  1.00 22.53    -0.304 OA
ENDROOT
BRANCH   1   2
HETATM    2  C5    D T 601       4.257   2.056  -8.069  1.00 21.09     0.125 A 
HETATM    3  C6    D T 601       3.956   1.965  -9.431  1.00 20.02     0.154 A 
HETATM    4  C1    D T 601       4.880   2.367 -10.375  1.00 18.60     0.041 A 
HETATM    5  O17   D T 601       2.739   1.479  -9.836  1.00 17.91    -0.188 OA
HETATM    6  C2    D T 601       6.106   2.855  -9.966  1.00 21.19     0.060 A 
HETATM    7  C3    D T 601       6.435   2.957  -8.601  1.00 21.69     0.014 A 
HETATM    8 CL14   D T 601       7.273   3.358 -11.173  1.00 22.27    -0.082 Cl
HETATM    9  C4    D T 601       5.502   2.554  -7.650  1.00 21.63     0.028 A 
ENDBRANCH   1   2
BRANCH   1  10
HETATM   10  C8    D T 601       2.795   2.584  -6.272  1.00 23.87     0.111 A 
HETATM   11  C9    D T 601       2.492   2.172  -4.978  1.00 25.62     0.081 A 
HETATM   12  C10   D T 601       1.978   3.051  -4.050  1.00 25.25     0.025 A 
HETATM   13 CL16   D T 601       2.763   0.518  -4.532  1.00 24.80    -0.080 Cl
HETATM   14  C11   D T 601       1.758   4.377  -4.410  1.00 28.16     0.059 A 
HETATM   15  C12   D T 601       2.060   4.819  -5.704  1.00 26.66     0.013 A 
HETATM   16 CL15   D T 601       1.082   5.501  -3.233  1.00 31.04    -0.082 Cl
HETATM   17  C13   D T 601       2.581   3.920  -6.640  1.00 26.39     0.026 A 
ENDBRANCH   1  10
TORSDOF 2
ENDMDL
MODEL 8
REMARK VINA RESULT:    -6.639      1.823      2.089
REMARK INTER + INTRA:          -7.957
REMARK INTER:                  -7.871
REMARK INTRA:                  -0.086
REMARK UNBOUND:                -0.542
REMARK  2 active torsions:
REMARK  status: ('A' for Active; 'I' for Inactive)
REMARK    1  A    between atoms: C5_4  and  O7_13 
REMARK    2  A    between atoms: C8_10  and  O7_13 
ROOT
HETATM    1  O7    D T 601       4.921   3.829  -7.625  1.00 22.53    -0.304 OA
ENDROOT
BRANCH   1   2
HETATM    2  C5    D T 601       4.330   3.036  -6.662  1.00 21.09     0.125 A 
HETATM    3  C6    D T 601       5.116   2.590  -5.596  1.00 20.02     0.154 A 
HETATM    4  C1    D T 601       4.563   1.797  -4.610  1.00 18.60     0.041 A 
HETATM    5  O17   D T 601       6.439   2.943  -5.521  1.00 17.91    -0.188 OA
HETATM    6  C2    D T 601       3.230   1.441  -4.688  1.00 21.19     0.060 A 
HETATM    7  C3    D T 601       2.417   1.876  -5.750  1.00 21.69     0.014 A 
HETATM    8 CL14   D T 601       2.540   0.429  -3.434  1.00 22.27    -0.082 Cl
HETATM    9  C4    D T 601       2.974   2.678  -6.742  1.00 21.63     0.028 A 
ENDBRANCH   1   2
BRANCH   1  10
HETATM   10  C8    D T 601       4.970   3.354  -8.929  1.00 23.87     0.111 A 
HETATM   11  C9    D T 601       6.198   2.933  -9.431  1.00 25.62     0.081 A 
HETATM   12  C10   D T 601       6.317   2.457 -10.718  1.00 25.25     0.025 A 
HETATM   13 CL16   D T 601       7.601   3.018  -8.415  1.00 24.80    -0.080 Cl
HETATM   14  C11   D T 601       5.191   2.392 -11.533  1.00 28.16     0.059 A 
HETATM   15  C12   D T 601       3.943   2.804 -11.050  1.00 26.66     0.013 A 
HETATM   16 CL15   D T 601       5.342   1.801 -13.187  1.00 31.04    -0.082 Cl
HETATM   17  C13   D T 601       3.830   3.287  -9.742  1.00 26.39     0.026 A 
ENDBRANCH   1  10
TORSDOF 2
ENDMDL
MODEL 9
REMARK VINA RESULT:    -6.561      2.289      6.184
REMARK INTER + INTRA:          -7.870
REMARK INTER:                  -7.333
REMARK INTRA:                  -0.537
REMARK UNBOUND:                -0.542
REMARK  2 active torsions:
REMARK  status: ('A' for Active; 'I' for Inactive)
REMARK    1  A    between atoms: C5_4  and  O7_13 
REMARK    2  A    between atoms: C8_10  and  O7_13 
ROOT
HETATM    1  O7    D T 601       2.442   2.429  -6.309  1.00 22.53    -0.304 OA
ENDROOT
BRANCH   1   2
HETATM    2  C5    D T 601       3.220   2.134  -7.411  1.00 21.09     0.125 A 
HETATM    3  C6    D T 601       3.305   0.802  -7.825  1.00 20.02     0.154 A 
HETATM    4  C1    D T 601       4.071   0.465  -8.924  1.00 18.60     0.041 A 
HETATM    5  O17   D T 601       2.625  -0.175  -7.146  1.00 17.91    -0.188 OA
HETATM    6  C2    D T 601       4.757   1.451  -9.607  1.00 21.19     0.060 A 
HETATM    7  C3    D T 601       4.689   2.799  -9.211  1.00 21.69     0.014 A 
HETATM    8 CL14   D T 601       5.730   1.010 -10.997  1.00 22.27    -0.082 Cl
HETATM    9  C4    D T 601       3.915   3.139  -8.105  1.00 21.63     0.028 A 
ENDBRANCH   1   2
BRANCH   1  10
HETATM   10  C8    D T 601       3.056   3.012  -5.207  1.00 23.87     0.111 A 
HETATM   11  C9    D T 601       2.745   4.333  -4.904  1.00 25.62     0.081 A 
HETATM   12  C10   D T 601       3.322   4.973  -3.829  1.00 25.25     0.025 A 
HETATM   13 CL16   D T 601       1.617   5.189  -5.905  1.00 24.80    -0.080 Cl
HETATM   14  C11   D T 601       4.230   4.286  -3.028  1.00 28.16     0.059 A 
HETATM   15  C12   D T 601       4.555   2.954  -3.309  1.00 26.66     0.013 A 
HETATM   16 CL15   D T 601       4.986   5.106  -1.663  1.00 31.04    -0.082 Cl
HETATM   17  C13   D T 601       3.965   2.311  -4.403  1.00 26.39     0.026 A 
ENDBRANCH   1  10
TORSDOF 2
ENDMDL
