MODEL 1
REMARK VINA RESULT:      -8.1      0.000      0.000
REMARK  2 active torsions:
REMARK  status: ('A' for Active; 'I' for Inactive)
REMARK    1  A    between atoms: C5_4  and  O7_13 
REMARK    2  A    between atoms: C8_10  and  O7_13 
ROOT
HETATM    1  O7    D T1302       9.880  12.876  12.048  1.00 18.77    -0.304 OA
ENDROOT
BRANCH   1   2
HETATM    2  C5    D T1302      10.146  12.849  13.397  1.00 19.44     0.125 A 
HETATM    3  C6    D T1302      10.019  11.648  14.060  1.00 18.58     0.154 A 
HETATM    4  C1    D T1302      10.245  11.547  15.441  1.00 18.07     0.041 A 
HETATM    5  O17   D T1302       9.715  10.491  13.331  1.00 19.82    -0.188 OA
HETATM    6  C2    D T1302      10.518  12.716  16.148  1.00 16.92     0.060 A 
HETATM    7  C3    D T1302      10.604  13.952  15.528  1.00 16.60     0.014 A 
HETATM    8 CL14   D T1302      10.759  12.607  17.875  1.00 19.02    -0.082 Cl
HETATM    9  C4    D T1302      10.475  13.969  14.126  1.00 17.69     0.028 A 
ENDBRANCH   1   2
BRANCH   1  10
HETATM   10  C8    D T1302       9.099  13.882  11.443  1.00 17.66     0.111 A 
HETATM   11  C9    D T1302       7.770  14.038  11.710  1.00 21.86     0.081 A 
HETATM   12  C10   D T1302       6.988  15.001  11.069  1.00 21.31     0.025 A 
HETATM   13 CL16   D T1302       6.981  12.952  12.823  1.00 25.77    -0.080 Cl
HETATM   14  C11   D T1302       7.611  15.842  10.132  1.00 22.96     0.059 A 
HETATM   15  C12   D T1302       8.937  15.727   9.820  1.00 22.42     0.013 A 
HETATM   16 CL15   D T1302       6.632  17.047   9.319  1.00 26.47    -0.082 Cl
HETATM   17  C13   D T1302       9.661  14.716  10.495  1.00 19.81     0.026 A 
ENDBRANCH   1  10
TORSDOF 2
ENDMDL
MODEL 2
REMARK VINA RESULT:      -8.0      9.500     12.035
REMARK  2 active torsions:
REMARK  status: ('A' for Active; 'I' for Inactive)
REMARK    1  A    between atoms: C5_4  and  O7_13 
REMARK    2  A    between atoms: C8_10  and  O7_13 
ROOT
HETATM    1  O7    D T1302      18.799  12.171  20.248  1.00 18.77    -0.304 OA
ENDROOT
BRANCH   1   2
HETATM    2  C5    D T1302      19.655  11.528  19.384  1.00 19.44     0.125 A 
HETATM    3  C6    D T1302      20.059  10.250  19.704  1.00 18.58     0.154 A 
HETATM    4  C1    D T1302      20.954   9.541  18.889  1.00 18.07     0.041 A 
HETATM    5  O17   D T1302      19.522   9.623  20.836  1.00 19.82    -0.188 OA
HETATM    6  C2    D T1302      21.496  10.196  17.786  1.00 16.92     0.060 A 
HETATM    7  C3    D T1302      21.156  11.498  17.458  1.00 16.60     0.014 A 
HETATM    8 CL14   D T1302      22.644   9.335  16.788  1.00 19.02    -0.082 Cl
HETATM    9  C4    D T1302      20.172  12.116  18.253  1.00 17.69     0.028 A 
ENDBRANCH   1   2
BRANCH   1  10
HETATM   10  C8    D T1302      17.771  13.030  19.807  1.00 17.66     0.111 A 
HETATM   11  C9    D T1302      17.805  14.378  20.013  1.00 21.86     0.081 A 
HETATM   12  C10   D T1302      16.761  15.219  19.621  1.00 21.31     0.025 A 
HETATM   13 CL16   D T1302      19.149  15.087  20.869  1.00 25.77    -0.080 Cl
HETATM   14  C11   D T1302      15.653  14.643  18.978  1.00 22.96     0.059 A 
HETATM   15  C12   D T1302      15.562  13.297  18.752  1.00 22.42     0.013 A 
HETATM   16 CL15   D T1302      14.337  15.692  18.493  1.00 26.47    -0.082 Cl
HETATM   17  C13   D T1302      16.650  12.506  19.193  1.00 19.81     0.026 A 
ENDBRANCH   1  10
TORSDOF 2
ENDMDL
MODEL 3
REMARK VINA RESULT:      -8.0     10.864     13.022
REMARK  2 active torsions:
REMARK  status: ('A' for Active; 'I' for Inactive)
REMARK    1  A    between atoms: C5_4  and  O7_13 
REMARK    2  A    between atoms: C8_10  and  O7_13 
ROOT
HETATM    1  O7    D T1302      18.364  11.942  20.514  1.00 18.77    -0.304 OA
ENDROOT
BRANCH   1   2
HETATM    2  C5    D T1302      18.133  13.297  20.482  1.00 19.44     0.125 A 
HETATM    3  C6    D T1302      16.978  13.744  19.877  1.00 18.58     0.154 A 
HETATM    4  C1    D T1302      16.687  15.113  19.779  1.00 18.07     0.041 A 
HETATM    5  O17   D T1302      16.048  12.812  19.400  1.00 19.82    -0.188 OA
HETATM    6  C2    D T1302      17.640  16.021  20.235  1.00 16.92     0.060 A 
HETATM    7  C3    D T1302      18.837  15.614  20.804  1.00 16.60     0.014 A 
HETATM    8 CL14   D T1302      17.305  17.729  20.080  1.00 19.02    -0.082 Cl
HETATM    9  C4    D T1302      19.020  14.229  20.971  1.00 17.69     0.028 A 
ENDBRANCH   1   2
BRANCH   1  10
HETATM   10  C8    D T1302      19.341  11.314  19.714  1.00 17.66     0.111 A 
HETATM   11  C9    D T1302      20.043  10.224  20.136  1.00 21.86     0.081 A 
HETATM   12  C10   D T1302      21.047   9.637  19.362  1.00 21.31     0.025 A 
HETATM   13 CL16   D T1302      19.754   9.574  21.728  1.00 25.77    -0.080 Cl
HETATM   14  C11   D T1302      21.318  10.191  18.100  1.00 22.96     0.059 A 
HETATM   15  C12   D T1302      20.651  11.288  17.629  1.00 22.42     0.013 A 
HETATM   16 CL15   D T1302      22.582   9.465  17.129  1.00 26.47    -0.082 Cl
HETATM   17  C13   D T1302      19.661  11.839  18.476  1.00 19.81     0.026 A 
ENDBRANCH   1  10
TORSDOF 2
ENDMDL
MODEL 4
REMARK VINA RESULT:      -8.0      9.586     12.707
REMARK  2 active torsions:
REMARK  status: ('A' for Active; 'I' for Inactive)
REMARK    1  A    between atoms: C5_4  and  O7_13 
REMARK    2  A    between atoms: C8_10  and  O7_13 
ROOT
HETATM    1  O7    D T1302      18.841  12.224  20.238  1.00 18.77    -0.304 OA
ENDROOT
BRANCH   1   2
HETATM    2  C5    D T1302      17.821  13.014  19.763  1.00 19.44     0.125 A 
HETATM    3  C6    D T1302      17.925  14.378  19.933  1.00 18.58     0.154 A 
HETATM    4  C1    D T1302      16.911  15.248  19.502  1.00 18.07     0.041 A 
HETATM    5  O17   D T1302      19.091  14.914  20.494  1.00 19.82    -0.188 OA
HETATM    6  C2    D T1302      15.749  14.690  18.974  1.00 16.92     0.060 A 
HETATM    7  C3    D T1302      15.583  13.321  18.834  1.00 16.60     0.014 A 
HETATM    8 CL14   D T1302      14.464  15.762  18.474  1.00 19.02    -0.082 Cl
HETATM    9  C4    D T1302      16.679  12.510  19.183  1.00 17.69     0.028 A 
ENDBRANCH   1   2
BRANCH   1  10
HETATM   10  C8    D T1302      19.705  11.499  19.390  1.00 17.66     0.111 A 
HETATM   11  C9    D T1302      20.142  10.242  19.691  1.00 21.86     0.081 A 
HETATM   12  C10   D T1302      21.038   9.549  18.875  1.00 21.31     0.025 A 
HETATM   13 CL16   D T1302      19.644   9.490  21.183  1.00 25.77    -0.080 Cl
HETATM   14  C11   D T1302      21.482  10.176  17.698  1.00 22.96     0.059 A 
HETATM   15  C12   D T1302      21.083  11.436  17.350  1.00 22.42     0.013 A 
HETATM   16 CL15   D T1302      22.613   9.314  16.676  1.00 26.47    -0.082 Cl
HETATM   17  C13   D T1302      20.188  12.084  18.236  1.00 19.81     0.026 A 
ENDBRANCH   1  10
TORSDOF 2
ENDMDL
MODEL 5
REMARK VINA RESULT:      -7.9     10.773     12.524
REMARK  2 active torsions:
REMARK  status: ('A' for Active; 'I' for Inactive)
REMARK    1  A    between atoms: C5_4  and  O7_13 
REMARK    2  A    between atoms: C8_10  and  O7_13 
ROOT
HETATM    1  O7    D T1302      18.566  12.003  20.458  1.00 18.77    -0.304 OA
ENDROOT
BRANCH   1   2
HETATM    2  C5    D T1302      19.475  11.452  19.585  1.00 19.44     0.125 A 
HETATM    3  C6    D T1302      20.023  10.229  19.906  1.00 18.58     0.154 A 
HETATM    4  C1    D T1302      20.979   9.617  19.081  1.00 18.07     0.041 A 
HETATM    5  O17   D T1302      19.574   9.554  21.049  1.00 19.82    -0.188 OA
HETATM    6  C2    D T1302      21.429  10.320  17.966  1.00 16.92     0.060 A 
HETATM    7  C3    D T1302      20.943  11.575  17.637  1.00 16.60     0.014 A 
HETATM    8 CL14   D T1302      22.651   9.585  16.956  1.00 19.02    -0.082 Cl
HETATM    9  C4    D T1302      19.908  12.086  18.443  1.00 17.69     0.028 A 
ENDBRANCH   1   2
BRANCH   1  10
HETATM   10  C8    D T1302      18.199  13.364  20.421  1.00 17.66     0.111 A 
HETATM   11  C9    D T1302      17.085  13.805  19.767  1.00 21.86     0.081 A 
HETATM   12  C10   D T1302      16.753  15.159  19.689  1.00 21.31     0.025 A 
HETATM   13 CL16   D T1302      16.074  12.665  18.921  1.00 25.77    -0.080 Cl
HETATM   14  C11   D T1302      17.597  16.085  20.326  1.00 22.96     0.059 A 
HETATM   15  C12   D T1302      18.729  15.701  20.989  1.00 22.42     0.013 A 
HETATM   16 CL15   D T1302      17.190  17.786  20.223  1.00 26.47    -0.082 Cl
HETATM   17  C13   D T1302      19.011  14.314  21.010  1.00 19.81     0.026 A 
ENDBRANCH   1  10
TORSDOF 2
ENDMDL
MODEL 6
REMARK VINA RESULT:      -7.6      1.292      5.854
REMARK  2 active torsions:
REMARK  status: ('A' for Active; 'I' for Inactive)
REMARK    1  A    between atoms: C5_4  and  O7_13 
REMARK    2  A    between atoms: C8_10  and  O7_13 
ROOT
HETATM    1  O7    D T1302       9.651  13.100  12.342  1.00 18.77    -0.304 OA
ENDROOT
BRANCH   1   2
HETATM    2  C5    D T1302       8.997  14.068  11.615  1.00 19.44     0.125 A 
HETATM    3  C6    D T1302       7.658  14.275  11.867  1.00 18.58     0.154 A 
HETATM    4  C1    D T1302       6.917  15.224  11.146  1.00 18.07     0.041 A 
HETATM    5  O17   D T1302       7.037  13.566  12.903  1.00 19.82    -0.188 OA
HETATM    6  C2    D T1302       7.550  15.895  10.103  1.00 16.92     0.060 A 
HETATM    7  C3    D T1302       8.880  15.679   9.783  1.00 16.60     0.014 A 
HETATM    8 CL14   D T1302       6.623  17.048   9.172  1.00 19.02    -0.082 Cl
HETATM    9  C4    D T1302       9.597  14.796  10.613  1.00 17.69     0.028 A 
ENDBRANCH   1   2
BRANCH   1  10
HETATM   10  C8    D T1302      10.214  13.347  13.611  1.00 17.66     0.111 A 
HETATM   11  C9    D T1302       9.917  12.587  14.704  1.00 21.86     0.081 A 
HETATM   12  C10   D T1302      10.435  12.866  15.970  1.00 21.31     0.025 A 
HETATM   13 CL16   D T1302       8.785  11.269  14.556  1.00 25.77    -0.080 Cl
HETATM   14  C11   D T1302      11.306  13.961  16.101  1.00 22.96     0.059 A 
HETATM   15  C12   D T1302      11.634  14.761  15.042  1.00 22.42     0.013 A 
HETATM   16 CL15   D T1302      11.953  14.321  17.689  1.00 26.47    -0.082 Cl
HETATM   17  C13   D T1302      11.055  14.428  13.794  1.00 19.81     0.026 A 
ENDBRANCH   1  10
TORSDOF 2
ENDMDL
MODEL 7
REMARK VINA RESULT:      -7.6      1.421      1.848
REMARK  2 active torsions:
REMARK  status: ('A' for Active; 'I' for Inactive)
REMARK    1  A    between atoms: C5_4  and  O7_13 
REMARK    2  A    between atoms: C8_10  and  O7_13 
ROOT
HETATM    1  O7    D T1302       9.404  12.498  12.938  1.00 18.77    -0.304 OA
ENDROOT
BRANCH   1   2
HETATM    2  C5    D T1302       9.872  12.781  14.200  1.00 19.44     0.125 A 
HETATM    3  C6    D T1302      10.476  11.765  14.911  1.00 18.58     0.154 A 
HETATM    4  C1    D T1302      10.952  11.969  16.214  1.00 18.07     0.041 A 
HETATM    5  O17   D T1302      10.670  10.520  14.299  1.00 19.82    -0.188 OA
HETATM    6  C2    D T1302      10.721  13.206  16.811  1.00 16.92     0.060 A 
HETATM    7  C3    D T1302      10.073  14.237  16.150  1.00 16.60     0.014 A 
HETATM    8 CL14   D T1302      11.274  13.456  18.450  1.00 19.02    -0.082 Cl
HETATM    9  C4    D T1302       9.717  14.005  14.808  1.00 17.69     0.028 A 
ENDBRANCH   1   2
BRANCH   1  10
HETATM   10  C8    D T1302       8.846  13.478  12.092  1.00 17.66     0.111 A 
HETATM   11  C9    D T1302       9.599  14.206  11.218  1.00 21.86     0.081 A 
HETATM   12  C10   D T1302       9.051  15.212  10.420  1.00 21.31     0.025 A 
HETATM   13 CL16   D T1302      11.322  13.947  11.141  1.00 25.77    -0.080 Cl
HETATM   14  C11   D T1302       7.672  15.458  10.520  1.00 22.96     0.059 A 
HETATM   15  C12   D T1302       6.870  14.765  11.383  1.00 22.42     0.013 A 
HETATM   16 CL15   D T1302       6.981  16.726   9.526  1.00 26.47    -0.082 Cl
HETATM   17  C13   D T1302       7.499  13.774  12.173  1.00 19.81     0.026 A 
ENDBRANCH   1  10
TORSDOF 2
ENDMDL
MODEL 8
REMARK VINA RESULT:      -7.5      1.368      5.939
REMARK  2 active torsions:
REMARK  status: ('A' for Active; 'I' for Inactive)
REMARK    1  A    between atoms: C5_4  and  O7_13 
REMARK    2  A    between atoms: C8_10  and  O7_13 
ROOT
HETATM    1  O7    D T1302      10.468  13.099  12.654  1.00 18.77    -0.304 OA
ENDROOT
BRANCH   1   2
HETATM    2  C5    D T1302       9.610  13.874  11.909  1.00 19.44     0.125 A 
HETATM    3  C6    D T1302      10.155  14.805  11.051  1.00 18.58     0.154 A 
HETATM    4  C1    D T1302       9.344  15.651  10.280  1.00 18.07     0.041 A 
HETATM    5  O17   D T1302      11.546  14.869  10.902  1.00 19.82    -0.188 OA
HETATM    6  C2    D T1302       7.965  15.588  10.467  1.00 16.92     0.060 A 
HETATM    7  C3    D T1302       7.379  14.703  11.357  1.00 16.60     0.014 A 
HETATM    8 CL14   D T1302       6.949  16.668   9.543  1.00 19.02    -0.082 Cl
HETATM    9  C4    D T1302       8.240  13.806  12.019  1.00 17.69     0.028 A 
ENDBRANCH   1   2
BRANCH   1  10
HETATM   10  C8    D T1302      10.714  13.331  14.023  1.00 17.66     0.111 A 
HETATM   11  C9    D T1302      10.115  12.603  15.008  1.00 21.86     0.081 A 
HETATM   12  C10   D T1302      10.321  12.870  16.363  1.00 21.31     0.025 A 
HETATM   13 CL16   D T1302       8.982  11.347  14.586  1.00 25.77    -0.080 Cl
HETATM   14  C11   D T1302      11.193  13.918  16.706  1.00 22.96     0.059 A 
HETATM   15  C12   D T1302      11.816  14.684  15.760  1.00 22.42     0.013 A 
HETATM   16 CL15   D T1302      11.448  14.263  18.405  1.00 26.47    -0.082 Cl
HETATM   17  C13   D T1302      11.543  14.367  14.409  1.00 19.81     0.026 A 
ENDBRANCH   1  10
TORSDOF 2
ENDMDL
MODEL 9
REMARK VINA RESULT:      -7.5      4.271      4.902
REMARK  2 active torsions:
REMARK  status: ('A' for Active; 'I' for Inactive)
REMARK    1  A    between atoms: C5_4  and  O7_13 
REMARK    2  A    between atoms: C8_10  and  O7_13 
ROOT
HETATM    1  O7    D T1302      12.077  14.169  12.465  1.00 18.77    -0.304 OA
ENDROOT
BRANCH   1   2
HETATM    2  C5    D T1302      13.305  14.309  11.861  1.00 19.44     0.125 A 
HETATM    3  C6    D T1302      14.432  14.167  12.642  1.00 18.58     0.154 A 
HETATM    4  C1    D T1302      15.718  14.325  12.104  1.00 18.07     0.041 A 
HETATM    5  O17   D T1302      14.293  13.801  13.987  1.00 19.82    -0.188 OA
HETATM    6  C2    D T1302      15.828  14.717  10.772  1.00 16.92     0.060 A 
HETATM    7  C3    D T1302      14.719  14.921   9.966  1.00 16.60     0.014 A 
HETATM    8 CL14   D T1302      17.425  14.957  10.104  1.00 19.02    -0.082 Cl
HETATM    9  C4    D T1302      13.462  14.640  10.535  1.00 17.69     0.028 A 
ENDBRANCH   1   2
BRANCH   1  10
HETATM   10  C8    D T1302      10.883  14.655  11.893  1.00 17.66     0.111 A 
HETATM   11  C9    D T1302       9.938  13.828  11.358  1.00 21.86     0.081 A 
HETATM   12  C10   D T1302       8.782  14.315  10.746  1.00 21.31     0.025 A 
HETATM   13 CL16   D T1302      10.203  12.105  11.353  1.00 25.77    -0.080 Cl
HETATM   14  C11   D T1302       8.592  15.707  10.702  1.00 22.96     0.059 A 
HETATM   15  C12   D T1302       9.509  16.582  11.215  1.00 22.42     0.013 A 
HETATM   16 CL15   D T1302       7.147  16.323   9.926  1.00 26.47    -0.082 Cl
HETATM   17  C13   D T1302      10.664  16.016  11.804  1.00 19.81     0.026 A 
ENDBRANCH   1  10
TORSDOF 2
ENDMDL
