MODEL 1
REMARK VINA RESULT:    -7.661      0.000      0.000
REMARK INTER + INTRA:          -8.992
REMARK INTER:                  -8.557
REMARK INTRA:                  -0.435
REMARK UNBOUND:                -0.435
REMARK  2 active torsions:
REMARK  status: ('A' for Active; 'I' for Inactive)
REMARK    1  A    between atoms: C5_4  and  O7_13 
REMARK    2  A    between atoms: C8_10  and  O7_13 
ROOT
HETATM    1  O7    D T1302       4.601   0.661  -7.988  1.00 18.77    -0.304 OA
ENDROOT
BRANCH   1   2
HETATM    2  C5    D T1302       3.865   1.429  -7.115  1.00 19.44     0.125 A 
HETATM    3  C6    D T1302       2.950   0.793  -6.305  1.00 18.58     0.154 A 
HETATM    4  C1    D T1302       2.141   1.511  -5.411  1.00 18.07     0.041 A 
HETATM    5  O17   D T1302       2.864  -0.605  -6.332  1.00 19.82    -0.188 OA
HETATM    6  C2    D T1302       2.226   2.901  -5.423  1.00 16.92     0.060 A 
HETATM    7  C3    D T1302       3.096   3.583  -6.259  1.00 16.60     0.014 A 
HETATM    8 CL14   D T1302       1.193   3.807  -4.342  1.00 19.02    -0.082 Cl
HETATM    9  C4    D T1302       3.956   2.801  -7.053  1.00 17.69     0.028 A 
ENDBRANCH   1   2
BRANCH   1  10
HETATM   10  C8    D T1302       4.816   1.026  -9.333  1.00 17.66     0.111 A 
HETATM   11  C9    D T1302       3.841   0.930 -10.283  1.00 21.86     0.081 A 
HETATM   12  C10   D T1302       4.074   1.241 -11.623  1.00 21.31     0.025 A 
HETATM   13 CL16   D T1302       2.268   0.319  -9.846  1.00 25.77    -0.080 Cl
HETATM   14  C11   D T1302       5.357   1.684 -11.988  1.00 22.96     0.059 A 
HETATM   15  C12   D T1302       6.373   1.792 -11.080  1.00 22.42     0.013 A 
HETATM   16 CL15   D T1302       5.656   2.068 -13.670  1.00 26.47    -0.082 Cl
HETATM   17  C13   D T1302       6.068   1.440  -9.743  1.00 19.81     0.026 A 
ENDBRANCH   1  10
TORSDOF 2
ENDMDL
MODEL 2
REMARK VINA RESULT:    -7.410      1.441      6.062
REMARK INTER + INTRA:          -8.711
REMARK INTER:                  -8.176
REMARK INTRA:                  -0.535
REMARK UNBOUND:                -0.435
REMARK  2 active torsions:
REMARK  status: ('A' for Active; 'I' for Inactive)
REMARK    1  A    between atoms: C5_4  and  O7_13 
REMARK    2  A    between atoms: C8_10  and  O7_13 
ROOT
HETATM    1  O7    D T1302       5.643   1.393  -7.682  1.00 18.77    -0.304 OA
ENDROOT
BRANCH   1   2
HETATM    2  C5    D T1302       5.679   1.484  -9.054  1.00 19.44     0.125 A 
HETATM    3  C6    D T1302       6.634   2.297  -9.626  1.00 18.58     0.154 A 
HETATM    4  C1    D T1302       6.714   2.465 -11.016  1.00 18.07     0.041 A 
HETATM    5  O17   D T1302       7.581   2.923  -8.806  1.00 19.82    -0.188 OA
HETATM    6  C2    D T1302       5.743   1.854 -11.807  1.00 16.92     0.060 A 
HETATM    7  C3    D T1302       4.735   1.070 -11.269  1.00 16.60     0.014 A 
HETATM    8 CL14   D T1302       5.810   2.091 -13.538  1.00 19.02    -0.082 Cl
HETATM    9  C4    D T1302       4.774   0.854  -9.878  1.00 17.69     0.028 A 
ENDBRANCH   1   2
BRANCH   1  10
HETATM   10  C8    D T1302       4.599   1.937  -6.906  1.00 17.66     0.111 A 
HETATM   11  C9    D T1302       3.602   1.171  -6.377  1.00 21.86     0.081 A 
HETATM   12  C10   D T1302       2.543   1.721  -5.655  1.00 21.31     0.025 A 
HETATM   13 CL16   D T1302       3.586  -0.548  -6.673  1.00 25.77    -0.080 Cl
HETATM   14  C11   D T1302       2.526   3.113  -5.459  1.00 22.96     0.059 A 
HETATM   15  C12   D T1302       3.494   3.930  -5.973  1.00 22.42     0.013 A 
HETATM   16 CL15   D T1302       1.194   3.808  -4.560  1.00 26.47    -0.082 Cl
HETATM   17  C13   D T1302       4.526   3.303  -6.711  1.00 19.81     0.026 A 
ENDBRANCH   1  10
TORSDOF 2
ENDMDL
MODEL 3
REMARK VINA RESULT:    -7.396      1.693      2.135
REMARK INTER + INTRA:          -8.696
REMARK INTER:                  -8.160
REMARK INTRA:                  -0.536
REMARK UNBOUND:                -0.435
REMARK  2 active torsions:
REMARK  status: ('A' for Active; 'I' for Inactive)
REMARK    1  A    between atoms: C5_4  and  O7_13 
REMARK    2  A    between atoms: C8_10  and  O7_13 
ROOT
HETATM    1  O7    D T1302       5.586   1.517  -7.185  1.00 18.77    -0.304 OA
ENDROOT
BRANCH   1   2
HETATM    2  C5    D T1302       4.561   2.109  -6.483  1.00 19.44     0.125 A 
HETATM    3  C6    D T1302       3.627   1.291  -5.885  1.00 18.58     0.154 A 
HETATM    4  C1    D T1302       2.538   1.821  -5.178  1.00 18.07     0.041 A 
HETATM    5  O17   D T1302       3.800  -0.098  -5.935  1.00 19.82    -0.188 OA
HETATM    6  C2    D T1302       2.373   3.204  -5.167  1.00 16.92     0.060 A 
HETATM    7  C3    D T1302       3.260   4.060  -5.799  1.00 16.60     0.014 A 
HETATM    8 CL14   D T1302       0.995   3.872  -4.323  1.00 19.02    -0.082 Cl
HETATM    9  C4    D T1302       4.391   3.472  -6.398  1.00 17.69     0.028 A 
ENDBRANCH   1   2
BRANCH   1  10
HETATM   10  C8    D T1302       5.693   1.591  -8.589  1.00 17.66     0.111 A 
HETATM   11  C9    D T1302       6.625   2.369  -9.213  1.00 21.86     0.081 A 
HETATM   12  C10   D T1302       6.693   2.479 -10.602  1.00 21.31     0.025 A 
HETATM   13 CL16   D T1302       7.722   3.331  -8.260  1.00 25.77    -0.080 Cl
HETATM   14  C11   D T1302       5.775   1.744 -11.372  1.00 22.96     0.059 A 
HETATM   15  C12   D T1302       4.816   0.955 -10.800  1.00 22.42     0.013 A 
HETATM   16 CL15   D T1302       5.852   1.887 -13.115  1.00 26.47    -0.082 Cl
HETATM   17  C13   D T1302       4.795   0.908  -9.386  1.00 19.81     0.026 A 
ENDBRANCH   1  10
TORSDOF 2
ENDMDL
MODEL 4
REMARK VINA RESULT:    -7.254      2.391      2.953
REMARK INTER + INTRA:          -8.537
REMARK INTER:                  -8.063
REMARK INTRA:                  -0.475
REMARK UNBOUND:                -0.435
REMARK  2 active torsions:
REMARK  status: ('A' for Active; 'I' for Inactive)
REMARK    1  A    between atoms: C5_4  and  O7_13 
REMARK    2  A    between atoms: C8_10  and  O7_13 
ROOT
HETATM    1  O7    D T1302       4.548   3.502  -7.809  1.00 18.77    -0.304 OA
ENDROOT
BRANCH   1   2
HETATM    2  C5    D T1302       4.141   2.650  -6.808  1.00 19.44     0.125 A 
HETATM    3  C6    D T1302       3.084   3.040  -6.014  1.00 18.58     0.154 A 
HETATM    4  C1    D T1302       2.632   2.240  -4.955  1.00 18.07     0.041 A 
HETATM    5  O17   D T1302       2.410   4.233  -6.306  1.00 19.82    -0.188 OA
HETATM    6  C2    D T1302       3.336   1.073  -4.668  1.00 16.92     0.060 A 
HETATM    7  C3    D T1302       4.435   0.670  -5.408  1.00 16.60     0.014 A 
HETATM    8 CL14   D T1302       2.805   0.090  -3.323  1.00 19.02    -0.082 Cl
HETATM    9  C4    D T1302       4.772   1.460  -6.524  1.00 17.69     0.028 A 
ENDBRANCH   1   2
BRANCH   1  10
HETATM   10  C8    D T1302       4.823   3.064  -9.120  1.00 17.66     0.111 A 
HETATM   11  C9    D T1302       6.095   2.911  -9.590  1.00 21.86     0.081 A 
HETATM   12  C10   D T1302       6.363   2.529 -10.905  1.00 21.31     0.025 A 
HETATM   13 CL16   D T1302       7.448   3.283  -8.554  1.00 25.77    -0.080 Cl
HETATM   14  C11   D T1302       5.274   2.279 -11.758  1.00 22.96     0.059 A 
HETATM   15  C12   D T1302       3.979   2.423 -11.344  1.00 22.42     0.013 A 
HETATM   16 CL15   D T1302       5.606   1.807 -13.411  1.00 26.47    -0.082 Cl
HETATM   17  C13   D T1302       3.785   2.833 -10.003  1.00 19.81     0.026 A 
ENDBRANCH   1  10
TORSDOF 2
ENDMDL
MODEL 5
REMARK VINA RESULT:    -7.160      3.975      6.351
REMARK INTER + INTRA:          -8.432
REMARK INTER:                  -8.413
REMARK INTRA:                  -0.019
REMARK UNBOUND:                -0.435
REMARK  2 active torsions:
REMARK  status: ('A' for Active; 'I' for Inactive)
REMARK    1  A    between atoms: C5_4  and  O7_13 
REMARK    2  A    between atoms: C8_10  and  O7_13 
ROOT
HETATM    1  O7    D T1302       6.232   2.134  -7.595  1.00 18.77    -0.304 OA
ENDROOT
BRANCH   1   2
HETATM    2  C5    D T1302       6.152   2.126  -8.968  1.00 19.44     0.125 A 
HETATM    3  C6    D T1302       5.402   1.139  -9.569  1.00 18.58     0.154 A 
HETATM    4  C1    D T1302       5.298   1.048 -10.965  1.00 18.07     0.041 A 
HETATM    5  O17   D T1302       4.682   0.242  -8.770  1.00 19.82    -0.188 OA
HETATM    6  C2    D T1302       6.046   1.934 -11.737  1.00 16.92     0.060 A 
HETATM    7  C3    D T1302       6.853   2.909 -11.173  1.00 16.60     0.014 A 
HETATM    8 CL14   D T1302       5.955   1.801 -13.478  1.00 19.02    -0.082 Cl
HETATM    9  C4    D T1302       6.829   3.017  -9.770  1.00 17.69     0.028 A 
ENDBRANCH   1   2
BRANCH   1  10
HETATM   10  C8    D T1302       7.456   2.072  -6.899  1.00 17.66     0.111 A 
HETATM   11  C9    D T1302       7.559   2.357  -5.569  1.00 21.86     0.081 A 
HETATM   12  C10   D T1302       8.781   2.346  -4.896  1.00 21.31     0.025 A 
HETATM   13 CL16   D T1302       6.139   2.837  -4.678  1.00 25.77    -0.080 Cl
HETATM   14  C11   D T1302       9.936   2.010  -5.625  1.00 22.96     0.059 A 
HETATM   15  C12   D T1302       9.893   1.723  -6.961  1.00 22.42     0.013 A 
HETATM   16 CL15   D T1302      11.473   2.003  -4.787  1.00 26.47    -0.082 Cl
HETATM   17  C13   D T1302       8.622   1.773  -7.579  1.00 19.81     0.026 A 
ENDBRANCH   1  10
TORSDOF 2
ENDMDL
MODEL 6
REMARK VINA RESULT:    -7.154      2.163      6.176
REMARK INTER + INTRA:          -8.426
REMARK INTER:                  -7.916
REMARK INTRA:                  -0.510
REMARK UNBOUND:                -0.435
REMARK  2 active torsions:
REMARK  status: ('A' for Active; 'I' for Inactive)
REMARK    1  A    between atoms: C5_4  and  O7_13 
REMARK    2  A    between atoms: C8_10  and  O7_13 
ROOT
HETATM    1  O7    D T1302       2.899   1.872  -7.933  1.00 18.77    -0.304 OA
ENDROOT
BRANCH   1   2
HETATM    2  C5    D T1302       3.707   1.810  -9.044  1.00 19.44     0.125 A 
HETATM    3  C6    D T1302       3.510   2.739 -10.043  1.00 18.58     0.154 A 
HETATM    4  C1    D T1302       4.274   2.721 -11.219  1.00 18.07     0.041 A 
HETATM    5  O17   D T1302       2.567   3.757  -9.856  1.00 19.82    -0.188 OA
HETATM    6  C2    D T1302       5.186   1.682 -11.392  1.00 16.92     0.060 A 
HETATM    7  C3    D T1302       5.378   0.697 -10.436  1.00 16.60     0.014 A 
HETATM    8 CL14   D T1302       6.114   1.627 -12.873  1.00 19.02    -0.082 Cl
HETATM    9  C4    D T1302       4.659   0.834  -9.233  1.00 17.69     0.028 A 
ENDBRANCH   1   2
BRANCH   1  10
HETATM   10  C8    D T1302       3.359   2.313  -6.676  1.00 17.66     0.111 A 
HETATM   11  C9    D T1302       3.638   1.453  -5.654  1.00 21.86     0.081 A 
HETATM   12  C10   D T1302       4.042   1.898  -4.395  1.00 21.31     0.025 A 
HETATM   13 CL16   D T1302       3.405  -0.260  -5.881  1.00 25.77    -0.080 Cl
HETATM   14  C11   D T1302       4.180   3.282  -4.193  1.00 22.96     0.059 A 
HETATM   15  C12   D T1302       3.908   4.190  -5.178  1.00 22.42     0.013 A 
HETATM   16 CL15   D T1302       4.680   3.845  -2.612  1.00 26.47    -0.082 Cl
HETATM   17  C13   D T1302       3.484   3.666  -6.422  1.00 19.81     0.026 A 
ENDBRANCH   1  10
TORSDOF 2
ENDMDL
MODEL 7
REMARK VINA RESULT:    -7.148      2.196      6.210
REMARK INTER + INTRA:          -8.418
REMARK INTER:                  -7.927
REMARK INTRA:                  -0.491
REMARK UNBOUND:                -0.435
REMARK  2 active torsions:
REMARK  status: ('A' for Active; 'I' for Inactive)
REMARK    1  A    between atoms: C5_4  and  O7_13 
REMARK    2  A    between atoms: C8_10  and  O7_13 
ROOT
HETATM    1  O7    D T1302       4.779   3.462  -7.788  1.00 18.77    -0.304 OA
ENDROOT
BRANCH   1   2
HETATM    2  C5    D T1302       4.927   3.036  -9.088  1.00 19.44     0.125 A 
HETATM    3  C6    D T1302       6.203   2.949  -9.601  1.00 18.58     0.154 A 
HETATM    4  C1    D T1302       6.432   2.552 -10.926  1.00 18.07     0.041 A 
HETATM    5  O17   D T1302       7.298   3.205  -8.765  1.00 19.82    -0.188 OA
HETATM    6  C2    D T1302       5.326   2.330 -11.744  1.00 16.92     0.060 A 
HETATM    7  C3    D T1302       4.026   2.457 -11.283  1.00 16.60     0.014 A 
HETATM    8 CL14   D T1302       5.601   1.875 -13.410  1.00 19.02    -0.082 Cl
HETATM    9  C4    D T1302       3.865   2.752  -9.916  1.00 17.69     0.028 A 
ENDBRANCH   1   2
BRANCH   1  10
HETATM   10  C8    D T1302       4.289   2.629  -6.762  1.00 17.66     0.111 A 
HETATM   11  C9    D T1302       3.183   2.944  -6.027  1.00 21.86     0.081 A 
HETATM   12  C10   D T1302       2.732   2.143  -4.978  1.00 21.31     0.025 A 
HETATM   13 CL16   D T1302       2.337   4.436  -6.340  1.00 25.77    -0.080 Cl
HETATM   14  C11   D T1302       3.444   0.965  -4.690  1.00 22.96     0.059 A 
HETATM   15  C12   D T1302       4.563   0.604  -5.387  1.00 22.42     0.013 A 
HETATM   16 CL15   D T1302       2.887  -0.039  -3.367  1.00 26.47    -0.082 Cl
HETATM   17  C13   D T1302       4.971   1.475  -6.424  1.00 19.81     0.026 A 
ENDBRANCH   1  10
TORSDOF 2
ENDMDL
MODEL 8
REMARK VINA RESULT:    -7.022      2.036      2.172
REMARK INTER + INTRA:          -8.278
REMARK INTER:                  -7.801
REMARK INTRA:                  -0.476
REMARK UNBOUND:                -0.435
REMARK  2 active torsions:
REMARK  status: ('A' for Active; 'I' for Inactive)
REMARK    1  A    between atoms: C5_4  and  O7_13 
REMARK    2  A    between atoms: C8_10  and  O7_13 
ROOT
HETATM    1  O7    D T1302       2.890   1.920  -7.440  1.00 18.77    -0.304 OA
ENDROOT
BRANCH   1   2
HETATM    2  C5    D T1302       3.326   2.467  -6.255  1.00 19.44     0.125 A 
HETATM    3  C6    D T1302       3.519   1.623  -5.183  1.00 18.58     0.154 A 
HETATM    4  C1    D T1302       3.933   2.110  -3.935  1.00 18.07     0.041 A 
HETATM    5  O17   D T1302       3.353   0.243  -5.358  1.00 19.82    -0.188 OA
HETATM    6  C2    D T1302       4.064   3.488  -3.779  1.00 16.92     0.060 A 
HETATM    7  C3    D T1302       3.830   4.376  -4.817  1.00 16.60     0.014 A 
HETATM    8 CL14   D T1302       4.539   4.108  -2.215  1.00 19.02    -0.082 Cl
HETATM    9  C4    D T1302       3.523   3.817  -6.072  1.00 17.69     0.028 A 
ENDBRANCH   1   2
BRANCH   1  10
HETATM   10  C8    D T1302       3.706   1.829  -8.586  1.00 17.66     0.111 A 
HETATM   11  C9    D T1302       3.680   2.762  -9.581  1.00 21.86     0.081 A 
HETATM   12  C10   D T1302       4.450   2.640 -10.738  1.00 21.31     0.025 A 
HETATM   13 CL16   D T1302       2.592   4.120  -9.461  1.00 25.77    -0.080 Cl
HETATM   14  C11   D T1302       5.289   1.519 -10.860  1.00 22.96     0.059 A 
HETATM   15  C12   D T1302       5.350   0.549  -9.899  1.00 22.42     0.013 A 
HETATM   16 CL15   D T1302       6.251   1.357 -12.315  1.00 26.47    -0.082 Cl
HETATM   17  C13   D T1302       4.527   0.731  -8.763  1.00 19.81     0.026 A 
ENDBRANCH   1  10
TORSDOF 2
ENDMDL
MODEL 9
REMARK VINA RESULT:    -6.931      2.560      6.262
REMARK INTER + INTRA:          -8.176
REMARK INTER:                  -7.774
REMARK INTRA:                  -0.402
REMARK UNBOUND:                -0.435
REMARK  2 active torsions:
REMARK  status: ('A' for Active; 'I' for Inactive)
REMARK    1  A    between atoms: C5_4  and  O7_13 
REMARK    2  A    between atoms: C8_10  and  O7_13 
ROOT
HETATM    1  O7    D T1302       4.639   3.790  -7.711  1.00 18.77    -0.304 OA
ENDROOT
BRANCH   1   2
HETATM    2  C5    D T1302       4.957   3.369  -8.981  1.00 19.44     0.125 A 
HETATM    3  C6    D T1302       3.988   3.459  -9.956  1.00 18.58     0.154 A 
HETATM    4  C1    D T1302       4.226   3.022 -11.267  1.00 18.07     0.041 A 
HETATM    5  O17   D T1302       2.757   4.054  -9.647  1.00 19.82    -0.188 OA
HETATM    6  C2    D T1302       5.447   2.409 -11.541  1.00 16.92     0.060 A 
HETATM    7  C3    D T1302       6.430   2.251 -10.578  1.00 16.60     0.014 A 
HETATM    8 CL14   D T1302       5.738   1.823 -13.163  1.00 19.02    -0.082 Cl
HETATM    9  C4    D T1302       6.170   2.809  -9.311  1.00 17.69     0.028 A 
ENDBRANCH   1   2
BRANCH   1  10
HETATM   10  C8    D T1302       4.225   2.907  -6.693  1.00 17.66     0.111 A 
HETATM   11  C9    D T1302       5.093   2.376  -5.784  1.00 21.86     0.081 A 
HETATM   12  C10   D T1302       4.688   1.462  -4.812  1.00 21.31     0.025 A 
HETATM   13 CL16   D T1302       6.788   2.776  -5.876  1.00 25.77    -0.080 Cl
HETATM   14  C11   D T1302       3.331   1.098  -4.769  1.00 22.96     0.059 A 
HETATM   15  C12   D T1302       2.418   1.592  -5.658  1.00 22.42     0.013 A 
HETATM   16 CL15   D T1302       2.819  -0.056  -3.555  1.00 26.47    -0.082 Cl
HETATM   17  C13   D T1302       2.906   2.500  -6.628  1.00 19.81     0.026 A 
ENDBRANCH   1  10
TORSDOF 2
ENDMDL
