MODEL 1
REMARK VINA RESULT:    -8.336      0.000      0.000
REMARK INTER + INTRA:          -9.455
REMARK INTER:                  -9.311
REMARK INTRA:                  -0.144
REMARK UNBOUND:                -0.144
REMARK  2 active torsions:
REMARK  status: ('A' for Active; 'I' for Inactive)
REMARK    1  A    between atoms: C5_4  and  O7_13 
REMARK    2  A    between atoms: C8_10  and  O7_13 
ROOT
HETATM    1  O7    D T1302      18.585  12.089  19.371  1.00 18.77    -0.304 OA
ENDROOT
BRANCH   1   2
HETATM    2  C5    D T1302      18.721  13.425  19.667  1.00 19.44     0.125 A 
HETATM    3  C6    D T1302      18.597  13.814  20.984  1.00 18.58     0.154 A 
HETATM    4  C1    D T1302      18.693  15.161  21.360  1.00 18.07     0.041 A 
HETATM    5  O17   D T1302      18.429  12.838  21.975  1.00 19.82    -0.188 OA
HETATM    6  C2    D T1302      18.832  16.115  20.354  1.00 16.92     0.060 A 
HETATM    7  C3    D T1302      18.908  15.771  19.014  1.00 16.60     0.014 A 
HETATM    8 CL14   D T1302      18.910  17.800  20.810  1.00 19.02    -0.082 Cl
HETATM    9  C4    D T1302      18.915  14.396  18.712  1.00 17.69     0.028 A 
ENDBRANCH   1   2
BRANCH   1  10
HETATM   10  C8    D T1302      19.592  11.342  18.726  1.00 17.66     0.111 A 
HETATM   11  C9    D T1302      20.259  10.325  19.344  1.00 21.86     0.081 A 
HETATM   12  C10   D T1302      21.292   9.623  18.721  1.00 21.31     0.025 A 
HETATM   13 CL16   D T1302      19.884   9.928  21.000  1.00 25.77    -0.080 Cl
HETATM   14  C11   D T1302      21.632   9.977  17.404  1.00 22.96     0.059 A 
HETATM   15  C12   D T1302      21.003  10.992  16.738  1.00 22.42     0.013 A 
HETATM   16 CL15   D T1302      22.934   9.105  16.620  1.00 26.47    -0.082 Cl
HETATM   17  C13   D T1302      19.979  11.671  17.441  1.00 19.81     0.026 A 
ENDBRANCH   1  10
TORSDOF 2
ENDMDL
MODEL 2
REMARK VINA RESULT:    -8.190     12.049     13.245
REMARK INTER + INTRA:          -9.292
REMARK INTER:                  -8.918
REMARK INTRA:                  -0.374
REMARK UNBOUND:                -0.144
REMARK  2 active torsions:
REMARK  status: ('A' for Active; 'I' for Inactive)
REMARK    1  A    between atoms: C5_4  and  O7_13 
REMARK    2  A    between atoms: C8_10  and  O7_13 
ROOT
HETATM    1  O7    D T1302       9.957  12.941  12.055  1.00 18.77    -0.304 OA
ENDROOT
BRANCH   1   2
HETATM    2  C5    D T1302      10.204  12.920  13.408  1.00 19.44     0.125 A 
HETATM    3  C6    D T1302      10.069  11.721  14.074  1.00 18.58     0.154 A 
HETATM    4  C1    D T1302      10.275  11.626  15.458  1.00 18.07     0.041 A 
HETATM    5  O17   D T1302       9.778  10.560  13.345  1.00 19.82    -0.188 OA
HETATM    6  C2    D T1302      10.536  12.799  16.164  1.00 16.92     0.060 A 
HETATM    7  C3    D T1302      10.628  14.033  15.541  1.00 16.60     0.014 A 
HETATM    8 CL14   D T1302      10.752  12.698  17.895  1.00 19.02    -0.082 Cl
HETATM    9  C4    D T1302      10.519  14.044  14.137  1.00 17.69     0.028 A 
ENDBRANCH   1   2
BRANCH   1  10
HETATM   10  C8    D T1302       9.173  13.936  11.436  1.00 17.66     0.111 A 
HETATM   11  C9    D T1302       7.829  14.043  11.641  1.00 21.86     0.081 A 
HETATM   12  C10   D T1302       7.048  14.997  10.985  1.00 21.31     0.025 A 
HETATM   13 CL16   D T1302       7.023  12.906  12.688  1.00 25.77    -0.080 Cl
HETATM   14  C11   D T1302       7.687  15.881  10.100  1.00 22.96     0.059 A 
HETATM   15  C12   D T1302       9.030  15.815   9.851  1.00 22.42     0.013 A 
HETATM   16 CL15   D T1302       6.710  17.074   9.268  1.00 26.47    -0.082 Cl
HETATM   17  C13   D T1302       9.753  14.811  10.537  1.00 19.81     0.026 A 
ENDBRANCH   1  10
TORSDOF 2
ENDMDL
MODEL 3
REMARK VINA RESULT:    -8.164      2.067      2.267
REMARK INTER + INTRA:          -9.262
REMARK INTER:                  -8.823
REMARK INTRA:                  -0.439
REMARK UNBOUND:                -0.144
REMARK  2 active torsions:
REMARK  status: ('A' for Active; 'I' for Inactive)
REMARK    1  A    between atoms: C5_4  and  O7_13 
REMARK    2  A    between atoms: C8_10  and  O7_13 
ROOT
HETATM    1  O7    D T1302      18.938  12.321  20.230  1.00 18.77    -0.304 OA
ENDROOT
BRANCH   1   2
HETATM    2  C5    D T1302      17.885  13.083  19.781  1.00 19.44     0.125 A 
HETATM    3  C6    D T1302      17.930  14.444  19.998  1.00 18.58     0.154 A 
HETATM    4  C1    D T1302      16.881  15.283  19.597  1.00 18.07     0.041 A 
HETATM    5  O17   D T1302      19.073  15.009  20.581  1.00 19.82    -0.188 OA
HETATM    6  C2    D T1302      15.744  14.695  19.047  1.00 16.92     0.060 A 
HETATM    7  C3    D T1302      15.637  13.326  18.858  1.00 16.60     0.014 A 
HETATM    8 CL14   D T1302      14.414  15.728  18.581  1.00 19.02    -0.082 Cl
HETATM    9  C4    D T1302      16.767  12.551  19.182  1.00 17.69     0.028 A 
ENDBRANCH   1   2
BRANCH   1  10
HETATM   10  C8    D T1302      19.756  11.563  19.367  1.00 17.66     0.111 A 
HETATM   11  C9    D T1302      20.141  10.286  19.657  1.00 21.86     0.081 A 
HETATM   12  C10   D T1302      20.993   9.558  18.825  1.00 21.31     0.025 A 
HETATM   13 CL16   D T1302      19.634   9.551  21.154  1.00 25.77    -0.080 Cl
HETATM   14  C11   D T1302      21.446  10.168  17.643  1.00 22.96     0.059 A 
HETATM   15  C12   D T1302      21.098  11.447  17.306  1.00 22.42     0.013 A 
HETATM   16 CL15   D T1302      22.523   9.261  16.600  1.00 26.47    -0.082 Cl
HETATM   17  C13   D T1302      20.247  12.130  18.207  1.00 19.81     0.026 A 
ENDBRANCH   1  10
TORSDOF 2
ENDMDL
MODEL 4
REMARK VINA RESULT:    -8.160      2.258      5.968
REMARK INTER + INTRA:          -9.258
REMARK INTER:                  -8.825
REMARK INTRA:                  -0.433
REMARK UNBOUND:                -0.144
REMARK  2 active torsions:
REMARK  status: ('A' for Active; 'I' for Inactive)
REMARK    1  A    between atoms: C5_4  and  O7_13 
REMARK    2  A    between atoms: C8_10  and  O7_13 
ROOT
HETATM    1  O7    D T1302      18.689  12.200  20.331  1.00 18.77    -0.304 OA
ENDROOT
BRANCH   1   2
HETATM    2  C5    D T1302      19.560  11.553  19.485  1.00 19.44     0.125 A 
HETATM    3  C6    D T1302      20.008  10.301  19.848  1.00 18.58     0.154 A 
HETATM    4  C1    D T1302      20.920   9.592  19.053  1.00 18.07     0.041 A 
HETATM    5  O17   D T1302      19.498   9.699  21.006  1.00 19.82    -0.188 OA
HETATM    6  C2    D T1302      21.433  10.224  17.922  1.00 16.92     0.060 A 
HETATM    7  C3    D T1302      21.049  11.502  17.550  1.00 16.60     0.014 A 
HETATM    8 CL14   D T1302      22.602   9.365  16.947  1.00 19.02    -0.082 Cl
HETATM    9  C4    D T1302      20.050  12.116  18.329  1.00 17.69     0.028 A 
ENDBRANCH   1   2
BRANCH   1  10
HETATM   10  C8    D T1302      17.697  13.091  19.872  1.00 17.66     0.111 A 
HETATM   11  C9    D T1302      17.783  14.440  20.056  1.00 21.86     0.081 A 
HETATM   12  C10   D T1302      16.774  15.314  19.647  1.00 21.31     0.025 A 
HETATM   13 CL16   D T1302      19.151  15.110  20.905  1.00 25.77    -0.080 Cl
HETATM   14  C11   D T1302      15.646  14.770  19.010  1.00 22.96     0.059 A 
HETATM   15  C12   D T1302      15.503  13.426  18.805  1.00 22.42     0.013 A 
HETATM   16 CL15   D T1302      14.373  15.862  18.502  1.00 26.47    -0.082 Cl
HETATM   17  C13   D T1302      16.557  12.601  19.264  1.00 19.81     0.026 A 
ENDBRANCH   1  10
TORSDOF 2
ENDMDL
MODEL 5
REMARK VINA RESULT:    -7.781     11.990     13.004
REMARK INTER + INTRA:          -8.834
REMARK INTER:                  -8.550
REMARK INTRA:                  -0.285
REMARK UNBOUND:                -0.144
REMARK  2 active torsions:
REMARK  status: ('A' for Active; 'I' for Inactive)
REMARK    1  A    between atoms: C5_4  and  O7_13 
REMARK    2  A    between atoms: C8_10  and  O7_13 
ROOT
HETATM    1  O7    D T1302       9.618  12.933  12.278  1.00 18.77    -0.304 OA
ENDROOT
BRANCH   1   2
HETATM    2  C5    D T1302       8.988  13.936  11.579  1.00 19.44     0.125 A 
HETATM    3  C6    D T1302       7.642  14.133  11.798  1.00 18.58     0.154 A 
HETATM    4  C1    D T1302       6.925  15.117  11.102  1.00 18.07     0.041 A 
HETATM    5  O17   D T1302       6.988  13.375  12.778  1.00 19.82    -0.188 OA
HETATM    6  C2    D T1302       7.590  15.838  10.113  1.00 16.92     0.060 A 
HETATM    7  C3    D T1302       8.931  15.635   9.825  1.00 16.60     0.014 A 
HETATM    8 CL14   D T1302       6.694  17.036   9.211  1.00 19.02    -0.082 Cl
HETATM    9  C4    D T1302       9.620  14.711  10.633  1.00 17.69     0.028 A 
ENDBRANCH   1   2
BRANCH   1  10
HETATM   10  C8    D T1302      10.054  13.086  13.610  1.00 17.66     0.111 A 
HETATM   11  C9    D T1302       9.725  12.200  14.594  1.00 21.86     0.081 A 
HETATM   12  C10   D T1302      10.114  12.383  15.923  1.00 21.31     0.025 A 
HETATM   13 CL16   D T1302       8.713  10.830  14.220  1.00 25.77    -0.080 Cl
HETATM   14  C11   D T1302      10.886  13.515  16.236  1.00 22.96     0.059 A 
HETATM   15  C12   D T1302      11.238  14.439  15.292  1.00 22.42     0.013 A 
HETATM   16 CL15   D T1302      11.369  13.754  17.903  1.00 26.47    -0.082 Cl
HETATM   17  C13   D T1302      10.792  14.196  13.972  1.00 19.81     0.026 A 
ENDBRANCH   1  10
TORSDOF 2
ENDMDL
MODEL 6
REMARK VINA RESULT:    -7.538     10.751     12.407
REMARK INTER + INTRA:          -8.563
REMARK INTER:                  -8.033
REMARK INTRA:                  -0.530
REMARK UNBOUND:                -0.144
REMARK  2 active torsions:
REMARK  status: ('A' for Active; 'I' for Inactive)
REMARK    1  A    between atoms: C5_4  and  O7_13 
REMARK    2  A    between atoms: C8_10  and  O7_13 
ROOT
HETATM    1  O7    D T1302      10.958  14.921  14.223  1.00 18.77    -0.304 OA
ENDROOT
BRANCH   1   2
HETATM    2  C5    D T1302      11.180  13.604  14.550  1.00 19.44     0.125 A 
HETATM    3  C6    D T1302      12.402  13.053  14.230  1.00 18.58     0.154 A 
HETATM    4  C1    D T1302      12.692  11.708  14.505  1.00 18.07     0.041 A 
HETATM    5  O17   D T1302      13.396  13.866  13.671  1.00 19.82    -0.188 OA
HETATM    6  C2    D T1302      11.678  10.914  15.034  1.00 16.92     0.060 A 
HETATM    7  C3    D T1302      10.419  11.415  15.322  1.00 16.60     0.014 A 
HETATM    8 CL14   D T1302      12.016   9.227  15.341  1.00 19.02    -0.082 Cl
HETATM    9  C4    D T1302      10.226  12.796  15.125  1.00 17.69     0.028 A 
ENDBRANCH   1   2
BRANCH   1  10
HETATM   10  C8    D T1302      10.088  15.316  13.186  1.00 17.66     0.111 A 
HETATM   11  C9    D T1302       8.827  15.780  13.424  1.00 21.86     0.081 A 
HETATM   12  C10   D T1302       7.950  16.120  12.392  1.00 21.31     0.025 A 
HETATM   13 CL16   D T1302       8.240  15.880  15.063  1.00 25.77    -0.080 Cl
HETATM   14  C11   D T1302       8.403  15.989  11.069  1.00 22.96     0.059 A 
HETATM   15  C12   D T1302       9.653  15.523  10.771  1.00 22.42     0.013 A 
HETATM   16 CL15   D T1302       7.303  16.406   9.770  1.00 26.47    -0.082 Cl
HETATM   17  C13   D T1302      10.479  15.181  11.868  1.00 19.81     0.026 A 
ENDBRANCH   1  10
TORSDOF 2
ENDMDL
MODEL 7
REMARK VINA RESULT:    -7.531     10.713     11.779
REMARK INTER + INTRA:          -8.556
REMARK INTER:                  -8.188
REMARK INTRA:                  -0.367
REMARK UNBOUND:                -0.144
REMARK  2 active torsions:
REMARK  status: ('A' for Active; 'I' for Inactive)
REMARK    1  A    between atoms: C5_4  and  O7_13 
REMARK    2  A    between atoms: C8_10  and  O7_13 
ROOT
HETATM    1  O7    D T1302      10.149  11.909  13.799  1.00 18.77    -0.304 OA
ENDROOT
BRANCH   1   2
HETATM    2  C5    D T1302       9.784  12.838  12.852  1.00 19.44     0.125 A 
HETATM    3  C6    D T1302       8.448  12.948  12.531  1.00 18.58     0.154 A 
HETATM    4  C1    D T1302       8.003  13.851  11.554  1.00 18.07     0.041 A 
HETATM    5  O17   D T1302       7.508  12.183  13.234  1.00 19.82    -0.188 OA
HETATM    6  C2    D T1302       8.959  14.579  10.850  1.00 16.92     0.060 A 
HETATM    7  C3    D T1302      10.316  14.461  11.105  1.00 16.60     0.014 A 
HETATM    8 CL14   D T1302       8.416  15.676   9.602  1.00 19.02    -0.082 Cl
HETATM    9  C4    D T1302      10.689  13.619  12.170  1.00 17.69     0.028 A 
ENDBRANCH   1   2
BRANCH   1  10
HETATM   10  C8    D T1302      10.590  12.265  15.089  1.00 17.66     0.111 A 
HETATM   11  C9    D T1302      11.435  11.479  15.817  1.00 21.86     0.081 A 
HETATM   12  C10   D T1302      11.828  11.810  17.115  1.00 21.31     0.025 A 
HETATM   13 CL16   D T1302      11.987   9.963  15.157  1.00 25.77    -0.080 Cl
HETATM   14  C11   D T1302      11.342  13.006  17.670  1.00 22.96     0.059 A 
HETATM   15  C12   D T1302      10.488  13.829  16.989  1.00 22.42     0.013 A 
HETATM   16 CL15   D T1302      11.826  13.421  19.302  1.00 26.47    -0.082 Cl
HETATM   17  C13   D T1302      10.119  13.419  15.686  1.00 19.81     0.026 A 
ENDBRANCH   1  10
TORSDOF 2
ENDMDL
MODEL 8
REMARK VINA RESULT:    -7.512     11.352     12.871
REMARK INTER + INTRA:          -8.534
REMARK INTER:                  -8.164
REMARK INTRA:                  -0.371
REMARK UNBOUND:                -0.144
REMARK  2 active torsions:
REMARK  status: ('A' for Active; 'I' for Inactive)
REMARK    1  A    between atoms: C5_4  and  O7_13 
REMARK    2  A    between atoms: C8_10  and  O7_13 
ROOT
HETATM    1  O7    D T1302       9.128  14.363  14.518  1.00 18.77    -0.304 OA
ENDROOT
BRANCH   1   2
HETATM    2  C5    D T1302       9.765  13.153  14.668  1.00 19.44     0.125 A 
HETATM    3  C6    D T1302      10.466  12.930  15.833  1.00 18.58     0.154 A 
HETATM    4  C1    D T1302      11.166  11.733  16.047  1.00 18.07     0.041 A 
HETATM    5  O17   D T1302      10.434  13.893  16.850  1.00 19.82    -0.188 OA
HETATM    6  C2    D T1302      11.207  10.803  15.010  1.00 16.92     0.060 A 
HETATM    7  C3    D T1302      10.559  11.011  13.803  1.00 16.60     0.014 A 
HETATM    8 CL14   D T1302      12.112   9.327  15.251  1.00 19.02    -0.082 Cl
HETATM    9  C4    D T1302       9.785  12.182  13.693  1.00 17.69     0.028 A 
ENDBRANCH   1   2
BRANCH   1  10
HETATM   10  C8    D T1302       8.755  14.880  13.260  1.00 17.66     0.111 A 
HETATM   11  C9    D T1302       9.593  15.650  12.507  1.00 21.86     0.081 A 
HETATM   12  C10   D T1302       9.202  16.204  11.287  1.00 21.31     0.025 A 
HETATM   13 CL16   D T1302      11.182  16.040  13.111  1.00 25.77    -0.080 Cl
HETATM   14  C11   D T1302       7.903  15.935  10.824  1.00 22.96     0.059 A 
HETATM   15  C12   D T1302       7.019  15.176  11.539  1.00 22.42     0.013 A 
HETATM   16 CL15   D T1302       7.405  16.634   9.297  1.00 26.47    -0.082 Cl
HETATM   17  C13   D T1302       7.480  14.664  12.775  1.00 19.81     0.026 A 
ENDBRANCH   1  10
TORSDOF 2
ENDMDL
MODEL 9
REMARK VINA RESULT:    -7.357     10.430     11.742
REMARK INTER + INTRA:          -8.361
REMARK INTER:                  -7.847
REMARK INTRA:                  -0.513
REMARK UNBOUND:                -0.144
REMARK  2 active torsions:
REMARK  status: ('A' for Active; 'I' for Inactive)
REMARK    1  A    between atoms: C5_4  and  O7_13 
REMARK    2  A    between atoms: C8_10  and  O7_13 
ROOT
HETATM    1  O7    D T1302       9.633  13.222  14.435  1.00 18.77    -0.304 OA
ENDROOT
BRANCH   1   2
HETATM    2  C5    D T1302      10.864  13.207  15.049  1.00 19.44     0.125 A 
HETATM    3  C6    D T1302      11.583  12.031  15.033  1.00 18.58     0.154 A 
HETATM    4  C1    D T1302      12.832  11.930  15.663  1.00 18.07     0.041 A 
HETATM    5  O17   D T1302      11.083  10.931  14.325  1.00 19.82    -0.188 OA
HETATM    6  C2    D T1302      13.294  13.028  16.385  1.00 16.92     0.060 A 
HETATM    7  C3    D T1302      12.579  14.212  16.469  1.00 16.60     0.014 A 
HETATM    8 CL14   D T1302      14.830  12.897  17.208  1.00 19.02    -0.082 Cl
HETATM    9  C4    D T1302      11.386  14.286  15.725  1.00 17.69     0.028 A 
ENDBRANCH   1   2
BRANCH   1  10
HETATM   10  C8    D T1302       9.387  13.914  13.231  1.00 17.66     0.111 A 
HETATM   11  C9    D T1302       8.777  15.134  13.199  1.00 21.86     0.081 A 
HETATM   12  C10   D T1302       8.488  15.792  12.002  1.00 21.31     0.025 A 
HETATM   13 CL16   D T1302       8.253  15.876  14.687  1.00 25.77    -0.080 Cl
HETATM   14  C11   D T1302       8.861  15.171  10.799  1.00 22.96     0.059 A 
HETATM   15  C12   D T1302       9.470  13.947  10.770  1.00 22.42     0.013 A 
HETATM   16 CL15   D T1302       8.493  15.988   9.293  1.00 26.47    -0.082 Cl
HETATM   17  C13   D T1302       9.713  13.332  12.021  1.00 19.81     0.026 A 
ENDBRANCH   1  10
TORSDOF 2
ENDMDL
