MODEL 1
REMARK VINA RESULT:      -8.2      0.000      0.000
REMARK  2 active torsions:
REMARK  status: ('A' for Active; 'I' for Inactive)
REMARK    1  A    between atoms: C5_4  and  O7_13 
REMARK    2  A    between atoms: C8_10  and  O7_13 
ROOT
HETATM    1  O7    D T1302       9.581  12.888  11.877  1.00 18.77    -0.304 OA
ENDROOT
BRANCH   1   2
HETATM    2  C5    D T1302       9.886  12.831  13.217  1.00 19.44     0.125 A 
HETATM    3  C6    D T1302       9.777  11.615  13.856  1.00 18.58     0.154 A 
HETATM    4  C1    D T1302      10.042  11.484  15.228  1.00 18.07     0.041 A 
HETATM    5  O17   D T1302       9.450  10.475  13.112  1.00 19.82    -0.188 OA
HETATM    6  C2    D T1302      10.337  12.637  15.952  1.00 16.92     0.060 A 
HETATM    7  C3    D T1302      10.406  13.887  15.357  1.00 16.60     0.014 A 
HETATM    8 CL14   D T1302      10.628  12.491  17.669  1.00 19.02    -0.082 Cl
HETATM    9  C4    D T1302      10.237  13.935  13.960  1.00 17.69     0.028 A 
ENDBRANCH   1   2
BRANCH   1  10
HETATM   10  C8    D T1302       8.878  13.964  11.297  1.00 17.66     0.111 A 
HETATM   11  C9    D T1302       7.573  14.230  11.592  1.00 21.86     0.081 A 
HETATM   12  C10   D T1302       6.865  15.265  10.977  1.00 21.31     0.025 A 
HETATM   13 CL16   D T1302       6.715  13.204  12.710  1.00 25.77    -0.080 Cl
HETATM   14  C11   D T1302       7.540  16.060  10.036  1.00 22.96     0.059 A 
HETATM   15  C12   D T1302       8.845  15.835   9.696  1.00 22.42     0.013 A 
HETATM   16 CL15   D T1302       6.654  17.354   9.255  1.00 26.47    -0.082 Cl
HETATM   17  C13   D T1302       9.492  14.757  10.347  1.00 19.81     0.026 A 
ENDBRANCH   1  10
TORSDOF 2
ENDMDL
MODEL 2
REMARK VINA RESULT:      -7.8      1.193      5.859
REMARK  2 active torsions:
REMARK  status: ('A' for Active; 'I' for Inactive)
REMARK    1  A    between atoms: C5_4  and  O7_13 
REMARK    2  A    between atoms: C8_10  and  O7_13 
ROOT
HETATM    1  O7    D T1302       9.116  12.604  12.041  1.00 18.77    -0.304 OA
ENDROOT
BRANCH   1   2
HETATM    2  C5    D T1302       8.637  13.735  11.421  1.00 19.44     0.125 A 
HETATM    3  C6    D T1302       7.358  14.148  11.725  1.00 18.58     0.154 A 
HETATM    4  C1    D T1302       6.790  15.275  11.113  1.00 18.07     0.041 A 
HETATM    5  O17   D T1302       6.631  13.465  12.708  1.00 19.82    -0.188 OA
HETATM    6  C2    D T1302       7.522  15.921  10.119  1.00 16.92     0.060 A 
HETATM    7  C3    D T1302       8.790  15.506   9.746  1.00 16.60     0.014 A 
HETATM    8 CL14   D T1302       6.805  17.300   9.320  1.00 19.02    -0.082 Cl
HETATM    9  C4    D T1302       9.347  14.437  10.474  1.00 17.69     0.028 A 
ENDBRANCH   1   2
BRANCH   1  10
HETATM   10  C8    D T1302       9.715  12.626  13.317  1.00 17.66     0.111 A 
HETATM   11  C9    D T1302       9.272  11.849  14.347  1.00 21.86     0.081 A 
HETATM   12  C10   D T1302       9.833  11.912  15.624  1.00 21.31     0.025 A 
HETATM   13 CL16   D T1302       7.903  10.795  14.107  1.00 25.77    -0.080 Cl
HETATM   14  C11   D T1302      10.902  12.799  15.834  1.00 22.96     0.059 A 
HETATM   15  C12   D T1302      11.382  13.607  14.840  1.00 22.42     0.013 A 
HETATM   16 CL15   D T1302      11.604  12.889  17.436  1.00 26.47    -0.082 Cl
HETATM   17  C13   D T1302      10.751  13.501  13.578  1.00 19.81     0.026 A 
ENDBRANCH   1  10
TORSDOF 2
ENDMDL
MODEL 3
REMARK VINA RESULT:      -7.5      1.355      6.017
REMARK  2 active torsions:
REMARK  status: ('A' for Active; 'I' for Inactive)
REMARK    1  A    between atoms: C5_4  and  O7_13 
REMARK    2  A    between atoms: C8_10  and  O7_13 
ROOT
HETATM    1  O7    D T1302      10.388  13.167  12.048  1.00 18.77    -0.304 OA
ENDROOT
BRANCH   1   2
HETATM    2  C5    D T1302       9.519  14.032  11.424  1.00 19.44     0.125 A 
HETATM    3  C6    D T1302      10.050  15.110  10.748  1.00 18.58     0.154 A 
HETATM    4  C1    D T1302       9.227  16.051  10.113  1.00 18.07     0.041 A 
HETATM    5  O17   D T1302      11.441  15.238  10.644  1.00 19.82    -0.188 OA
HETATM    6  C2    D T1302       7.847  15.918  10.255  1.00 16.92     0.060 A 
HETATM    7  C3    D T1302       7.274  14.879  10.970  1.00 16.60     0.014 A 
HETATM    8 CL14   D T1302       6.814  17.110   9.503  1.00 19.02    -0.082 Cl
HETATM    9  C4    D T1302       8.150  13.908  11.490  1.00 17.69     0.028 A 
ENDBRANCH   1   2
BRANCH   1  10
HETATM   10  C8    D T1302      10.460  13.034  13.450  1.00 17.66     0.111 A 
HETATM   11  C9    D T1302      10.120  11.881  14.094  1.00 21.86     0.081 A 
HETATM   12  C10   D T1302      10.143  11.770  15.486  1.00 21.31     0.025 A 
HETATM   13 CL16   D T1302       9.553  10.513  13.173  1.00 25.77    -0.080 Cl
HETATM   14  C11   D T1302      10.549  12.888  16.232  1.00 22.96     0.059 A 
HETATM   15  C12   D T1302      10.894  14.072  15.640  1.00 22.42     0.013 A 
HETATM   16 CL15   D T1302      10.570  12.757  17.979  1.00 26.47    -0.082 Cl
HETATM   17  C13   D T1302      10.829  14.115  14.227  1.00 19.81     0.026 A 
ENDBRANCH   1  10
TORSDOF 2
ENDMDL
MODEL 4
REMARK VINA RESULT:      -7.4      4.048      6.434
REMARK  2 active torsions:
REMARK  status: ('A' for Active; 'I' for Inactive)
REMARK    1  A    between atoms: C5_4  and  O7_13 
REMARK    2  A    between atoms: C8_10  and  O7_13 
ROOT
HETATM    1  O7    D T1302      10.893  15.165  12.386  1.00 18.77    -0.304 OA
ENDROOT
BRANCH   1   2
HETATM    2  C5    D T1302       9.896  15.708  11.608  1.00 19.44     0.125 A 
HETATM    3  C6    D T1302       8.901  16.425  12.237  1.00 18.58     0.154 A 
HETATM    4  C1    D T1302       7.835  16.983  11.516  1.00 18.07     0.041 A 
HETATM    5  O17   D T1302       8.984  16.650  13.617  1.00 19.82    -0.188 OA
HETATM    6  C2    D T1302       7.759  16.720  10.150  1.00 16.92     0.060 A 
HETATM    7  C3    D T1302       8.711  15.961   9.488  1.00 16.60     0.014 A 
HETATM    8 CL14   D T1302       6.412  17.376   9.250  1.00 19.02    -0.082 Cl
HETATM    9  C4    D T1302       9.811  15.522  10.247  1.00 17.69     0.028 A 
ENDBRANCH   1   2
BRANCH   1  10
HETATM   10  C8    D T1302      12.246  15.148  11.991  1.00 17.66     0.111 A 
HETATM   11  C9    D T1302      12.906  13.994  11.685  1.00 21.86     0.081 A 
HETATM   12  C10   D T1302      14.260  13.975  11.346  1.00 21.31     0.025 A 
HETATM   13 CL16   D T1302      12.070  12.467  11.799  1.00 25.77    -0.080 Cl
HETATM   14  C11   D T1302      14.948  15.199  11.305  1.00 22.96     0.059 A 
HETATM   15  C12   D T1302      14.341  16.386  11.608  1.00 22.42     0.013 A 
HETATM   16 CL15   D T1302      16.650  15.181  10.888  1.00 26.47    -0.082 Cl
HETATM   17  C13   D T1302      12.972  16.324  11.962  1.00 19.81     0.026 A 
ENDBRANCH   1  10
TORSDOF 2
ENDMDL
MODEL 5
REMARK VINA RESULT:      -7.4      4.119      6.350
REMARK  2 active torsions:
REMARK  status: ('A' for Active; 'I' for Inactive)
REMARK    1  A    between atoms: C5_4  and  O7_13 
REMARK    2  A    between atoms: C8_10  and  O7_13 
ROOT
HETATM    1  O7    D T1302      11.625  14.386  12.163  1.00 18.77    -0.304 OA
ENDROOT
BRANCH   1   2
HETATM    2  C5    D T1302      10.562  15.064  11.613  1.00 19.44     0.125 A 
HETATM    3  C6    D T1302       9.642  14.345  10.880  1.00 18.58     0.154 A 
HETATM    4  C1    D T1302       8.549  14.970  10.264  1.00 18.07     0.041 A 
HETATM    5  O17   D T1302       9.770  12.952  10.796  1.00 19.82    -0.188 OA
HETATM    6  C2    D T1302       8.459  16.359  10.338  1.00 16.92     0.060 A 
HETATM    7  C3    D T1302       9.391  17.125  11.021  1.00 16.60     0.014 A 
HETATM    8 CL14   D T1302       7.123  17.151   9.538  1.00 19.02    -0.082 Cl
HETATM    9  C4    D T1302      10.402  16.428  11.708  1.00 17.69     0.028 A 
ENDBRANCH   1   2
BRANCH   1  10
HETATM   10  C8    D T1302      12.947  14.529  11.695  1.00 17.66     0.111 A 
HETATM   11  C9    D T1302      14.031  14.396  12.512  1.00 21.86     0.081 A 
HETATM   12  C10   D T1302      15.337  14.589  12.056  1.00 21.31     0.025 A 
HETATM   13 CL16   D T1302      13.798  14.058  14.207  1.00 25.77    -0.080 Cl
HETATM   14  C11   D T1302      15.524  14.914  10.702  1.00 22.96     0.059 A 
HETATM   15  C12   D T1302      14.474  15.066   9.840  1.00 22.42     0.013 A 
HETATM   16 CL15   D T1302      17.159  15.166  10.127  1.00 26.47    -0.082 Cl
HETATM   17  C13   D T1302      13.179  14.874  10.378  1.00 19.81     0.026 A 
ENDBRANCH   1  10
TORSDOF 2
ENDMDL
MODEL 6
REMARK VINA RESULT:      -7.3      3.893      4.355
REMARK  2 active torsions:
REMARK  status: ('A' for Active; 'I' for Inactive)
REMARK    1  A    between atoms: C5_4  and  O7_13 
REMARK    2  A    between atoms: C8_10  and  O7_13 
ROOT
HETATM    1  O7    D T1302      10.965  14.978  12.302  1.00 18.77    -0.304 OA
ENDROOT
BRANCH   1   2
HETATM    2  C5    D T1302      12.280  15.104  11.918  1.00 19.44     0.125 A 
HETATM    3  C6    D T1302      12.973  13.957  11.594  1.00 18.58     0.154 A 
HETATM    4  C1    D T1302      14.325  14.001  11.223  1.00 18.07     0.041 A 
HETATM    5  O17   D T1302      12.300  12.729  11.579  1.00 19.82    -0.188 OA
HETATM    6  C2    D T1302      14.980  15.230  11.273  1.00 16.92     0.060 A 
HETATM    7  C3    D T1302      14.333  16.399  11.643  1.00 16.60     0.014 A 
HETATM    8 CL14   D T1302      16.675  15.288  10.852  1.00 19.02    -0.082 Cl
HETATM    9  C4    D T1302      12.952  16.305  11.899  1.00 17.69     0.028 A 
ENDBRANCH   1   2
BRANCH   1  10
HETATM   10  C8    D T1302       9.903  15.585  11.601  1.00 17.66     0.111 A 
HETATM   11  C9    D T1302       8.926  16.302  12.227  1.00 21.86     0.081 A 
HETATM   12  C10   D T1302       7.848  16.857  11.536  1.00 21.31     0.025 A 
HETATM   13 CL16   D T1302       8.959  16.471  13.963  1.00 25.77    -0.080 Cl
HETATM   14  C11   D T1302       7.791  16.676  10.144  1.00 22.96     0.059 A 
HETATM   15  C12   D T1302       8.738  15.962   9.464  1.00 22.42     0.013 A 
HETATM   16 CL15   D T1302       6.435  17.363   9.272  1.00 26.47    -0.082 Cl
HETATM   17  C13   D T1302       9.791  15.413  10.234  1.00 19.81     0.026 A 
ENDBRANCH   1  10
TORSDOF 2
ENDMDL
MODEL 7
REMARK VINA RESULT:      -7.3      1.441      1.883
REMARK  2 active torsions:
REMARK  status: ('A' for Active; 'I' for Inactive)
REMARK    1  A    between atoms: C5_4  and  O7_13 
REMARK    2  A    between atoms: C8_10  and  O7_13 
ROOT
HETATM    1  O7    D T1302       8.939  12.793  12.897  1.00 18.77    -0.304 OA
ENDROOT
BRANCH   1   2
HETATM    2  C5    D T1302       9.466  13.091  14.132  1.00 19.44     0.125 A 
HETATM    3  C6    D T1302       9.904  12.048  14.920  1.00 18.58     0.154 A 
HETATM    4  C1    D T1302      10.426  12.271  16.203  1.00 18.07     0.041 A 
HETATM    5  O17   D T1302       9.880  10.744  14.408  1.00 19.82    -0.188 OA
HETATM    6  C2    D T1302      10.412  13.572  16.700  1.00 16.92     0.060 A 
HETATM    7  C3    D T1302       9.934  14.642  15.960  1.00 16.60     0.014 A 
HETATM    8 CL14   D T1302      11.022  13.853  18.313  1.00 19.02    -0.082 Cl
HETATM    9  C4    D T1302       9.525  14.368  14.641  1.00 17.69     0.028 A 
ENDBRANCH   1   2
BRANCH   1  10
HETATM   10  C8    D T1302       8.480  13.781  12.002  1.00 17.66     0.111 A 
HETATM   11  C9    D T1302       9.295  14.370  11.080  1.00 21.86     0.081 A 
HETATM   12  C10   D T1302       8.850  15.385  10.231  1.00 21.31     0.025 A 
HETATM   13 CL16   D T1302      10.976  13.914  10.998  1.00 25.77    -0.080 Cl
HETATM   14  C11   D T1302       7.509  15.791  10.332  1.00 22.96     0.059 A 
HETATM   15  C12   D T1302       6.649  15.242  11.242  1.00 22.42     0.013 A 
HETATM   16 CL15   D T1302       6.947  17.071   9.276  1.00 26.47    -0.082 Cl
HETATM   17  C13   D T1302       7.176  14.231  12.081  1.00 19.81     0.026 A 
ENDBRANCH   1  10
TORSDOF 2
ENDMDL
MODEL 8
REMARK VINA RESULT:      -7.2      2.039      6.123
REMARK  2 active torsions:
REMARK  status: ('A' for Active; 'I' for Inactive)
REMARK    1  A    between atoms: C5_4  and  O7_13 
REMARK    2  A    between atoms: C8_10  and  O7_13 
ROOT
HETATM    1  O7    D T1302       9.650  13.376  12.154  1.00 18.77    -0.304 OA
ENDROOT
BRANCH   1   2
HETATM    2  C5    D T1302       8.975  14.348  11.453  1.00 19.44     0.125 A 
HETATM    3  C6    D T1302       7.622  14.489  11.676  1.00 18.58     0.154 A 
HETATM    4  C1    D T1302       6.861  15.438  10.978  1.00 18.07     0.041 A 
HETATM    5  O17   D T1302       7.004  13.707  12.661  1.00 19.82    -0.188 OA
HETATM    6  C2    D T1302       7.492  16.183   9.984  1.00 16.92     0.060 A 
HETATM    7  C3    D T1302       8.839  16.036   9.693  1.00 16.60     0.014 A 
HETATM    8 CL14   D T1302       6.543  17.338   9.080  1.00 19.02    -0.082 Cl
HETATM    9  C4    D T1302       9.570  15.146  10.502  1.00 17.69     0.028 A 
ENDBRANCH   1   2
BRANCH   1  10
HETATM   10  C8    D T1302      10.524  13.669  13.220  1.00 17.66     0.111 A 
HETATM   11  C9    D T1302      11.868  13.445  13.148  1.00 21.86     0.081 A 
HETATM   12  C10   D T1302      12.723  13.688  14.225  1.00 21.31     0.025 A 
HETATM   13 CL16   D T1302      12.551  12.753  11.701  1.00 25.77    -0.080 Cl
HETATM   14  C11   D T1302      12.167  14.196  15.410  1.00 22.96     0.059 A 
HETATM   15  C12   D T1302      10.827  14.433  15.542  1.00 22.42     0.013 A 
HETATM   16 CL15   D T1302      13.235  14.493  16.767  1.00 26.47    -0.082 Cl
HETATM   17  C13   D T1302      10.020  14.145  14.415  1.00 19.81     0.026 A 
ENDBRANCH   1  10
TORSDOF 2
ENDMDL
MODEL 9
REMARK VINA RESULT:      -7.2      2.296      2.780
REMARK  2 active torsions:
REMARK  status: ('A' for Active; 'I' for Inactive)
REMARK    1  A    between atoms: C5_4  and  O7_13 
REMARK    2  A    between atoms: C8_10  and  O7_13 
ROOT
HETATM    1  O7    D T1302       8.589  14.389  14.312  1.00 18.77    -0.304 OA
ENDROOT
BRANCH   1   2
HETATM    2  C5    D T1302       9.921  14.119  14.522  1.00 19.44     0.125 A 
HETATM    3  C6    D T1302      10.478  14.495  15.725  1.00 18.58     0.154 A 
HETATM    4  C1    D T1302      11.836  14.280  16.001  1.00 18.07     0.041 A 
HETATM    5  O17   D T1302       9.659  15.053  16.716  1.00 19.82    -0.188 OA
HETATM    6  C2    D T1302      12.635  13.751  14.990  1.00 16.92     0.060 A 
HETATM    7  C3    D T1302      12.125  13.406  13.748  1.00 16.60     0.014 A 
HETATM    8 CL14   D T1302      14.337  13.518  15.309  1.00 19.02    -0.082 Cl
HETATM    9  C4    D T1302      10.736  13.546  13.573  1.00 17.69     0.028 A 
ENDBRANCH   1   2
BRANCH   1  10
HETATM   10  C8    D T1302       8.121  15.099  13.188  1.00 17.66     0.111 A 
HETATM   11  C9    D T1302       7.436  14.496  12.173  1.00 21.86     0.081 A 
HETATM   12  C10   D T1302       7.020  15.193  11.037  1.00 21.31     0.025 A 
HETATM   13 CL16   D T1302       7.135  12.780  12.237  1.00 25.77    -0.080 Cl
HETATM   14  C11   D T1302       7.309  16.566  10.960  1.00 22.96     0.059 A 
HETATM   15  C12   D T1302       7.997  17.221  11.943  1.00 22.42     0.013 A 
HETATM   16 CL15   D T1302       6.797  17.442   9.532  1.00 26.47    -0.082 Cl
HETATM   17  C13   D T1302       8.403  16.445  13.055  1.00 19.81     0.026 A 
ENDBRANCH   1  10
TORSDOF 2
ENDMDL
