MODEL 1
REMARK VINA RESULT:    -7.779      0.000      0.000
REMARK INTER + INTRA:          -9.137
REMARK INTER:                  -8.689
REMARK INTRA:                  -0.448
REMARK UNBOUND:                -0.448
REMARK  2 active torsions:
REMARK  status: ('A' for Active; 'I' for Inactive)
REMARK    1  A    between atoms: C5_4  and  O7_13 
REMARK    2  A    between atoms: C8_10  and  O7_13 
ROOT
HETATM    1  O7    D T1302       6.029   0.768  -7.376  1.00 18.77    -0.304 OA
ENDROOT
BRANCH   1   2
HETATM    2  C5    D T1302       5.354   1.627  -6.540  1.00 19.44     0.125 A 
HETATM    3  C6    D T1302       4.283   1.133  -5.829  1.00 18.58     0.154 A 
HETATM    4  C1    D T1302       3.527   1.955  -4.980  1.00 18.07     0.041 A 
HETATM    5  O17   D T1302       3.975  -0.231  -5.910  1.00 19.82    -0.188 OA
HETATM    6  C2    D T1302       3.835   3.313  -4.937  1.00 16.92     0.060 A 
HETATM    7  C3    D T1302       4.872   3.860  -5.677  1.00 16.60     0.014 A 
HETATM    8 CL14   D T1302       2.874   4.353  -3.914  1.00 19.02    -0.082 Cl
HETATM    9  C4    D T1302       5.659   2.964  -6.425  1.00 17.69     0.028 A 
ENDBRANCH   1   2
BRANCH   1  10
HETATM   10  C8    D T1302       6.433   1.128  -8.678  1.00 17.66     0.111 A 
HETATM   11  C9    D T1302       5.565   1.167  -9.730  1.00 21.86     0.081 A 
HETATM   12  C10   D T1302       5.979   1.473 -11.028  1.00 21.31     0.025 A 
HETATM   13 CL16   D T1302       3.893   0.741  -9.484  1.00 25.77    -0.080 Cl
HETATM   14  C11   D T1302       7.338   1.766 -11.237  1.00 22.96     0.059 A 
HETATM   15  C12   D T1302       8.253   1.735 -10.221  1.00 22.42     0.013 A 
HETATM   16 CL15   D T1302       7.864   2.142 -12.865  1.00 26.47    -0.082 Cl
HETATM   17  C13   D T1302       7.763   1.399  -8.938  1.00 19.81     0.026 A 
ENDBRANCH   1  10
TORSDOF 2
ENDMDL
MODEL 2
REMARK VINA RESULT:    -7.659      1.462      6.051
REMARK INTER + INTRA:          -9.003
REMARK INTER:                  -8.471
REMARK INTRA:                  -0.532
REMARK UNBOUND:                -0.448
REMARK  2 active torsions:
REMARK  status: ('A' for Active; 'I' for Inactive)
REMARK    1  A    between atoms: C5_4  and  O7_13 
REMARK    2  A    between atoms: C8_10  and  O7_13 
ROOT
HETATM    1  O7    D T1302       6.980   1.222  -6.613  1.00 18.77    -0.304 OA
ENDROOT
BRANCH   1   2
HETATM    2  C5    D T1302       7.196   1.337  -7.967  1.00 19.44     0.125 A 
HETATM    3  C6    D T1302       8.320   2.010  -8.390  1.00 18.58     0.154 A 
HETATM    4  C1    D T1302       8.593   2.193  -9.754  1.00 18.07     0.041 A 
HETATM    5  O17   D T1302       9.242   2.471  -7.442  1.00 19.82    -0.188 OA
HETATM    6  C2    D T1302       7.648   1.750 -10.677  1.00 16.92     0.060 A 
HETATM    7  C3    D T1302       6.479   1.114 -10.291  1.00 16.60     0.014 A 
HETATM    8 CL14   D T1302       7.959   2.010 -12.377  1.00 19.02    -0.082 Cl
HETATM    9  C4    D T1302       6.317   0.864  -8.915  1.00 17.69     0.028 A 
ENDBRANCH   1   2
BRANCH   1  10
HETATM   10  C8    D T1302       5.965   1.931  -5.938  1.00 17.66     0.111 A 
HETATM   11  C9    D T1302       4.794   1.346  -5.555  1.00 21.86     0.081 A 
HETATM   12  C10   D T1302       3.769   2.064  -4.934  1.00 21.31     0.025 A 
HETATM   13 CL16   D T1302       4.509  -0.335  -5.920  1.00 25.77    -0.080 Cl
HETATM   14  C11   D T1302       3.976   3.431  -4.686  1.00 22.96     0.059 A 
HETATM   15  C12   D T1302       5.127   4.071  -5.054  1.00 22.42     0.013 A 
HETATM   16 CL15   D T1302       2.691   4.338  -3.915  1.00 26.47    -0.082 Cl
HETATM   17  C13   D T1302       6.111   3.283  -5.695  1.00 19.81     0.026 A 
ENDBRANCH   1  10
TORSDOF 2
ENDMDL
MODEL 3
REMARK VINA RESULT:    -7.629      1.619      2.043
REMARK INTER + INTRA:          -8.969
REMARK INTER:                  -8.439
REMARK INTRA:                  -0.530
REMARK UNBOUND:                -0.448
REMARK  2 active torsions:
REMARK  status: ('A' for Active; 'I' for Inactive)
REMARK    1  A    between atoms: C5_4  and  O7_13 
REMARK    2  A    between atoms: C8_10  and  O7_13 
ROOT
HETATM    1  O7    D T1302       6.886   1.060  -6.577  1.00 18.77    -0.304 OA
ENDROOT
BRANCH   1   2
HETATM    2  C5    D T1302       5.953   1.820  -5.910  1.00 19.44     0.125 A 
HETATM    3  C6    D T1302       4.839   1.186  -5.406  1.00 18.58     0.154 A 
HETATM    4  C1    D T1302       3.830   1.899  -4.740  1.00 18.07     0.041 A 
HETATM    5  O17   D T1302       4.736  -0.207  -5.509  1.00 19.82    -0.188 OA
HETATM    6  C2    D T1302       3.941   3.286  -4.675  1.00 16.92     0.060 A 
HETATM    7  C3    D T1302       5.021   3.968  -5.215  1.00 16.60     0.014 A 
HETATM    8 CL14   D T1302       2.670   4.187  -3.884  1.00 19.02    -0.082 Cl
HETATM    9  C4    D T1302       6.050   3.186  -5.773  1.00 17.69     0.028 A 
ENDBRANCH   1   2
BRANCH   1  10
HETATM   10  C8    D T1302       7.198   1.254  -7.938  1.00 17.66     0.111 A 
HETATM   11  C9    D T1302       8.323   1.911  -8.345  1.00 21.86     0.081 A 
HETATM   12  C10   D T1302       8.603   2.148  -9.692  1.00 21.31     0.025 A 
HETATM   13 CL16   D T1302       9.419   2.561  -7.155  1.00 25.77    -0.080 Cl
HETATM   14  C11   D T1302       7.692   1.671 -10.650  1.00 22.96     0.059 A 
HETATM   15  C12   D T1302       6.546   1.012 -10.300  1.00 22.42     0.013 A 
HETATM   16 CL15   D T1302       8.034   1.972 -12.342  1.00 26.47    -0.082 Cl
HETATM   17  C13   D T1302       6.321   0.826  -8.916  1.00 19.81     0.026 A 
ENDBRANCH   1  10
TORSDOF 2
ENDMDL
MODEL 4
REMARK VINA RESULT:    -7.466      2.382      2.925
REMARK INTER + INTRA:          -8.786
REMARK INTER:                  -8.307
REMARK INTRA:                  -0.479
REMARK UNBOUND:                -0.448
REMARK  2 active torsions:
REMARK  status: ('A' for Active; 'I' for Inactive)
REMARK    1  A    between atoms: C5_4  and  O7_13 
REMARK    2  A    between atoms: C8_10  and  O7_13 
ROOT
HETATM    1  O7    D T1302       6.507   3.366  -6.969  1.00 18.77    -0.304 OA
ENDROOT
BRANCH   1   2
HETATM    2  C5    D T1302       5.803   2.553  -6.112  1.00 19.44     0.125 A 
HETATM    3  C6    D T1302       4.716   3.089  -5.456  1.00 18.58     0.154 A 
HETATM    4  C1    D T1302       3.966   2.331  -4.544  1.00 18.07     0.041 A 
HETATM    5  O17   D T1302       4.315   4.399  -5.747  1.00 19.82    -0.188 OA
HETATM    6  C2    D T1302       4.401   1.041  -4.250  1.00 16.92     0.060 A 
HETATM    7  C3    D T1302       5.520   0.483  -4.849  1.00 16.60     0.014 A 
HETATM    8 CL14   D T1302       3.498   0.103  -3.084  1.00 19.02    -0.082 Cl
HETATM    9  C4    D T1302       6.164   1.255  -5.834  1.00 17.69     0.028 A 
ENDBRANCH   1   2
BRANCH   1  10
HETATM   10  C8    D T1302       6.809   2.998  -8.297  1.00 17.66     0.111 A 
HETATM   11  C9    D T1302       8.036   2.532  -8.667  1.00 21.86     0.081 A 
HETATM   12  C10   D T1302       8.347   2.219  -9.992  1.00 21.31     0.025 A 
HETATM   13 CL16   D T1302       9.302   2.397  -7.476  1.00 25.77    -0.080 Cl
HETATM   14  C11   D T1302       7.343   2.378 -10.962  1.00 22.96     0.059 A 
HETATM   15  C12   D T1302       6.097   2.847 -10.649  1.00 22.42     0.013 A 
HETATM   16 CL15   D T1302       7.730   1.994 -12.626  1.00 26.47    -0.082 Cl
HETATM   17  C13   D T1302       5.862   3.161  -9.290  1.00 19.81     0.026 A 
ENDBRANCH   1  10
TORSDOF 2
ENDMDL
MODEL 5
REMARK VINA RESULT:    -7.381      2.119      6.163
REMARK INTER + INTRA:          -8.692
REMARK INTER:                  -8.203
REMARK INTRA:                  -0.488
REMARK UNBOUND:                -0.448
REMARK  2 active torsions:
REMARK  status: ('A' for Active; 'I' for Inactive)
REMARK    1  A    between atoms: C5_4  and  O7_13 
REMARK    2  A    between atoms: C8_10  and  O7_13 
ROOT
HETATM    1  O7    D T1302       6.659   3.221  -7.040  1.00 18.77    -0.304 OA
ENDROOT
BRANCH   1   2
HETATM    2  C5    D T1302       6.862   2.876  -8.356  1.00 19.44     0.125 A 
HETATM    3  C6    D T1302       8.132   2.511  -8.742  1.00 18.58     0.154 A 
HETATM    4  C1    D T1302       8.424   2.175 -10.073  1.00 18.07     0.041 A 
HETATM    5  O17   D T1302       9.143   2.416  -7.778  1.00 19.82    -0.188 OA
HETATM    6  C2    D T1302       7.409   2.304 -11.019  1.00 16.92     0.060 A 
HETATM    7  C3    D T1302       6.131   2.719 -10.681  1.00 16.60     0.014 A 
HETATM    8 CL14   D T1302       7.772   1.927 -12.687  1.00 19.02    -0.082 Cl
HETATM    9  C4    D T1302       5.875   2.935  -9.314  1.00 17.69     0.028 A 
ENDBRANCH   1   2
BRANCH   1  10
HETATM   10  C8    D T1302       5.895   2.434  -6.153  1.00 17.66     0.111 A 
HETATM   11  C9    D T1302       4.788   2.915  -5.516  1.00 21.86     0.081 A 
HETATM   12  C10   D T1302       4.065   2.150  -4.599  1.00 21.31     0.025 A 
HETATM   13 CL16   D T1302       4.292   4.565  -5.776  1.00 25.77    -0.080 Cl
HETATM   14  C11   D T1302       4.495   0.836  -4.348  1.00 22.96     0.059 A 
HETATM   15  C12   D T1302       5.601   0.305  -4.953  1.00 22.42     0.013 A 
HETATM   16 CL15   D T1302       3.596  -0.124  -3.192  1.00 26.47    -0.082 Cl
HETATM   17  C13   D T1302       6.293   1.146  -5.855  1.00 19.81     0.026 A 
ENDBRANCH   1  10
TORSDOF 2
ENDMDL
MODEL 6
REMARK VINA RESULT:    -7.248      2.149      6.212
REMARK INTER + INTRA:          -8.543
REMARK INTER:                  -8.033
REMARK INTRA:                  -0.509
REMARK UNBOUND:                -0.448
REMARK  2 active torsions:
REMARK  status: ('A' for Active; 'I' for Inactive)
REMARK    1  A    between atoms: C5_4  and  O7_13 
REMARK    2  A    between atoms: C8_10  and  O7_13 
ROOT
HETATM    1  O7    D T1302       4.397   2.182  -7.285  1.00 18.77    -0.304 OA
ENDROOT
BRANCH   1   2
HETATM    2  C5    D T1302       5.345   1.981  -8.261  1.00 19.44     0.125 A 
HETATM    3  C6    D T1302       5.522   2.966  -9.207  1.00 18.58     0.154 A 
HETATM    4  C1    D T1302       6.449   2.821 -10.251  1.00 18.07     0.041 A 
HETATM    5  O17   D T1302       4.803   4.163  -9.095  1.00 19.82    -0.188 OA
HETATM    6  C2    D T1302       7.131   1.611 -10.358  1.00 16.92     0.060 A 
HETATM    7  C3    D T1302       6.944   0.574  -9.456  1.00 16.60     0.014 A 
HETATM    8 CL14   D T1302       8.258   1.404 -11.677  1.00 19.02    -0.082 Cl
HETATM    9  C4    D T1302       6.083   0.824  -8.372  1.00 17.69     0.028 A 
ENDBRANCH   1   2
BRANCH   1  10
HETATM   10  C8    D T1302       4.728   2.463  -5.943  1.00 17.66     0.111 A 
HETATM   11  C9    D T1302       4.707   1.509  -4.969  1.00 21.86     0.081 A 
HETATM   12  C10   D T1302       4.984   1.802  -3.632  1.00 21.31     0.025 A 
HETATM   13 CL16   D T1302       4.235  -0.121  -5.368  1.00 25.77    -0.080 Cl
HETATM   14  C11   D T1302       5.312   3.127  -3.300  1.00 22.96     0.059 A 
HETATM   15  C12   D T1302       5.343   4.125  -4.234  1.00 22.42     0.013 A 
HETATM   16 CL15   D T1302       5.654   3.501  -1.623  1.00 26.47    -0.082 Cl
HETATM   17  C13   D T1302       5.032   3.756  -5.564  1.00 19.81     0.026 A 
ENDBRANCH   1  10
TORSDOF 2
ENDMDL
MODEL 7
REMARK VINA RESULT:    -6.922      9.409     11.997
REMARK INTER + INTRA:          -8.179
REMARK INTER:                  -7.776
REMARK INTRA:                  -0.402
REMARK UNBOUND:                -0.448
REMARK  2 active torsions:
REMARK  status: ('A' for Active; 'I' for Inactive)
REMARK    1  A    between atoms: C5_4  and  O7_13 
REMARK    2  A    between atoms: C8_10  and  O7_13 
ROOT
HETATM    1  O7    D T1302       8.472   6.789   2.225  1.00 18.77    -0.304 OA
ENDROOT
BRANCH   1   2
HETATM    2  C5    D T1302       7.810   7.188   1.087  1.00 19.44     0.125 A 
HETATM    3  C6    D T1302       7.421   8.506   0.992  1.00 18.58     0.154 A 
HETATM    4  C1    D T1302       6.715   8.981  -0.125  1.00 18.07     0.041 A 
HETATM    5  O17   D T1302       7.785   9.405   2.002  1.00 19.82    -0.188 OA
HETATM    6  C2    D T1302       6.340   8.062  -1.103  1.00 16.92     0.060 A 
HETATM    7  C3    D T1302       6.667   6.718  -1.019  1.00 16.60     0.014 A 
HETATM    8 CL14   D T1302       5.425   8.636  -2.477  1.00 19.02    -0.082 Cl
HETATM    9  C4    D T1302       7.468   6.326   0.070  1.00 17.69     0.028 A 
ENDBRANCH   1   2
BRANCH   1  10
HETATM   10  C8    D T1302       8.223   5.555   2.861  1.00 17.66     0.111 A 
HETATM   11  C9    D T1302       9.173   4.582   2.970  1.00 21.86     0.081 A 
HETATM   12  C10   D T1302       8.907   3.342   3.554  1.00 21.31     0.025 A 
HETATM   13 CL16   D T1302      10.756   4.842   2.287  1.00 25.77    -0.080 Cl
HETATM   14  C11   D T1302       7.615   3.112   4.058  1.00 22.96     0.059 A 
HETATM   15  C12   D T1302       6.623   4.048   3.970  1.00 22.42     0.013 A 
HETATM   16 CL15   D T1302       7.275   1.554   4.784  1.00 26.47    -0.082 Cl
HETATM   17  C13   D T1302       6.961   5.272   3.349  1.00 19.81     0.026 A 
ENDBRANCH   1  10
TORSDOF 2
ENDMDL
MODEL 8
REMARK VINA RESULT:    -6.828      1.977      2.336
REMARK INTER + INTRA:          -8.075
REMARK INTER:                  -7.841
REMARK INTRA:                  -0.234
REMARK UNBOUND:                -0.448
REMARK  2 active torsions:
REMARK  status: ('A' for Active; 'I' for Inactive)
REMARK    1  A    between atoms: C5_4  and  O7_13 
REMARK    2  A    between atoms: C8_10  and  O7_13 
ROOT
HETATM    1  O7    D T1302       4.255   1.985  -6.460  1.00 18.77    -0.304 OA
ENDROOT
BRANCH   1   2
HETATM    2  C5    D T1302       4.553   2.760  -5.364  1.00 19.44     0.125 A 
HETATM    3  C6    D T1302       4.923   2.123  -4.200  1.00 18.58     0.154 A 
HETATM    4  C1    D T1302       5.213   2.845  -3.032  1.00 18.07     0.041 A 
HETATM    5  O17   D T1302       5.071   0.730  -4.196  1.00 19.82    -0.188 OA
HETATM    6  C2    D T1302       5.032   4.226  -3.052  1.00 16.92     0.060 A 
HETATM    7  C3    D T1302       4.610   4.900  -4.188  1.00 16.60     0.014 A 
HETATM    8 CL14   D T1302       5.350   5.129  -1.591  1.00 19.02    -0.082 Cl
HETATM    9  C4    D T1302       4.442   4.132  -5.356  1.00 17.69     0.028 A 
ENDBRANCH   1   2
BRANCH   1  10
HETATM   10  C8    D T1302       5.154   1.797  -7.531  1.00 17.66     0.111 A 
HETATM   11  C9    D T1302       5.591   0.563  -7.913  1.00 21.86     0.081 A 
HETATM   12  C10   D T1302       6.522   0.385  -8.939  1.00 21.31     0.025 A 
HETATM   13 CL16   D T1302       5.047  -0.850  -7.049  1.00 25.77    -0.080 Cl
HETATM   14  C11   D T1302       7.001   1.528  -9.601  1.00 22.96     0.059 A 
HETATM   15  C12   D T1302       6.603   2.789  -9.256  1.00 22.42     0.013 A 
HETATM   16 CL15   D T1302       8.175   1.310 -10.884  1.00 26.47    -0.082 Cl
HETATM   17  C13   D T1302       5.674   2.891  -8.196  1.00 19.81     0.026 A 
ENDBRANCH   1  10
TORSDOF 2
ENDMDL
MODEL 9
REMARK VINA RESULT:    -6.587      7.504     10.753
REMARK INTER + INTRA:          -7.804
REMARK INTER:                  -7.477
REMARK INTRA:                  -0.328
REMARK UNBOUND:                -0.448
REMARK  2 active torsions:
REMARK  status: ('A' for Active; 'I' for Inactive)
REMARK    1  A    between atoms: C5_4  and  O7_13 
REMARK    2  A    between atoms: C8_10  and  O7_13 
ROOT
HETATM    1  O7    D T1302       5.752   6.794   0.928  1.00 18.77    -0.304 OA
ENDROOT
BRANCH   1   2
HETATM    2  C5    D T1302       5.424   6.408  -0.351  1.00 19.44     0.125 A 
HETATM    3  C6    D T1302       4.925   7.364  -1.208  1.00 18.58     0.154 A 
HETATM    4  C1    D T1302       4.540   7.040  -2.519  1.00 18.07     0.041 A 
HETATM    5  O17   D T1302       4.855   8.697  -0.786  1.00 19.82    -0.188 OA
HETATM    6  C2    D T1302       4.593   5.703  -2.907  1.00 16.92     0.060 A 
HETATM    7  C3    D T1302       5.039   4.704  -2.057  1.00 16.60     0.014 A 
HETATM    8 CL14   D T1302       4.077   5.284  -4.523  1.00 19.02    -0.082 Cl
HETATM    9  C4    D T1302       5.513   5.108  -0.795  1.00 17.69     0.028 A 
ENDBRANCH   1   2
BRANCH   1  10
HETATM   10  C8    D T1302       6.572   6.018   1.774  1.00 17.66     0.111 A 
HETATM   11  C9    D T1302       7.934   6.041   1.696  1.00 21.86     0.081 A 
HETATM   12  C10   D T1302       8.741   5.232   2.498  1.00 21.31     0.025 A 
HETATM   13 CL16   D T1302       8.712   7.044   0.501  1.00 25.77    -0.080 Cl
HETATM   14  C11   D T1302       8.113   4.384   3.426  1.00 22.96     0.059 A 
HETATM   15  C12   D T1302       6.752   4.315   3.543  1.00 22.42     0.013 A 
HETATM   16 CL15   D T1302       9.120   3.362   4.430  1.00 26.47    -0.082 Cl
HETATM   17  C13   D T1302       6.000   5.150   2.684  1.00 19.81     0.026 A 
ENDBRANCH   1  10
TORSDOF 2
ENDMDL
