MODEL 1
REMARK VINA RESULT:    -7.873      0.000      0.000
REMARK INTER + INTRA:          -9.220
REMARK INTER:                  -8.793
REMARK INTRA:                  -0.427
REMARK UNBOUND:                -0.427
REMARK  2 active torsions:
REMARK  status: ('A' for Active; 'I' for Inactive)
REMARK    1  A    between atoms: C5_4  and  O7_13 
REMARK    2  A    between atoms: C8_10  and  O7_13 
ROOT
HETATM    1  O7    D T1302       5.769   0.160  -7.704  1.00 18.77    -0.304 OA
ENDROOT
BRANCH   1   2
HETATM    2  C5    D T1302       5.071   1.024  -6.892  1.00 19.44     0.125 A 
HETATM    3  C6    D T1302       4.054   0.509  -6.118  1.00 18.58     0.154 A 
HETATM    4  C1    D T1302       3.279   1.332  -5.288  1.00 18.07     0.041 A 
HETATM    5  O17   D T1302       3.825  -0.873  -6.117  1.00 19.82    -0.188 OA
HETATM    6  C2    D T1302       3.506   2.706  -5.329  1.00 16.92     0.060 A 
HETATM    7  C3    D T1302       4.485   3.270  -6.132  1.00 16.60     0.014 A 
HETATM    8 CL14   D T1302       2.518   3.743  -4.329  1.00 19.02    -0.082 Cl
HETATM    9  C4    D T1302       5.299   2.381  -6.858  1.00 17.69     0.028 A 
ENDBRANCH   1   2
BRANCH   1  10
HETATM   10  C8    D T1302       6.151   0.489  -9.020  1.00 17.66     0.111 A 
HETATM   11  C9    D T1302       5.262   0.523 -10.054  1.00 21.86     0.081 A 
HETATM   12  C10   D T1302       5.654   0.799 -11.366  1.00 21.31     0.025 A 
HETATM   13 CL16   D T1302       3.588   0.129  -9.767  1.00 25.77    -0.080 Cl
HETATM   14  C11   D T1302       7.012   1.064 -11.610  1.00 22.96     0.059 A 
HETATM   15  C12   D T1302       7.948   1.037 -10.613  1.00 22.42     0.013 A 
HETATM   16 CL15   D T1302       7.510   1.402 -13.255  1.00 26.47    -0.082 Cl
HETATM   17  C13   D T1302       7.480   0.733  -9.313  1.00 19.81     0.026 A 
ENDBRANCH   1  10
TORSDOF 2
ENDMDL
MODEL 2
REMARK VINA RESULT:    -7.536      1.171      5.858
REMARK INTER + INTRA:          -8.844
REMARK INTER:                  -8.549
REMARK INTRA:                  -0.295
REMARK UNBOUND:                -0.427
REMARK  2 active torsions:
REMARK  status: ('A' for Active; 'I' for Inactive)
REMARK    1  A    between atoms: C5_4  and  O7_13 
REMARK    2  A    between atoms: C8_10  and  O7_13 
ROOT
HETATM    1  O7    D T1302       6.000   0.238  -7.594  1.00 18.77    -0.304 OA
ENDROOT
BRANCH   1   2
HETATM    2  C5    D T1302       6.366   0.575  -8.877  1.00 19.44     0.125 A 
HETATM    3  C6    D T1302       5.449   0.380  -9.886  1.00 18.58     0.154 A 
HETATM    4  C1    D T1302       5.760   0.671 -11.222  1.00 18.07     0.041 A 
HETATM    5  O17   D T1302       4.160  -0.066  -9.565  1.00 19.82    -0.188 OA
HETATM    6  C2    D T1302       7.056   1.085 -11.520  1.00 16.92     0.060 A 
HETATM    7  C3    D T1302       8.024   1.245 -10.541  1.00 16.60     0.014 A 
HETATM    8 CL14   D T1302       7.464   1.411 -13.187  1.00 19.02    -0.082 Cl
HETATM    9  C4    D T1302       7.618   1.041  -9.208  1.00 17.69     0.028 A 
ENDBRANCH   1   2
BRANCH   1  10
HETATM   10  C8    D T1302       5.201   1.070  -6.783  1.00 17.66     0.111 A 
HETATM   11  C9    D T1302       4.139   0.597  -6.071  1.00 21.86     0.081 A 
HETATM   12  C10   D T1302       3.318   1.432  -5.311  1.00 21.31     0.025 A 
HETATM   13 CL16   D T1302       3.720  -1.094  -6.166  1.00 25.77    -0.080 Cl
HETATM   14  C11   D T1302       3.621   2.803  -5.275  1.00 22.96     0.059 A 
HETATM   15  C12   D T1302       4.669   3.335  -5.975  1.00 22.42     0.013 A 
HETATM   16 CL15   D T1302       2.589   3.858  -4.330  1.00 26.47    -0.082 Cl
HETATM   17  C13   D T1302       5.445   2.430  -6.737  1.00 19.81     0.026 A 
ENDBRANCH   1  10
TORSDOF 2
ENDMDL
MODEL 3
REMARK VINA RESULT:    -7.387      2.460      3.015
REMARK INTER + INTRA:          -8.677
REMARK INTER:                  -8.241
REMARK INTRA:                  -0.436
REMARK UNBOUND:                -0.427
REMARK  2 active torsions:
REMARK  status: ('A' for Active; 'I' for Inactive)
REMARK    1  A    between atoms: C5_4  and  O7_13 
REMARK    2  A    between atoms: C8_10  and  O7_13 
ROOT
HETATM    1  O7    D T1302       5.072   3.223  -7.546  1.00 18.77    -0.304 OA
ENDROOT
BRANCH   1   2
HETATM    2  C5    D T1302       4.585   2.455  -6.514  1.00 19.44     0.125 A 
HETATM    3  C6    D T1302       4.811   2.883  -5.224  1.00 18.58     0.154 A 
HETATM    4  C1    D T1302       4.372   2.139  -4.119  1.00 18.07     0.041 A 
HETATM    5  O17   D T1302       5.444   4.115  -5.011  1.00 19.82    -0.188 OA
HETATM    6  C2    D T1302       3.772   0.905  -4.356  1.00 16.92     0.060 A 
HETATM    7  C3    D T1302       3.571   0.414  -5.636  1.00 16.60     0.014 A 
HETATM    8 CL14   D T1302       3.258  -0.048  -2.985  1.00 19.02    -0.082 Cl
HETATM    9  C4    D T1302       3.936   1.257  -6.703  1.00 17.69     0.028 A 
ENDBRANCH   1   2
BRANCH   1  10
HETATM   10  C8    D T1302       5.677   2.668  -8.692  1.00 17.66     0.111 A 
HETATM   11  C9    D T1302       6.991   2.305  -8.723  1.00 21.86     0.081 A 
HETATM   12  C10   D T1302       7.600   1.804  -9.876  1.00 21.31     0.025 A 
HETATM   13 CL16   D T1302       7.987   2.547  -7.312  1.00 25.77    -0.080 Cl
HETATM   14  C11   D T1302       6.813   1.658 -11.030  1.00 22.96     0.059 A 
HETATM   15  C12   D T1302       5.492   2.011 -11.059  1.00 22.42     0.013 A 
HETATM   16 CL15   D T1302       7.574   1.038 -12.481  1.00 26.47    -0.082 Cl
HETATM   17  C13   D T1302       4.949   2.529  -9.859  1.00 19.81     0.026 A 
ENDBRANCH   1  10
TORSDOF 2
ENDMDL
MODEL 4
REMARK VINA RESULT:    -7.311      1.336      1.608
REMARK INTER + INTRA:          -8.593
REMARK INTER:                  -8.079
REMARK INTRA:                  -0.513
REMARK UNBOUND:                -0.427
REMARK  2 active torsions:
REMARK  status: ('A' for Active; 'I' for Inactive)
REMARK    1  A    between atoms: C5_4  and  O7_13 
REMARK    2  A    between atoms: C8_10  and  O7_13 
ROOT
HETATM    1  O7    D T1302       5.541   0.326  -7.409  1.00 18.77    -0.304 OA
ENDROOT
BRANCH   1   2
HETATM    2  C5    D T1302       5.345   1.326  -6.484  1.00 19.44     0.125 A 
HETATM    3  C6    D T1302       6.242   1.433  -5.444  1.00 18.58     0.154 A 
HETATM    4  C1    D T1302       6.091   2.406  -4.446  1.00 18.07     0.041 A 
HETATM    5  O17   D T1302       7.360   0.588  -5.413  1.00 19.82    -0.188 OA
HETATM    6  C2    D T1302       4.957   3.214  -4.483  1.00 16.92     0.060 A 
HETATM    7  C3    D T1302       4.004   3.105  -5.483  1.00 16.60     0.014 A 
HETATM    8 CL14   D T1302       4.740   4.402  -3.221  1.00 19.02    -0.082 Cl
HETATM    9  C4    D T1302       4.268   2.183  -6.513  1.00 17.69     0.028 A 
ENDBRANCH   1   2
BRANCH   1  10
HETATM   10  C8    D T1302       5.960   0.580  -8.731  1.00 17.66     0.111 A 
HETATM   11  C9    D T1302       5.108   0.516  -9.794  1.00 21.86     0.081 A 
HETATM   12  C10   D T1302       5.538   0.717 -11.108  1.00 21.31     0.025 A 
HETATM   13 CL16   D T1302       3.438   0.086  -9.537  1.00 25.77    -0.080 Cl
HETATM   14  C11   D T1302       6.894   1.011 -11.323  1.00 22.96     0.059 A 
HETATM   15  C12   D T1302       7.795   1.081 -10.296  1.00 22.42     0.013 A 
HETATM   16 CL15   D T1302       7.440   1.255 -12.970  1.00 26.47    -0.082 Cl
HETATM   17  C13   D T1302       7.290   0.848  -8.995  1.00 19.81     0.026 A 
ENDBRANCH   1  10
TORSDOF 2
ENDMDL
MODEL 5
REMARK VINA RESULT:    -7.217      2.137      6.127
REMARK INTER + INTRA:          -8.487
REMARK INTER:                  -7.990
REMARK INTRA:                  -0.498
REMARK UNBOUND:                -0.427
REMARK  2 active torsions:
REMARK  status: ('A' for Active; 'I' for Inactive)
REMARK    1  A    between atoms: C5_4  and  O7_13 
REMARK    2  A    between atoms: C8_10  and  O7_13 
ROOT
HETATM    1  O7    D T1302       4.436   1.377  -7.988  1.00 18.77    -0.304 OA
ENDROOT
BRANCH   1   2
HETATM    2  C5    D T1302       5.290   1.322  -9.065  1.00 19.44     0.125 A 
HETATM    3  C6    D T1302       5.180   2.299 -10.031  1.00 18.58     0.154 A 
HETATM    4  C1    D T1302       5.995   2.293 -11.172  1.00 18.07     0.041 A 
HETATM    5  O17   D T1302       4.274   3.351  -9.843  1.00 19.82    -0.188 OA
HETATM    6  C2    D T1302       6.866   1.221 -11.351  1.00 16.92     0.060 A 
HETATM    7  C3    D T1302       6.971   0.191 -10.429  1.00 16.60     0.014 A 
HETATM    8 CL14   D T1302       7.856   1.183 -12.790  1.00 19.02    -0.082 Cl
HETATM    9  C4    D T1302       6.205   0.312  -9.254  1.00 17.69     0.028 A 
ENDBRANCH   1   2
BRANCH   1  10
HETATM   10  C8    D T1302       4.861   1.734  -6.692  1.00 17.66     0.111 A 
HETATM   11  C9    D T1302       4.896   0.842  -5.661  1.00 21.86     0.081 A 
HETATM   12  C10   D T1302       5.268   1.211  -4.367  1.00 21.31     0.025 A 
HETATM   13 CL16   D T1302       4.378  -0.803  -5.925  1.00 25.77    -0.080 Cl
HETATM   14  C11   D T1302       5.634   2.548  -4.140  1.00 22.96     0.059 A 
HETATM   15  C12   D T1302       5.612   3.488  -5.134  1.00 22.42     0.013 A 
HETATM   16 CL15   D T1302       6.093   3.019  -2.515  1.00 26.47    -0.082 Cl
HETATM   17  C13   D T1302       5.206   3.043  -6.415  1.00 19.81     0.026 A 
ENDBRANCH   1  10
TORSDOF 2
ENDMDL
MODEL 6
REMARK VINA RESULT:    -7.146      2.142      6.261
REMARK INTER + INTRA:          -8.408
REMARK INTER:                  -7.980
REMARK INTRA:                  -0.428
REMARK UNBOUND:                -0.427
REMARK  2 active torsions:
REMARK  status: ('A' for Active; 'I' for Inactive)
REMARK    1  A    between atoms: C5_4  and  O7_13 
REMARK    2  A    between atoms: C8_10  and  O7_13 
ROOT
HETATM    1  O7    D T1302       5.649   3.174  -6.996  1.00 18.77    -0.304 OA
ENDROOT
BRANCH   1   2
HETATM    2  C5    D T1302       5.939   2.709  -8.258  1.00 19.44     0.125 A 
HETATM    3  C6    D T1302       7.252   2.419  -8.558  1.00 18.58     0.154 A 
HETATM    4  C1    D T1302       7.630   1.970  -9.831  1.00 18.07     0.041 A 
HETATM    5  O17   D T1302       8.224   2.522  -7.553  1.00 19.82    -0.188 OA
HETATM    6  C2    D T1302       6.652   1.905 -10.821  1.00 16.92     0.060 A 
HETATM    7  C3    D T1302       5.328   2.236 -10.576  1.00 16.60     0.014 A 
HETATM    8 CL14   D T1302       7.120   1.386 -12.422  1.00 19.02    -0.082 Cl
HETATM    9  C4    D T1302       4.995   2.576  -9.251  1.00 17.69     0.028 A 
ENDBRANCH   1   2
BRANCH   1  10
HETATM   10  C8    D T1302       4.998   2.389  -6.023  1.00 17.66     0.111 A 
HETATM   11  C9    D T1302       3.958   2.860  -5.278  1.00 21.86     0.081 A 
HETATM   12  C10   D T1302       3.350   2.097  -4.278  1.00 21.31     0.025 A 
HETATM   13 CL16   D T1302       3.408   4.499  -5.503  1.00 25.77    -0.080 Cl
HETATM   14  C11   D T1302       3.827   0.794  -4.058  1.00 22.96     0.059 A 
HETATM   15  C12   D T1302       4.871   0.271  -4.771  1.00 22.42     0.013 A 
HETATM   16 CL15   D T1302       3.073  -0.164  -2.800  1.00 26.47    -0.082 Cl
HETATM   17  C13   D T1302       5.449   1.110  -5.753  1.00 19.81     0.026 A 
ENDBRANCH   1  10
TORSDOF 2
ENDMDL
MODEL 7
REMARK VINA RESULT:    -6.961      4.263      4.840
REMARK INTER + INTRA:          -8.201
REMARK INTER:                  -7.933
REMARK INTRA:                  -0.268
REMARK UNBOUND:                -0.427
REMARK  2 active torsions:
REMARK  status: ('A' for Active; 'I' for Inactive)
REMARK    1  A    between atoms: C5_4  and  O7_13 
REMARK    2  A    between atoms: C8_10  and  O7_13 
ROOT
HETATM    1  O7    D T1302       7.297   0.921  -5.992  1.00 18.77    -0.304 OA
ENDROOT
BRANCH   1   2
HETATM    2  C5    D T1302       8.532   1.009  -5.390  1.00 19.44     0.125 A 
HETATM    3  C6    D T1302       8.669   1.857  -4.313  1.00 18.58     0.154 A 
HETATM    4  C1    D T1302       9.902   2.023  -3.666  1.00 18.07     0.041 A 
HETATM    5  O17   D T1302       7.542   2.526  -3.817  1.00 19.82    -0.188 OA
HETATM    6  C2    D T1302      11.014   1.371  -4.195  1.00 16.92     0.060 A 
HETATM    7  C3    D T1302      10.929   0.549  -5.308  1.00 16.60     0.014 A 
HETATM    8 CL14   D T1302      12.563   1.604  -3.421  1.00 19.02    -0.082 Cl
HETATM    9  C4    D T1302       9.644   0.340  -5.845  1.00 17.69     0.028 A 
ENDBRANCH   1   2
BRANCH   1  10
HETATM   10  C8    D T1302       7.123   0.982  -7.390  1.00 17.66     0.111 A 
HETATM   11  C9    D T1302       6.310   0.120  -8.065  1.00 21.86     0.081 A 
HETATM   12  C10   D T1302       6.180   0.150  -9.455  1.00 21.31     0.025 A 
HETATM   13 CL16   D T1302       5.459  -1.127  -7.191  1.00 25.77    -0.080 Cl
HETATM   14  C11   D T1302       6.905   1.119 -10.166  1.00 22.96     0.059 A 
HETATM   15  C12   D T1302       7.741   2.005  -9.544  1.00 22.42     0.013 A 
HETATM   16 CL15   D T1302       6.752   1.155 -11.912  1.00 26.47    -0.082 Cl
HETATM   17  C13   D T1302       7.836   1.902  -8.135  1.00 19.81     0.026 A 
ENDBRANCH   1  10
TORSDOF 2
ENDMDL
MODEL 8
REMARK VINA RESULT:    -6.943      1.881      2.282
REMARK INTER + INTRA:          -8.182
REMARK INTER:                  -7.742
REMARK INTRA:                  -0.440
REMARK UNBOUND:                -0.427
REMARK  2 active torsions:
REMARK  status: ('A' for Active; 'I' for Inactive)
REMARK    1  A    between atoms: C5_4  and  O7_13 
REMARK    2  A    between atoms: C8_10  and  O7_13 
ROOT
HETATM    1  O7    D T1302       6.091   0.840  -6.203  1.00 18.77    -0.304 OA
ENDROOT
BRANCH   1   2
HETATM    2  C5    D T1302       5.247   1.766  -5.634  1.00 19.44     0.125 A 
HETATM    3  C6    D T1302       4.027   1.329  -5.165  1.00 18.58     0.154 A 
HETATM    4  C1    D T1302       3.100   2.218  -4.600  1.00 18.07     0.041 A 
HETATM    5  O17   D T1302       3.727  -0.039  -5.201  1.00 19.82    -0.188 OA
HETATM    6  C2    D T1302       3.409   3.577  -4.602  1.00 16.92     0.060 A 
HETATM    7  C3    D T1302       4.603   4.063  -5.111  1.00 16.60     0.014 A 
HETATM    8 CL14   D T1302       2.243   4.696  -3.938  1.00 19.02    -0.082 Cl
HETATM    9  C4    D T1302       5.534   3.110  -5.564  1.00 17.69     0.028 A 
ENDBRANCH   1   2
BRANCH   1  10
HETATM   10  C8    D T1302       6.419   0.846  -7.573  1.00 17.66     0.111 A 
HETATM   11  C9    D T1302       7.531   1.470  -8.058  1.00 21.86     0.081 A 
HETATM   12  C10   D T1302       7.825   1.518  -9.423  1.00 21.31     0.025 A 
HETATM   13 CL16   D T1302       8.591   2.317  -6.964  1.00 25.77    -0.080 Cl
HETATM   14  C11   D T1302       6.943   0.881 -10.312  1.00 22.96     0.059 A 
HETATM   15  C12   D T1302       5.810   0.246  -9.884  1.00 22.42     0.013 A 
HETATM   16 CL15   D T1302       7.303   0.946 -12.026  1.00 26.47    -0.082 Cl
HETATM   17  C13   D T1302       5.569   0.255  -8.489  1.00 19.81     0.026 A 
ENDBRANCH   1  10
TORSDOF 2
ENDMDL
MODEL 9
REMARK VINA RESULT:    -6.942      1.581      6.194
REMARK INTER + INTRA:          -8.180
REMARK INTER:                  -7.926
REMARK INTRA:                  -0.255
REMARK UNBOUND:                -0.427
REMARK  2 active torsions:
REMARK  status: ('A' for Active; 'I' for Inactive)
REMARK    1  A    between atoms: C5_4  and  O7_13 
REMARK    2  A    between atoms: C8_10  and  O7_13 
ROOT
HETATM    1  O7    D T1302       5.891   0.738  -6.849  1.00 18.77    -0.304 OA
ENDROOT
BRANCH   1   2
HETATM    2  C5    D T1302       6.094   0.775  -8.210  1.00 19.44     0.125 A 
HETATM    3  C6    D T1302       7.378   0.972  -8.669  1.00 18.58     0.154 A 
HETATM    4  C1    D T1302       7.659   1.052 -10.041  1.00 18.07     0.041 A 
HETATM    5  O17   D T1302       8.434   1.037  -7.750  1.00 19.82    -0.188 OA
HETATM    6  C2    D T1302       6.591   1.014 -10.934  1.00 16.92     0.060 A 
HETATM    7  C3    D T1302       5.279   0.868 -10.510  1.00 16.60     0.014 A 
HETATM    8 CL14   D T1302       6.927   1.154 -12.642  1.00 19.02    -0.082 Cl
HETATM    9  C4    D T1302       5.074   0.685  -9.129  1.00 17.69     0.028 A 
ENDBRANCH   1   2
BRANCH   1  10
HETATM   10  C8    D T1302       5.030   1.631  -6.181  1.00 17.66     0.111 A 
HETATM   11  C9    D T1302       5.335   2.948  -6.003  1.00 21.86     0.081 A 
HETATM   12  C10   D T1302       4.503   3.818  -5.294  1.00 21.31     0.025 A 
HETATM   13 CL16   D T1302       6.851   3.571  -6.598  1.00 25.77    -0.080 Cl
HETATM   14  C11   D T1302       3.306   3.306  -4.767  1.00 22.96     0.059 A 
HETATM   15  C12   D T1302       2.951   1.993  -4.908  1.00 22.42     0.013 A 
HETATM   16 CL15   D T1302       2.263   4.391  -3.870  1.00 26.47    -0.082 Cl
HETATM   17  C13   D T1302       3.853   1.168  -5.622  1.00 19.81     0.026 A 
ENDBRANCH   1  10
TORSDOF 2
ENDMDL
