MODEL 1
REMARK VINA RESULT:    -8.066      0.000      0.000
REMARK INTER + INTRA:          -9.366
REMARK INTER:                  -9.009
REMARK INTRA:                  -0.356
REMARK UNBOUND:                -0.356
REMARK  2 active torsions:
REMARK  status: ('A' for Active; 'I' for Inactive)
REMARK    1  A    between atoms: C5_4  and  O7_13 
REMARK    2  A    between atoms: C8_10  and  O7_13 
ROOT
HETATM    1  O7    D T1302       9.629  12.958  11.999  1.00 18.77    -0.304 OA
ENDROOT
BRANCH   1   2
HETATM    2  C5    D T1302       9.920  12.934  13.343  1.00 19.44     0.125 A 
HETATM    3  C6    D T1302       9.818  11.731  14.007  1.00 18.58     0.154 A 
HETATM    4  C1    D T1302      10.069  11.632  15.384  1.00 18.07     0.041 A 
HETATM    5  O17   D T1302       9.513  10.571  13.284  1.00 19.82    -0.188 OA
HETATM    6  C2    D T1302      10.342  12.804  16.086  1.00 16.92     0.060 A 
HETATM    7  C3    D T1302      10.404  14.042  15.466  1.00 16.60     0.014 A 
HETATM    8 CL14   D T1302      10.616  12.697  17.809  1.00 19.02    -0.082 Cl
HETATM    9  C4    D T1302      10.250  14.057  14.067  1.00 17.69     0.028 A 
ENDBRANCH   1   2
BRANCH   1  10
HETATM   10  C8    D T1302       8.912  14.009  11.390  1.00 17.66     0.111 A 
HETATM   11  C9    D T1302       7.591  14.235  11.640  1.00 21.86     0.081 A 
HETATM   12  C10   D T1302       6.871  15.243  10.996  1.00 21.31     0.025 A 
HETATM   13 CL16   D T1302       6.728  13.186  12.734  1.00 25.77    -0.080 Cl
HETATM   14  C11   D T1302       7.552  16.056  10.074  1.00 22.96     0.059 A 
HETATM   15  C12   D T1302       8.874  15.871   9.779  1.00 22.42     0.013 A 
HETATM   16 CL15   D T1302       6.652  17.317   9.256  1.00 26.47    -0.082 Cl
HETATM   17  C13   D T1302       9.533  14.817  10.457  1.00 19.81     0.026 A 
ENDBRANCH   1  10
TORSDOF 2
ENDMDL
MODEL 2
REMARK VINA RESULT:    -7.741      1.203      5.858
REMARK INTER + INTRA:          -9.002
REMARK INTER:                  -8.733
REMARK INTRA:                  -0.269
REMARK UNBOUND:                -0.356
REMARK  2 active torsions:
REMARK  status: ('A' for Active; 'I' for Inactive)
REMARK    1  A    between atoms: C5_4  and  O7_13 
REMARK    2  A    between atoms: C8_10  and  O7_13 
ROOT
HETATM    1  O7    D T1302       9.122  12.669  12.114  1.00 18.77    -0.304 OA
ENDROOT
BRANCH   1   2
HETATM    2  C5    D T1302       8.636  13.783  11.469  1.00 19.44     0.125 A 
HETATM    3  C6    D T1302       7.356  14.197  11.767  1.00 18.58     0.154 A 
HETATM    4  C1    D T1302       6.780  15.306  11.129  1.00 18.07     0.041 A 
HETATM    5  O17   D T1302       6.635  13.534  12.768  1.00 19.82    -0.188 OA
HETATM    6  C2    D T1302       7.507  15.932  10.118  1.00 16.92     0.060 A 
HETATM    7  C3    D T1302       8.776  15.514   9.753  1.00 16.60     0.014 A 
HETATM    8 CL14   D T1302       6.781  17.288   9.289  1.00 19.02    -0.082 Cl
HETATM    9  C4    D T1302       9.340  14.466  10.504  1.00 17.69     0.028 A 
ENDBRANCH   1   2
BRANCH   1  10
HETATM   10  C8    D T1302       9.734  12.725  13.383  1.00 17.66     0.111 A 
HETATM   11  C9    D T1302       9.302  11.977  14.439  1.00 21.86     0.081 A 
HETATM   12  C10   D T1302       9.876  12.075  15.707  1.00 21.31     0.025 A 
HETATM   13 CL16   D T1302       7.930  10.919  14.241  1.00 25.77    -0.080 Cl
HETATM   14  C11   D T1302      10.948  12.967  15.881  1.00 22.96     0.059 A 
HETATM   15  C12   D T1302      11.418  13.747  14.861  1.00 22.42     0.013 A 
HETATM   16 CL15   D T1302      11.667  13.100  17.474  1.00 26.47    -0.082 Cl
HETATM   17  C13   D T1302      10.774  13.607  13.609  1.00 19.81     0.026 A 
ENDBRANCH   1  10
TORSDOF 2
ENDMDL
MODEL 3
REMARK VINA RESULT:    -7.712      9.943     13.031
REMARK INTER + INTRA:          -8.970
REMARK INTER:                  -8.644
REMARK INTRA:                  -0.326
REMARK UNBOUND:                -0.356
REMARK  2 active torsions:
REMARK  status: ('A' for Active; 'I' for Inactive)
REMARK    1  A    between atoms: C5_4  and  O7_13 
REMARK    2  A    between atoms: C8_10  and  O7_13 
ROOT
HETATM    1  O7    D T1302      18.862  12.041  20.505  1.00 18.77    -0.304 OA
ENDROOT
BRANCH   1   2
HETATM    2  C5    D T1302      17.808  12.851  20.151  1.00 19.44     0.125 A 
HETATM    3  C6    D T1302      17.697  14.078  20.770  1.00 18.58     0.154 A 
HETATM    4  C1    D T1302      16.633  14.946  20.485  1.00 18.07     0.041 A 
HETATM    5  O17   D T1302      18.696  14.491  21.661  1.00 19.82    -0.188 OA
HETATM    6  C2    D T1302      15.637  14.501  19.618  1.00 16.92     0.060 A 
HETATM    7  C3    D T1302      15.684  13.255  19.015  1.00 16.60     0.014 A 
HETATM    8 CL14   D T1302      14.286  15.560  19.289  1.00 19.02    -0.082 Cl
HETATM    9  C4    D T1302      16.831  12.476  19.258  1.00 17.69     0.028 A 
ENDBRANCH   1   2
BRANCH   1  10
HETATM   10  C8    D T1302      19.827  11.594  19.579  1.00 17.66     0.111 A 
HETATM   11  C9    D T1302      20.475  10.402  19.714  1.00 21.86     0.081 A 
HETATM   12  C10   D T1302      21.468   9.986  18.824  1.00 21.31     0.025 A 
HETATM   13 CL16   D T1302      20.130   9.383  21.087  1.00 25.77    -0.080 Cl
HETATM   14  C11   D T1302      21.785  10.830  17.747  1.00 22.96     0.059 A 
HETATM   15  C12   D T1302      21.173  12.039  17.565  1.00 22.42     0.013 A 
HETATM   16 CL15   D T1302      23.036  10.318  16.632  1.00 26.47    -0.082 Cl
HETATM   17  C13   D T1302      20.191  12.401  18.518  1.00 19.81     0.026 A 
ENDBRANCH   1  10
TORSDOF 2
ENDMDL
MODEL 4
REMARK VINA RESULT:    -7.581     11.329     13.377
REMARK INTER + INTRA:          -8.824
REMARK INTER:                  -8.472
REMARK INTRA:                  -0.352
REMARK UNBOUND:                -0.356
REMARK  2 active torsions:
REMARK  status: ('A' for Active; 'I' for Inactive)
REMARK    1  A    between atoms: C5_4  and  O7_13 
REMARK    2  A    between atoms: C8_10  and  O7_13 
ROOT
HETATM    1  O7    D T1302      18.629  11.857  20.337  1.00 18.77    -0.304 OA
ENDROOT
BRANCH   1   2
HETATM    2  C5    D T1302      18.345  13.188  20.535  1.00 19.44     0.125 A 
HETATM    3  C6    D T1302      17.146  13.673  20.060  1.00 18.58     0.154 A 
HETATM    4  C1    D T1302      16.798  15.025  20.197  1.00 18.07     0.041 A 
HETATM    5  O17   D T1302      16.229  12.788  19.478  1.00 19.82    -0.188 OA
HETATM    6  C2    D T1302      17.738  15.891  20.752  1.00 16.92     0.060 A 
HETATM    7  C3    D T1302      18.976  15.453  21.195  1.00 16.60     0.014 A 
HETATM    8 CL14   D T1302      17.331  17.585  20.889  1.00 19.02    -0.082 Cl
HETATM    9  C4    D T1302      19.220  14.069  21.129  1.00 17.69     0.028 A 
ENDBRANCH   1   2
BRANCH   1  10
HETATM   10  C8    D T1302      19.699  11.414  19.532  1.00 17.66     0.111 A 
HETATM   11  C9    D T1302      20.439  10.310  19.839  1.00 21.86     0.081 A 
HETATM   12  C10   D T1302      21.530   9.906  19.069  1.00 21.31     0.025 A 
HETATM   13 CL16   D T1302      20.080   9.407  21.287  1.00 25.77    -0.080 Cl
HETATM   14  C11   D T1302      21.854  10.663  17.930  1.00 22.96     0.059 A 
HETATM   15  C12   D T1302      21.152  11.783  17.578  1.00 22.42     0.013 A 
HETATM   16 CL15   D T1302      23.228  10.165  16.965  1.00 26.47    -0.082 Cl
HETATM   17  C13   D T1302      20.071  12.142  18.418  1.00 19.81     0.026 A 
ENDBRANCH   1  10
TORSDOF 2
ENDMDL
MODEL 5
REMARK VINA RESULT:    -7.493      1.217      5.977
REMARK INTER + INTRA:          -8.725
REMARK INTER:                  -8.210
REMARK INTRA:                  -0.515
REMARK UNBOUND:                -0.356
REMARK  2 active torsions:
REMARK  status: ('A' for Active; 'I' for Inactive)
REMARK    1  A    between atoms: C5_4  and  O7_13 
REMARK    2  A    between atoms: C8_10  and  O7_13 
ROOT
HETATM    1  O7    D T1302      10.145  13.133  12.071  1.00 18.77    -0.304 OA
ENDROOT
BRANCH   1   2
HETATM    2  C5    D T1302       9.321  14.040  11.445  1.00 19.44     0.125 A 
HETATM    3  C6    D T1302       9.907  15.080  10.755  1.00 18.58     0.154 A 
HETATM    4  C1    D T1302       9.134  16.060  10.116  1.00 18.07     0.041 A 
HETATM    5  O17   D T1302      11.302  15.128  10.641  1.00 19.82    -0.188 OA
HETATM    6  C2    D T1302       7.750  16.006  10.268  1.00 16.92     0.060 A 
HETATM    7  C3    D T1302       7.124  15.007  10.996  1.00 16.60     0.014 A 
HETATM    8 CL14   D T1302       6.780  17.247   9.510  1.00 19.02    -0.082 Cl
HETATM    9  C4    D T1302       7.948  13.993  11.521  1.00 17.69     0.028 A 
ENDBRANCH   1   2
BRANCH   1  10
HETATM   10  C8    D T1302      10.272  13.057  13.473  1.00 17.66     0.111 A 
HETATM   11  C9    D T1302       9.894  11.956  14.185  1.00 21.86     0.081 A 
HETATM   12  C10   D T1302       9.973  11.904  15.577  1.00 21.31     0.025 A 
HETATM   13 CL16   D T1302       9.207  10.586  13.353  1.00 25.77    -0.080 Cl
HETATM   14  C11   D T1302      10.477  13.028  16.254  1.00 22.96     0.059 A 
HETATM   15  C12   D T1302      10.863  14.161  15.594  1.00 22.42     0.013 A 
HETATM   16 CL15   D T1302      10.569  12.972  18.002  1.00 26.47    -0.082 Cl
HETATM   17  C13   D T1302      10.737  14.147  14.184  1.00 19.81     0.026 A 
ENDBRANCH   1  10
TORSDOF 2
ENDMDL
MODEL 6
REMARK VINA RESULT:    -7.340      4.267      4.925
REMARK INTER + INTRA:          -8.555
REMARK INTER:                  -8.221
REMARK INTRA:                  -0.334
REMARK UNBOUND:                -0.356
REMARK  2 active torsions:
REMARK  status: ('A' for Active; 'I' for Inactive)
REMARK    1  A    between atoms: C5_4  and  O7_13 
REMARK    2  A    between atoms: C8_10  and  O7_13 
ROOT
HETATM    1  O7    D T1302      11.854  14.501  12.357  1.00 18.77    -0.304 OA
ENDROOT
BRANCH   1   2
HETATM    2  C5    D T1302      13.102  14.584  11.787  1.00 19.44     0.125 A 
HETATM    3  C6    D T1302      14.201  14.477  12.612  1.00 18.58     0.154 A 
HETATM    4  C1    D T1302      15.506  14.582  12.108  1.00 18.07     0.041 A 
HETATM    5  O17   D T1302      14.014  14.200  13.972  1.00 19.82    -0.188 OA
HETATM    6  C2    D T1302      15.666  14.886  10.758  1.00 16.92     0.060 A 
HETATM    7  C3    D T1302      14.587  15.053   9.905  1.00 16.60     0.014 A 
HETATM    8 CL14   D T1302      17.288  15.060  10.130  1.00 19.02    -0.082 Cl
HETATM    9  C4    D T1302      13.308  14.827  10.448  1.00 17.69     0.028 A 
ENDBRANCH   1   2
BRANCH   1  10
HETATM   10  C8    D T1302      10.698  15.035  11.751  1.00 17.66     0.111 A 
HETATM   11  C9    D T1302       9.734  14.249  11.192  1.00 21.86     0.081 A 
HETATM   12  C10   D T1302       8.617  14.784  10.546  1.00 21.31     0.025 A 
HETATM   13 CL16   D T1302       9.924  12.516  11.197  1.00 25.77    -0.080 Cl
HETATM   14  C11   D T1302       8.489  16.182  10.494  1.00 22.96     0.059 A 
HETATM   15  C12   D T1302       9.428  17.018  11.031  1.00 22.42     0.013 A 
HETATM   16 CL15   D T1302       7.095  16.858   9.677  1.00 26.47    -0.082 Cl
HETATM   17  C13   D T1302      10.542  16.405  11.652  1.00 19.81     0.026 A 
ENDBRANCH   1  10
TORSDOF 2
ENDMDL
MODEL 7
REMARK VINA RESULT:    -7.156      2.266      2.722
REMARK INTER + INTRA:          -8.349
REMARK INTER:                  -7.810
REMARK INTRA:                  -0.539
REMARK UNBOUND:                -0.356
REMARK  2 active torsions:
REMARK  status: ('A' for Active; 'I' for Inactive)
REMARK    1  A    between atoms: C5_4  and  O7_13 
REMARK    2  A    between atoms: C8_10  and  O7_13 
ROOT
HETATM    1  O7    D T1302       8.620  14.256  14.233  1.00 18.77    -0.304 OA
ENDROOT
BRANCH   1   2
HETATM    2  C5    D T1302       9.957  14.036  14.472  1.00 19.44     0.125 A 
HETATM    3  C6    D T1302      10.491  14.506  15.652  1.00 18.58     0.154 A 
HETATM    4  C1    D T1302      11.851  14.347  15.954  1.00 18.07     0.041 A 
HETATM    5  O17   D T1302       9.647  15.104  16.598  1.00 19.82    -0.188 OA
HETATM    6  C2    D T1302      12.675  13.775  14.986  1.00 16.92     0.060 A 
HETATM    7  C3    D T1302      12.188  13.337  13.765  1.00 16.60     0.014 A 
HETATM    8 CL14   D T1302      14.379  13.611  15.335  1.00 19.02    -0.082 Cl
HETATM    9  C4    D T1302      10.797  13.426  13.569  1.00 17.69     0.028 A 
ENDBRANCH   1   2
BRANCH   1  10
HETATM   10  C8    D T1302       8.154  15.030  13.151  1.00 17.66     0.111 A 
HETATM   11  C9    D T1302       7.513  14.480  12.079  1.00 21.86     0.081 A 
HETATM   12  C10   D T1302       7.100  15.243  10.986  1.00 21.31     0.025 A 
HETATM   13 CL16   D T1302       7.269  12.755  12.012  1.00 25.77    -0.080 Cl
HETATM   14  C11   D T1302       7.343  16.627  11.014  1.00 22.96     0.059 A 
HETATM   15  C12   D T1302       7.987  17.231  12.058  1.00 22.42     0.013 A 
HETATM   16 CL15   D T1302       6.834  17.588   9.640  1.00 26.47    -0.082 Cl
HETATM   17  C13   D T1302       8.394  16.390  13.122  1.00 19.81     0.026 A 
ENDBRANCH   1  10
TORSDOF 2
ENDMDL
MODEL 8
REMARK VINA RESULT:    -7.124     10.198     12.822
REMARK INTER + INTRA:          -8.313
REMARK INTER:                  -8.007
REMARK INTRA:                  -0.306
REMARK UNBOUND:                -0.356
REMARK  2 active torsions:
REMARK  status: ('A' for Active; 'I' for Inactive)
REMARK    1  A    between atoms: C5_4  and  O7_13 
REMARK    2  A    between atoms: C8_10  and  O7_13 
ROOT
HETATM    1  O7    D T1302      19.528  12.736  20.056  1.00 18.77    -0.304 OA
ENDROOT
BRANCH   1   2
HETATM    2  C5    D T1302      18.215  13.130  19.946  1.00 19.44     0.125 A 
HETATM    3  C6    D T1302      17.797  14.209  20.694  1.00 18.58     0.154 A 
HETATM    4  C1    D T1302      16.467  14.652  20.658  1.00 18.07     0.041 A 
HETATM    5  O17   D T1302      18.732  14.915  21.462  1.00 19.82    -0.188 OA
HETATM    6  C2    D T1302      15.551  13.917  19.909  1.00 16.92     0.060 A 
HETATM    7  C3    D T1302      15.919  12.795  19.184  1.00 16.60     0.014 A 
HETATM    8 CL14   D T1302      13.882  14.436  19.892  1.00 19.02    -0.082 Cl
HETATM    9  C4    D T1302      17.288  12.468  19.174  1.00 17.69     0.028 A 
ENDBRANCH   1   2
BRANCH   1  10
HETATM   10  C8    D T1302      20.140  11.850  19.144  1.00 17.66     0.111 A 
HETATM   11  C9    D T1302      20.568  12.247  17.912  1.00 21.86     0.081 A 
HETATM   12  C10   D T1302      21.125  11.357  16.992  1.00 21.31     0.025 A 
HETATM   13 CL16   D T1302      20.344  13.903  17.413  1.00 25.77    -0.080 Cl
HETATM   14  C11   D T1302      21.258  10.010  17.373  1.00 22.96     0.059 A 
HETATM   15  C12   D T1302      20.840   9.555  18.592  1.00 22.42     0.013 A 
HETATM   16 CL15   D T1302      21.948   8.886  16.219  1.00 26.47    -0.082 Cl
HETATM   17  C13   D T1302      20.268  10.512  19.463  1.00 19.81     0.026 A 
ENDBRANCH   1  10
TORSDOF 2
ENDMDL
MODEL 9
REMARK VINA RESULT:    -7.076      2.173      6.242
REMARK INTER + INTRA:          -8.260
REMARK INTER:                  -7.758
REMARK INTRA:                  -0.502
REMARK UNBOUND:                -0.356
REMARK  2 active torsions:
REMARK  status: ('A' for Active; 'I' for Inactive)
REMARK    1  A    between atoms: C5_4  and  O7_13 
REMARK    2  A    between atoms: C8_10  and  O7_13 
ROOT
HETATM    1  O7    D T1302      10.395  14.246  12.587  1.00 18.77    -0.304 OA
ENDROOT
BRANCH   1   2
HETATM    2  C5    D T1302       9.555  15.078  11.885  1.00 19.44     0.125 A 
HETATM    3  C6    D T1302       8.399  14.541  11.361  1.00 18.58     0.154 A 
HETATM    4  C1    D T1302       7.507  15.318  10.608  1.00 18.07     0.041 A 
HETATM    5  O17   D T1302       8.078  13.205  11.634  1.00 19.82    -0.188 OA
HETATM    6  C2    D T1302       7.863  16.636  10.326  1.00 16.92     0.060 A 
HETATM    7  C3    D T1302       9.041  17.200  10.789  1.00 16.60     0.014 A 
HETATM    8 CL14   D T1302       6.779  17.601   9.353  1.00 19.02    -0.082 Cl
HETATM    9  C4    D T1302       9.839  16.400  11.630  1.00 17.69     0.028 A 
ENDBRANCH   1   2
BRANCH   1  10
HETATM   10  C8    D T1302      10.687  14.431  13.954  1.00 17.66     0.111 A 
HETATM   11  C9    D T1302      11.953  14.656  14.409  1.00 21.86     0.081 A 
HETATM   12  C10   D T1302      12.245  14.786  15.768  1.00 21.31     0.025 A 
HETATM   13 CL16   D T1302      13.280  14.702  13.279  1.00 25.77    -0.080 Cl
HETATM   14  C11   D T1302      11.184  14.697  16.685  1.00 22.96     0.059 A 
HETATM   15  C12   D T1302       9.897  14.465  16.286  1.00 22.42     0.013 A 
HETATM   16 CL15   D T1302      11.547  14.850  18.392  1.00 26.47    -0.082 Cl
HETATM   17  C13   D T1302       9.681  14.325  14.895  1.00 19.81     0.026 A 
ENDBRANCH   1  10
TORSDOF 2
ENDMDL
