MODEL 1
REMARK VINA RESULT:    -9.245      0.000      0.000
REMARK INTER + INTRA:         -11.002
REMARK INTER:                 -10.866
REMARK INTRA:                  -0.136
REMARK UNBOUND:                -0.136
REMARK  3 active torsions:
REMARK  status: ('A' for Active; 'I' for Inactive)
REMARK    1  A    between atoms: C4_6  and  C5_7 
REMARK    2  A    between atoms: C5_7  and  C6_8 
REMARK    3  A    between atoms: C5_7  and  C12_16 
ROOT
HETATM    1  C12   D T 441      -2.272   8.398  -6.177  1.00 19.85     0.021 A 
HETATM    2  C13   D T 441      -2.175   9.716  -5.645  1.00 19.83    -0.000 A 
HETATM    3  C14   D T 441      -0.915  10.361  -5.507  1.00 20.16     0.016 A 
HETATM    4  C15   D T 441      -1.086   7.750  -6.604  1.00 20.41    -0.000 A 
HETATM    5  C16   D T 441       0.162   8.379  -6.470  1.00 20.73     0.017 A 
HETATM    6  C17   D T 441       0.262   9.672  -5.914  1.00 21.09     0.062 A 
HETATM    7  N4    D T 441       1.544  10.273  -5.700  1.00 20.91    -0.294 N 
HETATM    8  C18   D T 441       2.795   9.579  -6.125  1.00 20.23     0.134 C 
HETATM    9  C19   D T 441       1.640  11.540  -5.084  1.00 22.47     0.261 A 
HETATM   10  O1    D T 441       2.743  12.036  -4.854  1.00 22.92    -0.267 OA
HETATM   11  C20   D T 441       0.480  12.221  -4.701  1.00 22.04     0.061 A 
HETATM   12  C21   D T 441      -0.799  11.661  -4.911  1.00 20.64     0.006 A 
HETATM   13  C22   D T 441      -1.933  12.461  -4.609  1.00 21.65     0.001 A 
HETATM   14  C23   D T 441      -2.904  12.042  -3.670  1.00 20.99     0.011 A 
HETATM   15  C24   D T 441      -3.988  12.891  -3.355  1.00 22.35     0.058 A 
HETATM   16 CL2    D T 441      -5.196  12.387  -2.164  1.00 26.30    -0.082 Cl
HETATM   17  C25   D T 441      -4.110  14.152  -3.969  1.00 21.98     0.011 A 
HETATM   18  C26   D T 441      -3.149  14.572  -4.901  1.00 20.12     0.001 A 
HETATM   19  C27   D T 441      -2.067  13.732  -5.220  1.00 21.15     0.000 A 
ENDROOT
BRANCH   1  20
HETATM   20  C5    D T 441      -3.510   7.653  -6.125  1.00 20.67     0.342 C 
HETATM   21  N3    D T 441      -4.153   8.138  -4.886  1.00 22.80     0.629 N 
BRANCH  20  22
HETATM   22  C4    D T 441      -4.452   7.975  -7.178  1.00 19.37     0.100 A 
HETATM   23  N1    D T 441      -5.748   7.740  -7.107  1.00 19.33    -0.308 N 
HETATM   24  C1    D T 441      -6.515   7.187  -5.960  1.00 19.43     0.132 C 
HETATM   25  C2    D T 441      -6.269   8.080  -8.285  1.00 17.45     0.178 A 
HETATM   26  N2    D T 441      -5.248   8.524  -9.065  1.00 18.66    -0.223 NA
HETATM   27  C3    D T 441      -4.098   8.457  -8.363  1.00 16.78     0.116 A 
ENDBRANCH  20  22
BRANCH  20  28
HETATM   28  C6    D T 441      -3.335   6.241  -5.960  1.00 20.70     0.021 A 
HETATM   29  C7    D T 441      -3.348   5.672  -4.661  1.00 21.08    -0.001 A 
HETATM   30  C8    D T 441      -3.237   4.286  -4.486  1.00 21.56     0.011 A 
HETATM   31  C9    D T 441      -3.113   3.443  -5.598  1.00 22.96     0.058 A 
HETATM   32 CL1    D T 441      -3.019   1.682  -5.353  1.00 26.89    -0.082 Cl
HETATM   33  C10   D T 441      -3.092   3.986  -6.899  1.00 22.08     0.011 A 
HETATM   34  C11   D T 441      -3.203   5.383  -7.082  1.00 21.58    -0.001 A 
ENDBRANCH  20  28
ENDBRANCH   1  20
TORSDOF 3
ENDMDL
MODEL 2
REMARK VINA RESULT:    -8.988      1.405      2.093
REMARK INTER + INTRA:         -10.700
REMARK INTER:                 -10.743
REMARK INTRA:                   0.043
REMARK UNBOUND:                -0.136
REMARK  3 active torsions:
REMARK  status: ('A' for Active; 'I' for Inactive)
REMARK    1  A    between atoms: C4_6  and  C5_7 
REMARK    2  A    between atoms: C5_7  and  C6_8 
REMARK    3  A    between atoms: C5_7  and  C12_16 
ROOT
HETATM    1  C12   D T 441      -2.544   6.781  -6.248  1.00 19.85     0.021 A 
HETATM    2  C13   D T 441      -2.366   8.178  -6.032  1.00 19.83    -0.000 A 
HETATM    3  C14   D T 441      -1.091   8.789  -6.188  1.00 20.16     0.016 A 
HETATM    4  C15   D T 441      -1.427   6.012  -6.660  1.00 20.41    -0.000 A 
HETATM    5  C16   D T 441      -0.165   6.607  -6.815  1.00 20.73     0.017 A 
HETATM    6  C17   D T 441       0.018   7.984  -6.571  1.00 21.09     0.062 A 
HETATM    7  N4    D T 441       1.324   8.568  -6.646  1.00 20.91    -0.294 N 
HETATM    8  C18   D T 441       2.504   7.751  -7.054  1.00 20.23     0.134 C 
HETATM    9  C19   D T 441       1.510   9.933  -6.337  1.00 22.47     0.261 A 
HETATM   10  O1    D T 441       2.639  10.424  -6.353  1.00 22.92    -0.267 OA
HETATM   11  C20   D T 441       0.414  10.724  -5.978  1.00 22.04     0.061 A 
HETATM   12  C21   D T 441      -0.887  10.181  -5.908  1.00 20.64     0.006 A 
HETATM   13  C22   D T 441      -1.966  11.071  -5.656  1.00 21.65     0.001 A 
HETATM   14  C23   D T 441      -2.818  10.901  -4.541  1.00 20.99     0.011 A 
HETATM   15  C24   D T 441      -3.845  11.839  -4.294  1.00 22.35     0.058 A 
HETATM   16 CL2    D T 441      -4.902  11.650  -2.887  1.00 26.30    -0.082 Cl
HETATM   17  C25   D T 441      -4.028  12.941  -5.149  1.00 21.98     0.011 A 
HETATM   18  C26   D T 441      -3.184  13.114  -6.257  1.00 20.12     0.001 A 
HETATM   19  C27   D T 441      -2.160  12.184  -6.510  1.00 21.15     0.000 A 
ENDROOT
BRANCH   1  20
HETATM   20  C5    D T 441      -3.774   6.113  -5.889  1.00 20.67     0.342 C 
HETATM   21  N3    D T 441      -3.969   6.486  -4.473  1.00 22.80     0.629 N 
BRANCH  20  22
HETATM   22  C4    D T 441      -4.953   6.614  -6.567  1.00 19.37     0.100 A 
HETATM   23  N1    D T 441      -4.994   6.920  -7.849  1.00 19.33    -0.308 N 
HETATM   24  C1    D T 441      -3.917   6.760  -8.862  1.00 19.43     0.132 C 
HETATM   25  C2    D T 441      -6.202   7.428  -8.088  1.00 17.45     0.178 A 
HETATM   26  N2    D T 441      -6.883   7.420  -6.912  1.00 18.66    -0.223 NA
HETATM   27  C3    D T 441      -6.091   6.904  -5.949  1.00 16.78     0.116 A 
ENDBRANCH  20  22
BRANCH  20  28
HETATM   28  C6    D T 441      -3.692   4.683  -5.918  1.00 20.70     0.021 A 
HETATM   29  C7    D T 441      -4.180   3.968  -7.041  1.00 21.08    -0.001 A 
HETATM   30  C8    D T 441      -4.055   2.574  -7.111  1.00 21.56     0.011 A 
HETATM   31  C9    D T 441      -3.443   1.868  -6.067  1.00 22.96     0.058 A 
HETATM   32 CL1    D T 441      -3.256   0.103  -6.198  1.00 26.89    -0.082 Cl
HETATM   33  C10   D T 441      -2.957   2.557  -4.937  1.00 22.08     0.011 A 
HETATM   34  C11   D T 441      -3.080   3.963  -4.861  1.00 21.58    -0.001 A 
ENDBRANCH  20  28
ENDBRANCH   1  20
TORSDOF 3
ENDMDL
MODEL 3
REMARK VINA RESULT:    -8.918      2.395      4.426
REMARK INTER + INTRA:         -10.618
REMARK INTER:                 -10.688
REMARK INTRA:                   0.071
REMARK UNBOUND:                -0.136
REMARK  3 active torsions:
REMARK  status: ('A' for Active; 'I' for Inactive)
REMARK    1  A    between atoms: C4_6  and  C5_7 
REMARK    2  A    between atoms: C5_7  and  C6_8 
REMARK    3  A    between atoms: C5_7  and  C12_16 
ROOT
HETATM    1  C12   D T 441      -3.511   8.401  -5.670  1.00 19.85     0.021 A 
HETATM    2  C13   D T 441      -2.149   8.466  -6.081  1.00 19.83    -0.000 A 
HETATM    3  C14   D T 441      -1.319   9.558  -5.706  1.00 20.16     0.016 A 
HETATM    4  C15   D T 441      -4.019   9.433  -4.843  1.00 20.41    -0.000 A 
HETATM    5  C16   D T 441      -3.208  10.517  -4.469  1.00 20.73     0.017 A 
HETATM    6  C17   D T 441      -1.867  10.597  -4.902  1.00 21.09     0.062 A 
HETATM    7  N4    D T 441      -1.071  11.745  -4.590  1.00 20.91    -0.294 N 
HETATM    8  C18   D T 441      -1.616  12.846  -3.741  1.00 20.23     0.134 C 
HETATM    9  C19   D T 441       0.249  11.849  -5.081  1.00 22.47     0.261 A 
HETATM   10  O1    D T 441       0.917  12.858  -4.854  1.00 22.92    -0.267 OA
HETATM   11  C20   D T 441       0.789  10.818  -5.856  1.00 22.04     0.061 A 
HETATM   12  C21   D T 441       0.034   9.667  -6.170  1.00 20.64     0.006 A 
HETATM   13  C22   D T 441       0.688   8.610  -6.857  1.00 21.65     0.001 A 
HETATM   14  C23   D T 441       0.224   8.144  -8.109  1.00 20.99     0.011 A 
HETATM   15  C24   D T 441       0.935   7.129  -8.787  1.00 22.35     0.058 A 
HETATM   16 CL2    D T 441       0.377   6.555 -10.365  1.00 26.30    -0.082 Cl
HETATM   17  C25   D T 441       2.101   6.576  -8.226  1.00 21.98     0.011 A 
HETATM   18  C26   D T 441       2.566   7.036  -6.984  1.00 20.12     0.001 A 
HETATM   19  C27   D T 441       1.863   8.046  -6.303  1.00 21.15     0.000 A 
ENDROOT
BRANCH   1  20
HETATM   20  C5    D T 441      -4.417   7.416  -6.216  1.00 20.67     0.342 C 
HETATM   21  N3    D T 441      -5.628   7.561  -5.383  1.00 22.80     0.629 N 
BRANCH  20  22
HETATM   22  C4    D T 441      -4.865   7.692  -7.567  1.00 19.37     0.100 A 
HETATM   23  N1    D T 441      -5.997   7.246  -8.076  1.00 19.33    -0.308 N 
HETATM   24  C1    D T 441      -7.057   6.457  -7.394  1.00 19.43     0.132 C 
HETATM   25  C2    D T 441      -6.023   7.621  -9.353  1.00 17.45     0.178 A 
HETATM   26  N2    D T 441      -4.873   8.304  -9.596  1.00 18.66    -0.223 NA
HETATM   27  C3    D T 441      -4.140   8.348  -8.464  1.00 16.78     0.116 A 
ENDBRANCH  20  22
BRANCH  20  28
HETATM   28  C6    D T 441      -3.978   6.063  -6.051  1.00 20.70     0.021 A 
HETATM   29  C7    D T 441      -3.873   5.504  -4.753  1.00 21.08    -0.001 A 
HETATM   30  C8    D T 441      -3.500   4.164  -4.577  1.00 21.56     0.011 A 
HETATM   31  C9    D T 441      -3.227   3.357  -5.690  1.00 22.96     0.058 A 
HETATM   32 CL1    D T 441      -2.800   1.647  -5.445  1.00 26.89    -0.082 Cl
HETATM   33  C10   D T 441      -3.319   3.893  -6.992  1.00 22.08     0.011 A 
HETATM   34  C11   D T 441      -3.694   5.243  -7.174  1.00 21.58    -0.001 A 
ENDBRANCH  20  28
ENDBRANCH   1  20
TORSDOF 3
ENDMDL
MODEL 4
REMARK VINA RESULT:    -8.800      3.452      5.981
REMARK INTER + INTRA:         -10.479
REMARK INTER:                 -10.315
REMARK INTRA:                  -0.164
REMARK UNBOUND:                -0.136
REMARK  3 active torsions:
REMARK  status: ('A' for Active; 'I' for Inactive)
REMARK    1  A    between atoms: C4_6  and  C5_7 
REMARK    2  A    between atoms: C5_7  and  C6_8 
REMARK    3  A    between atoms: C5_7  and  C12_16 
ROOT
HETATM    1  C12   D T 441       0.036   8.913  -6.767  1.00 19.85     0.021 A 
HETATM    2  C13   D T 441      -1.293   8.789  -6.268  1.00 19.83    -0.000 A 
HETATM    3  C14   D T 441      -1.882   9.820  -5.485  1.00 20.16     0.016 A 
HETATM    4  C15   D T 441       0.753  10.105  -6.497  1.00 20.41    -0.000 A 
HETATM    5  C16   D T 441       0.179  11.127  -5.723  1.00 20.73     0.017 A 
HETATM    6  C17   D T 441      -1.125  10.992  -5.204  1.00 21.09     0.062 A 
HETATM    7  N4    D T 441      -1.672  11.998  -4.344  1.00 20.91    -0.294 N 
HETATM    8  C18   D T 441      -0.906  13.242  -4.039  1.00 20.23     0.134 C 
HETATM    9  C19   D T 441      -2.953  11.826  -3.775  1.00 22.47     0.261 A 
HETATM   10  O1    D T 441      -3.404  12.667  -2.997  1.00 22.92    -0.267 OA
HETATM   11  C20   D T 441      -3.700  10.681  -4.069  1.00 22.04     0.061 A 
HETATM   12  C21   D T 441      -3.194   9.677  -4.923  1.00 20.64     0.006 A 
HETATM   13  C22   D T 441      -4.057   8.604  -5.271  1.00 21.65     0.001 A 
HETATM   14  C23   D T 441      -3.716   7.261  -4.988  1.00 20.99     0.011 A 
HETATM   15  C24   D T 441      -4.625   6.226  -5.299  1.00 22.35     0.058 A 
HETATM   16 CL2    D T 441      -4.218   4.544  -4.929  1.00 26.30    -0.082 Cl
HETATM   17  C25   D T 441      -5.868   6.520  -5.889  1.00 21.98     0.011 A 
HETATM   18  C26   D T 441      -6.211   7.851  -6.171  1.00 20.12     0.001 A 
HETATM   19  C27   D T 441      -5.311   8.887  -5.864  1.00 21.15     0.000 A 
ENDROOT
BRANCH   1  20
HETATM   20  C5    D T 441       0.720   7.795  -7.376  1.00 20.67     0.342 C 
HETATM   21  N3    D T 441       2.046   7.804  -6.726  1.00 22.80     0.629 N 
BRANCH  20  22
HETATM   22  C4    D T 441       0.161   6.497  -7.052  1.00 19.37     0.100 A 
HETATM   23  N1    D T 441      -0.916   5.993  -7.622  1.00 19.33    -0.308 N 
HETATM   24  C1    D T 441      -1.725   6.577  -8.724  1.00 19.43     0.132 C 
HETATM   25  C2    D T 441      -1.175   4.839  -7.010  1.00 17.45     0.178 A 
HETATM   26  N2    D T 441      -0.223   4.666  -6.056  1.00 18.66    -0.223 NA
HETATM   27  C3    D T 441       0.623   5.717  -6.083  1.00 16.78     0.116 A 
ENDBRANCH  20  22
BRANCH  20  28
HETATM   28  C6    D T 441       0.960   7.952  -8.779  1.00 20.70     0.021 A 
HETATM   29  C7    D T 441       0.357   9.021  -9.487  1.00 21.08    -0.001 A 
HETATM   30  C8    D T 441       0.628   9.223 -10.848  1.00 21.56     0.011 A 
HETATM   31  C9    D T 441       1.504   8.365 -11.526  1.00 22.96     0.058 A 
HETATM   32 CL1    D T 441       1.869   8.668 -13.242  1.00 26.89    -0.082 Cl
HETATM   33  C10   D T 441       2.112   7.291 -10.844  1.00 22.08     0.011 A 
HETATM   34  C11   D T 441       1.842   7.083  -9.472  1.00 21.58    -0.001 A 
ENDBRANCH  20  28
ENDBRANCH   1  20
TORSDOF 3
ENDMDL
MODEL 5
REMARK VINA RESULT:    -8.763      3.743      7.077
REMARK INTER + INTRA:         -10.436
REMARK INTER:                 -10.678
REMARK INTRA:                   0.242
REMARK UNBOUND:                -0.136
REMARK  3 active torsions:
REMARK  status: ('A' for Active; 'I' for Inactive)
REMARK    1  A    between atoms: C4_6  and  C5_7 
REMARK    2  A    between atoms: C5_7  and  C6_8 
REMARK    3  A    between atoms: C5_7  and  C12_16 
ROOT
HETATM    1  C12   D T 441      -0.426   6.340  -6.762  1.00 19.85     0.021 A 
HETATM    2  C13   D T 441      -1.850   6.325  -6.752  1.00 19.83    -0.000 A 
HETATM    3  C14   D T 441      -2.572   5.100  -6.705  1.00 20.16     0.016 A 
HETATM    4  C15   D T 441       0.266   5.105  -6.688  1.00 20.41    -0.000 A 
HETATM    5  C16   D T 441      -0.439   3.891  -6.643  1.00 20.73     0.017 A 
HETATM    6  C17   D T 441      -1.849   3.874  -6.664  1.00 21.09     0.062 A 
HETATM    7  N4    D T 441      -2.560   2.632  -6.706  1.00 20.91    -0.294 N 
HETATM    8  C18   D T 441      -1.830   1.331  -6.655  1.00 20.23     0.134 C 
HETATM    9  C19   D T 441      -3.970   2.623  -6.793  1.00 22.47     0.261 A 
HETATM   10  O1    D T 441      -4.579   1.557  -6.878  1.00 22.92    -0.267 OA
HETATM   11  C20   D T 441      -4.676   3.830  -6.815  1.00 22.04     0.061 A 
HETATM   12  C21   D T 441      -4.005   5.071  -6.762  1.00 20.64     0.006 A 
HETATM   13  C22   D T 441      -4.792   6.249  -6.666  1.00 21.65     0.001 A 
HETATM   14  C23   D T 441      -4.707   7.276  -7.635  1.00 20.99     0.011 A 
HETATM   15  C24   D T 441      -5.547   8.406  -7.535  1.00 22.35     0.058 A 
HETATM   16 CL2    D T 441      -5.465   9.686  -8.755  1.00 26.30    -0.082 Cl
HETATM   17  C25   D T 441      -6.469   8.521  -6.478  1.00 21.98     0.011 A 
HETATM   18  C26   D T 441      -6.558   7.504  -5.514  1.00 20.12     0.001 A 
HETATM   19  C27   D T 441      -5.724   6.376  -5.607  1.00 21.15     0.000 A 
ENDROOT
BRANCH   1  20
HETATM   20  C5    D T 441       0.313   7.554  -7.024  1.00 20.67     0.342 C 
HETATM   21  N3    D T 441       1.618   7.311  -6.376  1.00 22.80     0.629 N 
BRANCH  20  22
HETATM   22  C4    D T 441       0.633   7.777  -8.420  1.00 19.37     0.100 A 
HETATM   23  N1    D T 441      -0.231   8.215  -9.315  1.00 19.33    -0.308 N 
HETATM   24  C1    D T 441      -1.642   8.630  -9.096  1.00 19.43     0.132 C 
HETATM   25  C2    D T 441       0.392   8.207 -10.492  1.00 17.45     0.178 A 
HETATM   26  N2    D T 441       1.654   7.750 -10.278  1.00 18.66    -0.223 NA
HETATM   27  C3    D T 441       1.805   7.478  -8.965  1.00 16.78     0.116 A 
ENDBRANCH  20  22
BRANCH  20  28
HETATM   28  C6    D T 441      -0.235   8.719  -6.396  1.00 20.70     0.021 A 
HETATM   29  C7    D T 441      -1.578   8.714  -5.942  1.00 21.08    -0.001 A 
HETATM   30  C8    D T 441      -2.112   9.825  -5.274  1.00 21.56     0.011 A 
HETATM   31  C9    D T 441      -1.319  10.957  -5.045  1.00 22.96     0.058 A 
HETATM   32 CL1    D T 441      -2.005  12.337  -4.154  1.00 26.89    -0.082 Cl
HETATM   33  C10   D T 441       0.018  10.987  -5.492  1.00 22.08     0.011 A 
HETATM   34  C11   D T 441       0.561   9.870  -6.167  1.00 21.58    -0.001 A 
ENDBRANCH  20  28
ENDBRANCH   1  20
TORSDOF 3
ENDMDL
MODEL 6
REMARK VINA RESULT:    -8.476      2.680      4.610
REMARK INTER + INTRA:         -10.098
REMARK INTER:                  -9.972
REMARK INTRA:                  -0.127
REMARK UNBOUND:                -0.136
REMARK  3 active torsions:
REMARK  status: ('A' for Active; 'I' for Inactive)
REMARK    1  A    between atoms: C4_6  and  C5_7 
REMARK    2  A    between atoms: C5_7  and  C6_8 
REMARK    3  A    between atoms: C5_7  and  C12_16 
ROOT
HETATM    1  C12   D T 441      -2.950   8.272  -6.055  1.00 19.85     0.021 A 
HETATM    2  C13   D T 441      -1.784   9.088  -5.993  1.00 19.83    -0.000 A 
HETATM    3  C14   D T 441      -1.752  10.265  -5.195  1.00 20.16     0.016 A 
HETATM    4  C15   D T 441      -4.074   8.637  -5.272  1.00 20.41    -0.000 A 
HETATM    5  C16   D T 441      -4.052   9.798  -4.483  1.00 20.73     0.017 A 
HETATM    6  C17   D T 441      -2.908  10.623  -4.445  1.00 21.09     0.062 A 
HETATM    7  N4    D T 441      -2.921  11.850  -3.708  1.00 20.91    -0.294 N 
HETATM    8  C18   D T 441      -4.115  12.246  -2.904  1.00 20.23     0.134 C 
HETATM    9  C19   D T 441      -1.796  12.702  -3.727  1.00 22.47     0.261 A 
HETATM   10  O1    D T 441      -1.824  13.780  -3.133  1.00 22.92    -0.267 OA
HETATM   11  C20   D T 441      -0.656  12.338  -4.451  1.00 22.04     0.061 A 
HETATM   12  C21   D T 441      -0.607  11.129  -5.178  1.00 20.64     0.006 A 
HETATM   13  C22   D T 441       0.624  10.770  -5.788  1.00 21.65     0.001 A 
HETATM   14  C23   D T 441       0.723  10.553  -7.182  1.00 20.99     0.011 A 
HETATM   15  C24   D T 441       1.977  10.252  -7.758  1.00 22.35     0.058 A 
HETATM   16 CL2    D T 441       2.116  10.003  -9.504  1.00 26.30    -0.082 Cl
HETATM   17  C25   D T 441       3.130  10.164  -6.956  1.00 21.98     0.011 A 
HETATM   18  C26   D T 441       3.037  10.378  -5.572  1.00 20.12     0.001 A 
HETATM   19  C27   D T 441       1.792  10.678  -4.991  1.00 21.15     0.000 A 
ENDROOT
BRANCH   1  20
HETATM   20  C5    D T 441      -3.072   7.202  -7.019  1.00 20.67     0.342 C 
HETATM   21  N3    D T 441      -4.399   7.432  -7.625  1.00 22.80     0.629 N 
BRANCH  20  22
HETATM   22  C4    D T 441      -2.142   7.281  -8.128  1.00 19.37     0.100 A 
HETATM   23  N1    D T 441      -0.863   6.970  -8.044  1.00 19.33    -0.308 N 
HETATM   24  C1    D T 441      -0.131   6.424  -6.871  1.00 19.43     0.132 C 
HETATM   25  C2    D T 441      -0.317   7.252  -9.225  1.00 17.45     0.178 A 
HETATM   26  N2    D T 441      -1.304   7.743 -10.020  1.00 18.66    -0.223 NA
HETATM   27  C3    D T 441      -2.460   7.761  -9.323  1.00 16.78     0.116 A 
ENDBRANCH  20  22
BRANCH  20  28
HETATM   28  C6    D T 441      -3.119   5.894  -6.436  1.00 20.70     0.021 A 
HETATM   29  C7    D T 441      -3.444   4.772  -7.239  1.00 21.08    -0.001 A 
HETATM   30  C8    D T 441      -3.438   3.479  -6.699  1.00 21.56     0.011 A 
HETATM   31  C9    D T 441      -3.107   3.280  -5.351  1.00 22.96     0.058 A 
HETATM   32 CL1    D T 441      -3.062   1.625  -4.698  1.00 26.89    -0.082 Cl
HETATM   33  C10   D T 441      -2.786   4.382  -4.532  1.00 22.08     0.011 A 
HETATM   34  C11   D T 441      -2.791   5.688  -5.072  1.00 21.58    -0.001 A 
ENDBRANCH  20  28
ENDBRANCH   1  20
TORSDOF 3
ENDMDL
MODEL 7
REMARK VINA RESULT:    -8.431      2.976      5.700
REMARK INTER + INTRA:         -10.045
REMARK INTER:                 -10.140
REMARK INTRA:                   0.095
REMARK UNBOUND:                -0.136
REMARK  3 active torsions:
REMARK  status: ('A' for Active; 'I' for Inactive)
REMARK    1  A    between atoms: C4_6  and  C5_7 
REMARK    2  A    between atoms: C5_7  and  C6_8 
REMARK    3  A    between atoms: C5_7  and  C12_16 
ROOT
HETATM    1  C12   D T 441      -0.538   9.374  -7.714  1.00 19.85     0.021 A 
HETATM    2  C13   D T 441      -1.677   9.042  -6.925  1.00 19.83    -0.000 A 
HETATM    3  C14   D T 441      -2.189   9.949  -5.957  1.00 20.16     0.016 A 
HETATM    4  C15   D T 441       0.058  10.648  -7.541  1.00 20.41    -0.000 A 
HETATM    5  C16   D T 441      -0.440  11.549  -6.585  1.00 20.73     0.017 A 
HETATM    6  C17   D T 441      -1.549  11.208  -5.782  1.00 21.09     0.062 A 
HETATM    7  N4    D T 441      -1.998  12.094  -4.751  1.00 20.91    -0.294 N 
HETATM    8  C18   D T 441      -1.353  13.425  -4.552  1.00 20.23     0.134 C 
HETATM    9  C19   D T 441      -3.068  11.719  -3.909  1.00 22.47     0.261 A 
HETATM   10  O1    D T 441      -3.423  12.458  -2.991  1.00 22.92    -0.267 OA
HETATM   11  C20   D T 441      -3.705  10.488  -4.095  1.00 22.04     0.061 A 
HETATM   12  C21   D T 441      -3.293   9.598  -5.111  1.00 20.64     0.006 A 
HETATM   13  C22   D T 441      -4.065   8.423  -5.317  1.00 21.65     0.001 A 
HETATM   14  C23   D T 441      -3.490   7.135  -5.217  1.00 20.99     0.011 A 
HETATM   15  C24   D T 441      -4.302   5.990  -5.373  1.00 22.35     0.058 A 
HETATM   16 CL2    D T 441      -3.598   4.373  -5.225  1.00 26.30    -0.082 Cl
HETATM   17  C25   D T 441      -5.679   6.120  -5.631  1.00 21.98     0.011 A 
HETATM   18  C26   D T 441      -6.254   7.396  -5.732  1.00 20.12     0.001 A 
HETATM   19  C27   D T 441      -5.452   8.541  -5.577  1.00 21.15     0.000 A 
ENDROOT
BRANCH   1  20
HETATM   20  C5    D T 441       0.119   8.389  -8.543  1.00 20.67     0.342 C 
HETATM   21  N3    D T 441      -0.614   8.470  -9.823  1.00 22.80     0.629 N 
BRANCH  20  22
HETATM   22  C4    D T 441       1.491   8.706  -8.884  1.00 19.37     0.100 A 
HETATM   23  N1    D T 441       2.480   8.747  -8.012  1.00 19.33    -0.308 N 
HETATM   24  C1    D T 441       2.432   8.423  -6.562  1.00 19.43     0.132 C 
HETATM   25  C2    D T 441       3.561   9.158  -8.671  1.00 17.45     0.178 A 
HETATM   26  N2    D T 441       3.194   9.363  -9.963  1.00 18.66    -0.223 NA
HETATM   27  C3    D T 441       1.882   9.076 -10.097  1.00 16.78     0.116 A 
ENDBRANCH  20  22
BRANCH  20  28
HETATM   28  C6    D T 441      -0.033   7.042  -8.080  1.00 20.70     0.021 A 
HETATM   29  C7    D T 441       0.020   5.965  -9.000  1.00 21.08    -0.001 A 
HETATM   30  C8    D T 441      -0.068   4.638  -8.557  1.00 21.56     0.011 A 
HETATM   31  C9    D T 441      -0.208   4.360  -7.190  1.00 22.96     0.058 A 
HETATM   32 CL1    D T 441      -0.273   2.667  -6.646  1.00 26.89    -0.082 Cl
HETATM   33  C10   D T 441      -0.269   5.415  -6.256  1.00 22.08     0.011 A 
HETATM   34  C11   D T 441      -0.181   6.755  -6.698  1.00 21.58    -0.001 A 
ENDBRANCH  20  28
ENDBRANCH   1  20
TORSDOF 3
ENDMDL
MODEL 8
REMARK VINA RESULT:    -8.340      2.749      4.408
REMARK INTER + INTRA:          -9.938
REMARK INTER:                  -9.684
REMARK INTRA:                  -0.254
REMARK UNBOUND:                -0.136
REMARK  3 active torsions:
REMARK  status: ('A' for Active; 'I' for Inactive)
REMARK    1  A    between atoms: C4_6  and  C5_7 
REMARK    2  A    between atoms: C5_7  and  C6_8 
REMARK    3  A    between atoms: C5_7  and  C12_16 
ROOT
HETATM    1  C12   D T 441      -3.304   9.083  -5.222  1.00 19.85     0.021 A 
HETATM    2  C13   D T 441      -2.019   9.658  -5.442  1.00 19.83    -0.000 A 
HETATM    3  C14   D T 441      -1.681  10.930  -4.904  1.00 20.16     0.016 A 
HETATM    4  C15   D T 441      -4.234   9.790  -4.420  1.00 20.41    -0.000 A 
HETATM    5  C16   D T 441      -3.910  11.048  -3.886  1.00 20.73     0.017 A 
HETATM    6  C17   D T 441      -2.648  11.631  -4.130  1.00 21.09     0.062 A 
HETATM    7  N4    D T 441      -2.355  12.950  -3.656  1.00 20.91    -0.294 N 
HETATM    8  C18   D T 441      -3.345  13.705  -2.833  1.00 20.23     0.134 C 
HETATM    9  C19   D T 441      -1.114  13.553  -3.958  1.00 22.47     0.261 A 
HETATM   10  O1    D T 441      -0.880  14.705  -3.593  1.00 22.92    -0.267 OA
HETATM   11  C20   D T 441      -0.161  12.854  -4.704  1.00 22.04     0.061 A 
HETATM   12  C21   D T 441      -0.416  11.547  -5.175  1.00 20.64     0.006 A 
HETATM   13  C22   D T 441       0.644  10.855  -5.820  1.00 21.65     0.001 A 
HETATM   14  C23   D T 441       0.516  10.378  -7.145  1.00 20.99     0.011 A 
HETATM   15  C24   D T 441       1.611   9.744  -7.772  1.00 22.35     0.058 A 
HETATM   16 CL2    D T 441       1.470   9.164  -9.437  1.00 26.30    -0.082 Cl
HETATM   17  C25   D T 441       2.831   9.581  -7.087  1.00 21.98     0.011 A 
HETATM   18  C26   D T 441       2.962  10.054  -5.773  1.00 20.12     0.001 A 
HETATM   19  C27   D T 441       1.876  10.686  -5.142  1.00 21.15     0.000 A 
ENDROOT
BRANCH   1  20
HETATM   20  C5    D T 441      -3.733   7.901  -5.934  1.00 20.67     0.342 C 
HETATM   21  N3    D T 441      -4.229   7.013  -4.863  1.00 22.80     0.629 N 
BRANCH  20  22
HETATM   22  C4    D T 441      -4.876   8.102  -6.803  1.00 19.37     0.100 A 
HETATM   23  N1    D T 441      -5.678   7.135  -7.206  1.00 19.33    -0.308 N 
HETATM   24  C1    D T 441      -5.641   5.699  -6.822  1.00 19.43     0.132 C 
HETATM   25  C2    D T 441      -6.546   7.679  -8.055  1.00 17.45     0.178 A 
HETATM   26  N2    D T 441      -6.242   9.001  -8.153  1.00 18.66    -0.223 NA
HETATM   27  C3    D T 441      -5.184   9.267  -7.359  1.00 16.78     0.116 A 
ENDBRANCH  20  22
BRANCH  20  28
HETATM   28  C6    D T 441      -2.671   7.192  -6.583  1.00 20.70     0.021 A 
HETATM   29  C7    D T 441      -2.058   6.089  -5.938  1.00 21.08    -0.001 A 
HETATM   30  C8    D T 441      -1.057   5.348  -6.583  1.00 21.56     0.011 A 
HETATM   31  C9    D T 441      -0.651   5.692  -7.879  1.00 22.96     0.058 A 
HETATM   32 CL1    D T 441       0.589   4.709  -8.695  1.00 26.89    -0.082 Cl
HETATM   33  C10   D T 441      -1.243   6.789  -8.539  1.00 22.08     0.011 A 
HETATM   34  C11   D T 441      -2.252   7.539  -7.893  1.00 21.58    -0.001 A 
ENDBRANCH  20  28
ENDBRANCH   1  20
TORSDOF 3
ENDMDL
MODEL 9
REMARK VINA RESULT:    -8.305      3.234      8.282
REMARK INTER + INTRA:          -9.897
REMARK INTER:                  -9.883
REMARK INTRA:                  -0.015
REMARK UNBOUND:                -0.136
REMARK  3 active torsions:
REMARK  status: ('A' for Active; 'I' for Inactive)
REMARK    1  A    between atoms: C4_6  and  C5_7 
REMARK    2  A    between atoms: C5_7  and  C6_8 
REMARK    3  A    between atoms: C5_7  and  C12_16 
ROOT
HETATM    1  C12   D T 441      -4.660  10.144  -6.722  1.00 19.85     0.021 A 
HETATM    2  C13   D T 441      -4.877   8.737  -6.694  1.00 19.83    -0.000 A 
HETATM    3  C14   D T 441      -6.005   8.154  -7.336  1.00 20.16     0.016 A 
HETATM    4  C15   D T 441      -5.576  10.957  -7.437  1.00 20.41    -0.000 A 
HETATM    5  C16   D T 441      -6.693  10.390  -8.072  1.00 20.73     0.017 A 
HETATM    6  C17   D T 441      -6.924   8.999  -8.018  1.00 21.09     0.062 A 
HETATM    7  N4    D T 441      -8.109   8.438  -8.593  1.00 20.91    -0.294 N 
HETATM    8  C18   D T 441      -9.087   9.298  -9.323  1.00 20.23     0.134 C 
HETATM    9  C19   D T 441      -8.367   7.054  -8.479  1.00 22.47     0.261 A 
HETATM   10  O1    D T 441      -9.409   6.578  -8.930  1.00 22.92    -0.267 OA
HETATM   11  C20   D T 441      -7.452   6.225  -7.823  1.00 22.04     0.061 A 
HETATM   12  C21   D T 441      -6.268   6.746  -7.257  1.00 20.64     0.006 A 
HETATM   13  C22   D T 441      -5.331   5.827  -6.715  1.00 21.65     0.001 A 
HETATM   14  C23   D T 441      -4.926   5.897  -5.361  1.00 20.99     0.011 A 
HETATM   15  C24   D T 441      -4.035   4.931  -4.845  1.00 22.35     0.058 A 
HETATM   16 CL2    D T 441      -3.541   4.994  -3.146  1.00 26.30    -0.082 Cl
HETATM   17  C25   D T 441      -3.543   3.899  -5.667  1.00 21.98     0.011 A 
HETATM   18  C26   D T 441      -3.942   3.827  -7.010  1.00 20.12     0.001 A 
HETATM   19  C27   D T 441      -4.829   4.785  -7.532  1.00 21.15     0.000 A 
ENDROOT
BRANCH   1  20
HETATM   20  C5    D T 441      -3.647  10.768  -5.902  1.00 20.67     0.342 C 
HETATM   21  N3    D T 441      -3.220   9.682  -4.995  1.00 22.80     0.629 N 
BRANCH  20  22
HETATM   22  C4    D T 441      -2.443  11.147  -6.614  1.00 19.37     0.100 A 
HETATM   23  N1    D T 441      -1.341  11.573  -6.028  1.00 19.33    -0.308 N 
HETATM   24  C1    D T 441      -1.066  11.689  -4.572  1.00 19.43     0.132 C 
HETATM   25  C2    D T 441      -0.492  11.909  -6.997  1.00 17.45     0.178 A 
HETATM   26  N2    D T 441      -1.116  11.674  -8.181  1.00 18.66    -0.223 NA
HETATM   27  C3    D T 441      -2.353  11.191  -7.937  1.00 16.78     0.116 A 
ENDBRANCH  20  22
BRANCH  20  28
HETATM   28  C6    D T 441      -4.140  11.819  -5.062  1.00 20.70     0.021 A 
HETATM   29  C7    D T 441      -4.522  11.539  -3.726  1.00 21.08    -0.001 A 
HETATM   30  C8    D T 441      -4.951  12.567  -2.874  1.00 21.56     0.011 A 
HETATM   31  C9    D T 441      -5.006  13.888  -3.336  1.00 22.96     0.058 A 
HETATM   32 CL1    D T 441      -5.510  15.182  -2.224  1.00 26.89    -0.082 Cl
HETATM   33  C10   D T 441      -4.636  14.190  -4.664  1.00 22.08     0.011 A 
HETATM   34  C11   D T 441      -4.203  13.158  -5.527  1.00 21.58    -0.001 A 
ENDBRANCH  20  28
ENDBRANCH   1  20
TORSDOF 3
ENDMDL
