MODEL 1
REMARK VINA RESULT:    -6.771      0.000      0.000
REMARK INTER + INTRA:          -8.341
REMARK INTER:                  -7.959
REMARK INTRA:                  -0.382
REMARK UNBOUND:                -0.382
REMARK  3 active torsions:
REMARK  status: ('A' for Active; 'I' for Inactive)
REMARK    1  A    between atoms: C4_6  and  C5_7 
REMARK    2  A    between atoms: C5_7  and  C6_8 
REMARK    3  A    between atoms: C5_7  and  C12_16 
ROOT
HETATM    1  C12   D T 441     -20.220   5.512  36.301  1.00 19.85     0.021 A 
HETATM    2  C13   D T 441     -18.919   4.935  36.377  1.00 19.83    -0.000 A 
HETATM    3  C14   D T 441     -18.683   3.748  37.123  1.00 20.16     0.016 A 
HETATM    4  C15   D T 441     -21.291   4.852  36.958  1.00 20.41    -0.000 A 
HETATM    5  C16   D T 441     -21.067   3.681  37.698  1.00 20.73     0.017 A 
HETATM    6  C17   D T 441     -19.772   3.129  37.798  1.00 21.09     0.062 A 
HETATM    7  N4    D T 441     -19.534   1.983  38.624  1.00 20.91    -0.294 N 
HETATM    8  C18   D T 441     -20.657   1.307  39.335  1.00 20.23     0.134 C 
HETATM    9  C19   D T 441     -18.224   1.475  38.771  1.00 22.47     0.261 A 
HETATM   10  O1    D T 441     -18.011   0.521  39.519  1.00 22.92    -0.267 OA
HETATM   11  C20   D T 441     -17.160   2.076  38.092  1.00 22.04     0.061 A 
HETATM   12  C21   D T 441     -17.365   3.199  37.259  1.00 20.64     0.006 A 
HETATM   13  C22   D T 441     -16.260   3.679  36.509  1.00 21.65     0.001 A 
HETATM   14  C23   D T 441     -15.795   5.007  36.647  1.00 20.99     0.011 A 
HETATM   15  C24   D T 441     -14.658   5.432  35.924  1.00 22.35     0.058 A 
HETATM   16 CL2    D T 441     -14.052   7.084  36.108  1.00 26.30    -0.082 Cl
HETATM   17  C25   D T 441     -13.984   4.543  35.065  1.00 21.98     0.011 A 
HETATM   18  C26   D T 441     -14.442   3.224  34.925  1.00 20.12     0.001 A 
HETATM   19  C27   D T 441     -15.574   2.795  35.641  1.00 21.15     0.000 A 
ENDROOT
BRANCH   1  20
HETATM   20  C5    D T 441     -20.434   6.822  35.732  1.00 20.67     0.342 C 
HETATM   21  N3    D T 441     -21.803   6.741  35.181  1.00 22.80     0.629 N 
BRANCH  20  22
HETATM   22  C4    D T 441     -20.489   7.899  36.700  1.00 19.37     0.100 A 
HETATM   23  N1    D T 441     -20.962   9.103  36.440  1.00 19.33    -0.308 N 
HETATM   24  C1    D T 441     -21.584   9.587  35.180  1.00 19.43     0.132 C 
HETATM   25  C2    D T 441     -20.768   9.841  37.532  1.00 17.45     0.178 A 
HETATM   26  N2    D T 441     -20.164   9.044  38.454  1.00 18.66    -0.223 NA
HETATM   27  C3    D T 441     -19.987   7.815  37.925  1.00 16.78     0.116 A 
ENDBRANCH  20  22
BRANCH  20  28
HETATM   28  C6    D T 441     -19.576   7.124  34.625  1.00 20.70     0.021 A 
HETATM   29  C7    D T 441     -18.295   7.689  34.856  1.00 21.08    -0.001 A 
HETATM   30  C8    D T 441     -17.420   7.937  33.790  1.00 21.56     0.011 A 
HETATM   31  C9    D T 441     -17.803   7.630  32.477  1.00 22.96     0.058 A 
HETATM   32 CL1    D T 441     -16.658   7.910  31.144  1.00 26.89    -0.082 Cl
HETATM   33  C10   D T 441     -19.073   7.071  32.224  1.00 22.08     0.011 A 
HETATM   34  C11   D T 441     -19.960   6.819  33.295  1.00 21.58    -0.001 A 
ENDBRANCH  20  28
ENDBRANCH   1  20
TORSDOF 3
ENDMDL
MODEL 2
REMARK VINA RESULT:    -6.727      1.539      2.163
REMARK INTER + INTRA:          -8.289
REMARK INTER:                  -7.929
REMARK INTRA:                  -0.361
REMARK UNBOUND:                -0.382
REMARK  3 active torsions:
REMARK  status: ('A' for Active; 'I' for Inactive)
REMARK    1  A    between atoms: C4_6  and  C5_7 
REMARK    2  A    between atoms: C5_7  and  C6_8 
REMARK    3  A    between atoms: C5_7  and  C12_16 
ROOT
HETATM    1  C12   D T 441     -18.846   6.000  35.747  1.00 19.85     0.021 A 
HETATM    2  C13   D T 441     -17.456   5.690  35.704  1.00 19.83    -0.000 A 
HETATM    3  C14   D T 441     -16.881   4.764  36.617  1.00 20.16     0.016 A 
HETATM    4  C15   D T 441     -19.659   5.335  36.700  1.00 20.41    -0.000 A 
HETATM    5  C16   D T 441     -19.099   4.421  37.607  1.00 20.73     0.017 A 
HETATM    6  C17   D T 441     -17.717   4.138  37.584  1.00 21.09     0.062 A 
HETATM    7  N4    D T 441     -17.137   3.271  38.566  1.00 20.91    -0.294 N 
HETATM    8  C18   D T 441     -17.990   2.593  39.585  1.00 20.23     0.134 C 
HETATM    9  C19   D T 441     -15.743   3.043  38.576  1.00 22.47     0.261 A 
HETATM   10  O1    D T 441     -15.238   2.339  39.450  1.00 22.92    -0.267 OA
HETATM   11  C20   D T 441     -14.928   3.648  37.614  1.00 22.04     0.061 A 
HETATM   12  C21   D T 441     -15.472   4.497  36.625  1.00 20.64     0.006 A 
HETATM   13  C22   D T 441     -14.602   4.975  35.611  1.00 21.65     0.001 A 
HETATM   14  C23   D T 441     -14.407   6.359  35.396  1.00 20.99     0.011 A 
HETATM   15  C24   D T 441     -13.491   6.796  34.414  1.00 22.35     0.058 A 
HETATM   16 CL2    D T 441     -13.220   8.525  34.156  1.00 26.30    -0.082 Cl
HETATM   17  C25   D T 441     -12.770   5.863  33.644  1.00 21.98     0.011 A 
HETATM   18  C26   D T 441     -12.961   4.489  33.852  1.00 20.12     0.001 A 
HETATM   19  C27   D T 441     -13.871   4.047  34.828  1.00 21.15     0.000 A 
ENDROOT
BRANCH   1  20
HETATM   20  C5    D T 441     -19.401   7.088  34.975  1.00 20.67     0.342 C 
HETATM   21  N3    D T 441     -20.721   6.575  34.552  1.00 22.80     0.629 N 
BRANCH  20  22
HETATM   22  C4    D T 441     -19.698   8.282  35.741  1.00 19.37     0.100 A 
HETATM   23  N1    D T 441     -20.502   9.244  35.329  1.00 19.33    -0.308 N 
HETATM   24  C1    D T 441     -21.306   9.289  34.081  1.00 19.43     0.132 C 
HETATM   25  C2    D T 441     -20.458  10.207  36.249  1.00 17.45     0.178 A 
HETATM   26  N2    D T 441     -19.603   9.795  37.223  1.00 18.66    -0.223 NA
HETATM   27  C3    D T 441     -19.121   8.576  36.899  1.00 16.78     0.116 A 
ENDBRANCH  20  22
BRANCH  20  28
HETATM   28  C6    D T 441     -18.681   7.376  33.770  1.00 20.70     0.021 A 
HETATM   29  C7    D T 441     -19.059   6.753  32.553  1.00 21.08    -0.001 A 
HETATM   30  C8    D T 441     -18.403   7.068  31.355  1.00 21.56     0.011 A 
HETATM   31  C9    D T 441     -17.361   8.005  31.346  1.00 22.96     0.058 A 
HETATM   32 CL1    D T 441     -16.575   8.423  29.806  1.00 26.89    -0.082 Cl
HETATM   33  C10   D T 441     -16.967   8.634  32.545  1.00 22.08     0.011 A 
HETATM   34  C11   D T 441     -17.624   8.320  33.757  1.00 21.58    -0.001 A 
ENDBRANCH  20  28
ENDBRANCH   1  20
TORSDOF 3
ENDMDL
MODEL 3
REMARK VINA RESULT:    -6.490     12.595     14.337
REMARK INTER + INTRA:          -8.011
REMARK INTER:                  -8.008
REMARK INTRA:                  -0.004
REMARK UNBOUND:                -0.382
REMARK  3 active torsions:
REMARK  status: ('A' for Active; 'I' for Inactive)
REMARK    1  A    between atoms: C4_6  and  C5_7 
REMARK    2  A    between atoms: C5_7  and  C6_8 
REMARK    3  A    between atoms: C5_7  and  C12_16 
ROOT
HETATM    1  C12   D T 441     -28.171   4.837  26.755  1.00 19.85     0.021 A 
HETATM    2  C13   D T 441     -28.551   3.913  27.772  1.00 19.83    -0.000 A 
HETATM    3  C14   D T 441     -29.103   4.361  29.003  1.00 20.16     0.016 A 
HETATM    4  C15   D T 441     -28.392   6.220  26.981  1.00 20.41    -0.000 A 
HETATM    5  C16   D T 441     -28.935   6.671  28.194  1.00 20.73     0.017 A 
HETATM    6  C17   D T 441     -29.281   5.757  29.213  1.00 21.09     0.062 A 
HETATM    7  N4    D T 441     -29.754   6.229  30.480  1.00 20.91    -0.294 N 
HETATM    8  C18   D T 441     -29.960   7.686  30.725  1.00 20.23     0.134 C 
HETATM    9  C19   D T 441     -30.038   5.312  31.517  1.00 22.47     0.261 A 
HETATM   10  O1    D T 441     -30.397   5.719  32.621  1.00 22.92    -0.267 OA
HETATM   11  C20   D T 441     -29.878   3.940  31.300  1.00 22.04     0.061 A 
HETATM   12  C21   D T 441     -29.426   3.444  30.057  1.00 20.64     0.006 A 
HETATM   13  C22   D T 441     -29.405   2.037  29.873  1.00 21.65     0.001 A 
HETATM   14  C23   D T 441     -28.210   1.352  29.550  1.00 20.99     0.011 A 
HETATM   15  C24   D T 441     -28.218  -0.055  29.429  1.00 22.35     0.058 A 
HETATM   16 CL2    D T 441     -26.725  -0.924  29.050  1.00 26.30    -0.082 Cl
HETATM   17  C25   D T 441     -29.407  -0.783  29.627  1.00 21.98     0.011 A 
HETATM   18  C26   D T 441     -30.595  -0.108  29.947  1.00 20.12     0.001 A 
HETATM   19  C27   D T 441     -30.594   1.293  30.068  1.00 21.15     0.000 A 
ENDROOT
BRANCH   1  20
HETATM   20  C5    D T 441     -27.417   4.417  25.597  1.00 20.67     0.342 C 
HETATM   21  N3    D T 441     -26.203   3.806  26.176  1.00 22.80     0.629 N 
BRANCH  20  22
HETATM   22  C4    D T 441     -28.034   3.354  24.829  1.00 19.37     0.100 A 
HETATM   23  N1    D T 441     -29.303   3.343  24.467  1.00 19.33    -0.308 N 
HETATM   24  C1    D T 441     -30.325   4.399  24.690  1.00 19.43     0.132 C 
HETATM   25  C2    D T 441     -29.525   2.178  23.861  1.00 17.45     0.178 A 
HETATM   26  N2    D T 441     -28.351   1.490  23.869  1.00 18.66    -0.223 NA
HETATM   27  C3    D T 441     -27.408   2.236  24.483  1.00 16.78     0.116 A 
ENDBRANCH  20  22
BRANCH  20  28
HETATM   28  C6    D T 441     -26.966   5.497  24.771  1.00 20.70     0.021 A 
HETATM   29  C7    D T 441     -25.773   6.189  25.101  1.00 21.08    -0.001 A 
HETATM   30  C8    D T 441     -25.285   7.209  24.273  1.00 21.56     0.011 A 
HETATM   31  C9    D T 441     -25.974   7.559  23.104  1.00 22.96     0.058 A 
HETATM   32 CL1    D T 441     -25.312   8.825  22.043  1.00 26.89    -0.082 Cl
HETATM   33  C10   D T 441     -27.165   6.886  22.758  1.00 22.08     0.011 A 
HETATM   34  C11   D T 441     -27.662   5.857  23.590  1.00 21.58    -0.001 A 
ENDBRANCH  20  28
ENDBRANCH   1  20
TORSDOF 3
ENDMDL
MODEL 4
REMARK VINA RESULT:    -6.284      3.069      5.490
REMARK INTER + INTRA:          -7.769
REMARK INTER:                  -7.611
REMARK INTRA:                  -0.158
REMARK UNBOUND:                -0.382
REMARK  3 active torsions:
REMARK  status: ('A' for Active; 'I' for Inactive)
REMARK    1  A    between atoms: C4_6  and  C5_7 
REMARK    2  A    between atoms: C5_7  and  C6_8 
REMARK    3  A    between atoms: C5_7  and  C12_16 
ROOT
HETATM    1  C12   D T 441     -17.561   7.409  34.821  1.00 19.85     0.021 A 
HETATM    2  C13   D T 441     -18.286   6.448  35.582  1.00 19.83    -0.000 A 
HETATM    3  C14   D T 441     -17.677   5.235  36.007  1.00 20.16     0.016 A 
HETATM    4  C15   D T 441     -16.198   7.150  34.525  1.00 20.41    -0.000 A 
HETATM    5  C16   D T 441     -15.589   5.955  34.939  1.00 20.73     0.017 A 
HETATM    6  C17   D T 441     -16.318   4.989  35.666  1.00 21.09     0.062 A 
HETATM    7  N4    D T 441     -15.717   3.735  36.011  1.00 20.91    -0.294 N 
HETATM    8  C18   D T 441     -14.291   3.453  35.676  1.00 20.23     0.134 C 
HETATM    9  C19   D T 441     -16.472   2.748  36.682  1.00 22.47     0.261 A 
HETATM   10  O1    D T 441     -15.972   1.652  36.935  1.00 22.92    -0.267 OA
HETATM   11  C20   D T 441     -17.802   3.001  37.030  1.00 22.04     0.061 A 
HETATM   12  C21   D T 441     -18.419   4.232  36.715  1.00 20.64     0.006 A 
HETATM   13  C22   D T 441     -19.730   4.463  37.207  1.00 21.65     0.001 A 
HETATM   14  C23   D T 441     -20.808   4.741  36.335  1.00 20.99     0.011 A 
HETATM   15  C24   D T 441     -22.109   4.909  36.857  1.00 22.35     0.058 A 
HETATM   16 CL2    D T 441     -23.469   5.232  35.773  1.00 26.30    -0.082 Cl
HETATM   17  C25   D T 441     -22.342   4.804  38.242  1.00 21.98     0.011 A 
HETATM   18  C26   D T 441     -21.276   4.529  39.112  1.00 20.12     0.001 A 
HETATM   19  C27   D T 441     -19.978   4.360  38.598  1.00 21.15     0.000 A 
ENDROOT
BRANCH   1  20
HETATM   20  C5    D T 441     -18.220   8.537  34.203  1.00 20.67     0.342 C 
HETATM   21  N3    D T 441     -17.705   9.697  34.961  1.00 22.80     0.629 N 
BRANCH  20  22
HETATM   22  C4    D T 441     -17.826   8.789  32.832  1.00 19.37     0.100 A 
HETATM   23  N1    D T 441     -17.822   7.872  31.883  1.00 19.33    -0.308 N 
HETATM   24  C1    D T 441     -18.268   6.458  31.978  1.00 19.43     0.132 C 
HETATM   25  C2    D T 441     -17.319   8.446  30.790  1.00 17.45     0.178 A 
HETATM   26  N2    D T 441     -17.021   9.733  31.112  1.00 18.66    -0.223 NA
HETATM   27  C3    D T 441     -17.342   9.949  32.406  1.00 16.78     0.116 A 
ENDBRANCH  20  22
BRANCH  20  28
HETATM   28  C6    D T 441     -19.642   8.547  34.374  1.00 20.70     0.021 A 
HETATM   29  C7    D T 441     -20.203   8.928  35.620  1.00 21.08    -0.001 A 
HETATM   30  C8    D T 441     -21.592   9.000  35.787  1.00 21.56     0.011 A 
HETATM   31  C9    D T 441     -22.448   8.695  34.720  1.00 22.96     0.058 A 
HETATM   32 CL1    D T 441     -24.208   8.838  34.941  1.00 26.89    -0.082 Cl
HETATM   33  C10   D T 441     -21.912   8.310  33.473  1.00 22.08     0.011 A 
HETATM   34  C11   D T 441     -20.511   8.235  33.299  1.00 21.58    -0.001 A 
ENDBRANCH  20  28
ENDBRANCH   1  20
TORSDOF 3
ENDMDL
MODEL 5
REMARK VINA RESULT:    -6.160     12.541     14.770
REMARK INTER + INTRA:          -7.623
REMARK INTER:                  -7.302
REMARK INTRA:                  -0.321
REMARK UNBOUND:                -0.382
REMARK  3 active torsions:
REMARK  status: ('A' for Active; 'I' for Inactive)
REMARK    1  A    between atoms: C4_6  and  C5_7 
REMARK    2  A    between atoms: C5_7  and  C6_8 
REMARK    3  A    between atoms: C5_7  and  C12_16 
ROOT
HETATM    1  C12   D T 441     -28.982   5.991  25.688  1.00 19.85     0.021 A 
HETATM    2  C13   D T 441     -28.953   5.225  26.889  1.00 19.83    -0.000 A 
HETATM    3  C14   D T 441     -29.333   5.796  28.135  1.00 20.16     0.016 A 
HETATM    4  C15   D T 441     -29.437   7.332  25.752  1.00 20.41    -0.000 A 
HETATM    5  C16   D T 441     -29.812   7.905  26.978  1.00 20.73     0.017 A 
HETATM    6  C17   D T 441     -29.753   7.155  28.171  1.00 21.09     0.062 A 
HETATM    7  N4    D T 441     -30.054   7.769  29.430  1.00 20.91    -0.294 N 
HETATM    8  C18   D T 441     -30.507   9.189  29.498  1.00 20.23     0.134 C 
HETATM    9  C19   D T 441     -29.931   7.030  30.627  1.00 22.47     0.261 A 
HETATM   10  O1    D T 441     -30.141   7.571  31.712  1.00 22.92    -0.267 OA
HETATM   11  C20   D T 441     -29.534   5.690  30.585  1.00 22.04     0.061 A 
HETATM   12  C21   D T 441     -29.242   5.053  29.358  1.00 20.64     0.006 A 
HETATM   13  C22   D T 441     -28.965   3.662  29.384  1.00 21.65     0.001 A 
HETATM   14  C23   D T 441     -27.742   3.143  28.899  1.00 20.99     0.011 A 
HETATM   15  C24   D T 441     -27.480   1.758  28.992  1.00 22.35     0.058 A 
HETATM   16 CL2    D T 441     -25.943   1.102  28.412  1.00 26.30    -0.082 Cl
HETATM   17  C25   D T 441     -28.428   0.888  29.563  1.00 21.98     0.011 A 
HETATM   18  C26   D T 441     -29.644   1.397  30.044  1.00 20.12     0.001 A 
HETATM   19  C27   D T 441     -29.911   2.775  29.955  1.00 21.15     0.000 A 
ENDROOT
BRANCH   1  20
HETATM   20  C5    D T 441     -28.401   5.495  24.462  1.00 20.67     0.342 C 
HETATM   21  N3    D T 441     -29.382   5.886  23.429  1.00 22.80     0.629 N 
BRANCH  20  22
HETATM   22  C4    D T 441     -27.170   6.152  24.069  1.00 19.37     0.100 A 
HETATM   23  N1    D T 441     -26.630   6.053  22.869  1.00 19.33    -0.308 N 
HETATM   24  C1    D T 441     -27.168   5.340  21.682  1.00 19.43     0.132 C 
HETATM   25  C2    D T 441     -25.472   6.711  22.909  1.00 17.45     0.178 A 
HETATM   26  N2    D T 441     -25.334   7.208  24.168  1.00 18.66    -0.223 NA
HETATM   27  C3    D T 441     -26.410   6.852  24.901  1.00 16.78     0.116 A 
ENDBRANCH  20  22
BRANCH  20  28
HETATM   28  C6    D T 441     -28.302   4.067  24.398  1.00 20.70     0.021 A 
HETATM   29  C7    D T 441     -27.258   3.398  25.086  1.00 21.08    -0.001 A 
HETATM   30  C8    D T 441     -27.180   1.998  25.082  1.00 21.56     0.011 A 
HETATM   31  C9    D T 441     -28.139   1.241  24.395  1.00 22.96     0.058 A 
HETATM   32 CL1    D T 441     -28.048  -0.536  24.442  1.00 26.89    -0.082 Cl
HETATM   33  C10   D T 441     -29.184   1.886  23.701  1.00 22.08     0.011 A 
HETATM   34  C11   D T 441     -29.267   3.297  23.700  1.00 21.58    -0.001 A 
ENDBRANCH  20  28
ENDBRANCH   1  20
TORSDOF 3
ENDMDL
MODEL 6
REMARK VINA RESULT:    -6.132      2.584      3.994
REMARK INTER + INTRA:          -7.590
REMARK INTER:                  -7.810
REMARK INTRA:                   0.219
REMARK UNBOUND:                -0.382
REMARK  3 active torsions:
REMARK  status: ('A' for Active; 'I' for Inactive)
REMARK    1  A    between atoms: C4_6  and  C5_7 
REMARK    2  A    between atoms: C5_7  and  C6_8 
REMARK    3  A    between atoms: C5_7  and  C12_16 
ROOT
HETATM    1  C12   D T 441     -18.455   6.684  35.116  1.00 19.85     0.021 A 
HETATM    2  C13   D T 441     -17.141   6.140  35.197  1.00 19.83    -0.000 A 
HETATM    3  C14   D T 441     -16.858   5.021  36.027  1.00 20.16     0.016 A 
HETATM    4  C15   D T 441     -19.492   6.060  35.855  1.00 20.41    -0.000 A 
HETATM    5  C16   D T 441     -19.222   4.956  36.679  1.00 20.73     0.017 A 
HETATM    6  C17   D T 441     -17.913   4.438  36.782  1.00 21.09     0.062 A 
HETATM    7  N4    D T 441     -17.627   3.366  37.689  1.00 20.91    -0.294 N 
HETATM    8  C18   D T 441     -18.714   2.728  38.487  1.00 20.23     0.134 C 
HETATM    9  C19   D T 441     -16.303   2.895  37.835  1.00 22.47     0.261 A 
HETATM   10  O1    D T 441     -16.048   2.009  38.650  1.00 22.92    -0.267 OA
HETATM   11  C20   D T 441     -15.272   3.461  37.078  1.00 22.04     0.061 A 
HETATM   12  C21   D T 441     -15.525   4.509  36.166  1.00 20.64     0.006 A 
HETATM   13  C22   D T 441     -14.454   4.948  35.346  1.00 21.65     0.001 A 
HETATM   14  C23   D T 441     -14.012   6.292  35.363  1.00 20.99     0.011 A 
HETATM   15  C24   D T 441     -12.906   6.678  34.574  1.00 22.35     0.058 A 
HETATM   16 CL2    D T 441     -12.330   8.350  34.608  1.00 26.30    -0.082 Cl
HETATM   17  C25   D T 441     -12.239   5.736  33.768  1.00 21.98     0.011 A 
HETATM   18  C26   D T 441     -12.674   4.402  33.747  1.00 20.12     0.001 A 
HETATM   19  C27   D T 441     -13.774   4.010  34.530  1.00 21.15     0.000 A 
ENDROOT
BRANCH   1  20
HETATM   20  C5    D T 441     -18.713   7.940  34.451  1.00 20.67     0.342 C 
HETATM   21  N3    D T 441     -17.849   8.898  35.171  1.00 22.80     0.629 N 
BRANCH  20  22
HETATM   22  C4    D T 441     -18.261   7.998  33.075  1.00 19.37     0.100 A 
HETATM   23  N1    D T 441     -18.125   9.117  32.388  1.00 19.33    -0.308 N 
HETATM   24  C1    D T 441     -18.324  10.510  32.864  1.00 19.43     0.132 C 
HETATM   25  C2    D T 441     -17.781   8.772  31.149  1.00 17.45     0.178 A 
HETATM   26  N2    D T 441     -17.715   7.414  31.112  1.00 18.66    -0.223 NA
HETATM   27  C3    D T 441     -18.020   6.925  32.333  1.00 16.78     0.116 A 
ENDBRANCH  20  22
BRANCH  20  28
HETATM   28  C6    D T 441     -20.055   8.418  34.606  1.00 20.70     0.021 A 
HETATM   29  C7    D T 441     -21.072   7.971  33.724  1.00 21.08    -0.001 A 
HETATM   30  C8    D T 441     -22.401   8.383  33.897  1.00 21.56     0.011 A 
HETATM   31  C9    D T 441     -22.740   9.246  34.948  1.00 22.96     0.058 A 
HETATM   32 CL1    D T 441     -24.441   9.719  35.175  1.00 26.89    -0.082 Cl
HETATM   33  C10   D T 441     -21.744   9.706  35.834  1.00 22.08     0.011 A 
HETATM   34  C11   D T 441     -20.402   9.295  35.664  1.00 21.58    -0.001 A 
ENDBRANCH  20  28
ENDBRANCH   1  20
TORSDOF 3
ENDMDL
MODEL 7
REMARK VINA RESULT:    -6.117      3.158      5.944
REMARK INTER + INTRA:          -7.572
REMARK INTER:                  -7.310
REMARK INTRA:                  -0.262
REMARK UNBOUND:                -0.382
REMARK  3 active torsions:
REMARK  status: ('A' for Active; 'I' for Inactive)
REMARK    1  A    between atoms: C4_6  and  C5_7 
REMARK    2  A    between atoms: C5_7  and  C6_8 
REMARK    3  A    between atoms: C5_7  and  C12_16 
ROOT
HETATM    1  C12   D T 441     -19.450   6.663  36.373  1.00 19.85     0.021 A 
HETATM    2  C13   D T 441     -18.210   6.180  35.864  1.00 19.83    -0.000 A 
HETATM    3  C14   D T 441     -17.603   6.772  34.723  1.00 20.16     0.016 A 
HETATM    4  C15   D T 441     -20.053   7.779  35.738  1.00 20.41    -0.000 A 
HETATM    5  C16   D T 441     -19.462   8.368  34.610  1.00 20.73     0.017 A 
HETATM    6  C17   D T 441     -18.250   7.869  34.088  1.00 21.09     0.062 A 
HETATM    7  N4    D T 441     -17.696   8.419  32.886  1.00 20.91    -0.294 N 
HETATM    8  C18   D T 441     -18.347   9.576  32.205  1.00 20.23     0.134 C 
HETATM    9  C19   D T 441     -16.517   7.872  32.334  1.00 22.47     0.261 A 
HETATM   10  O1    D T 441     -16.068   8.311  31.276  1.00 22.92    -0.267 OA
HETATM   11  C20   D T 441     -15.876   6.805  32.971  1.00 22.04     0.061 A 
HETATM   12  C21   D T 441     -16.389   6.250  34.164  1.00 20.64     0.006 A 
HETATM   13  C22   D T 441     -15.620   5.253  34.816  1.00 21.65     0.001 A 
HETATM   14  C23   D T 441     -16.141   3.962  35.065  1.00 20.99     0.011 A 
HETATM   15  C24   D T 441     -15.325   2.978  35.667  1.00 22.35     0.058 A 
HETATM   16 CL2    D T 441     -15.959   1.353  35.960  1.00 26.30    -0.082 Cl
HETATM   17  C25   D T 441     -13.996   3.274  36.025  1.00 21.98     0.011 A 
HETATM   18  C26   D T 441     -13.474   4.553  35.781  1.00 20.12     0.001 A 
HETATM   19  C27   D T 441     -14.281   5.537  35.181  1.00 21.15     0.000 A 
ENDROOT
BRANCH   1  20
HETATM   20  C5    D T 441     -20.180   5.943  37.391  1.00 20.67     0.342 C 
HETATM   21  N3    D T 441     -20.414   6.962  38.435  1.00 22.80     0.629 N 
BRANCH  20  22
HETATM   22  C4    D T 441     -21.505   5.513  36.992  1.00 19.37     0.100 A 
HETATM   23  N1    D T 441     -22.471   5.212  37.840  1.00 19.33    -0.308 N 
HETATM   24  C1    D T 441     -22.448   5.309  39.322  1.00 19.43     0.132 C 
HETATM   25  C2    D T 441     -23.501   4.776  37.116  1.00 17.45     0.178 A 
HETATM   26  N2    D T 441     -23.125   4.825  35.810  1.00 18.66    -0.223 NA
HETATM   27  C3    D T 441     -21.860   5.291  35.733  1.00 16.78     0.116 A 
ENDBRANCH  20  22
BRANCH  20  28
HETATM   28  C6    D T 441     -19.430   4.896  38.017  1.00 20.70     0.021 A 
HETATM   29  C7    D T 441     -19.374   3.611  37.419  1.00 21.08    -0.001 A 
HETATM   30  C8    D T 441     -18.598   2.591  37.987  1.00 21.56     0.011 A 
HETATM   31  C9    D T 441     -17.866   2.831  39.158  1.00 22.96     0.058 A 
HETATM   32 CL1    D T 441     -16.851   1.535  39.834  1.00 26.89    -0.082 Cl
HETATM   33  C10   D T 441     -17.910   4.100  39.771  1.00 22.08     0.011 A 
HETATM   34  C11   D T 441     -18.692   5.132  39.204  1.00 21.58    -0.001 A 
ENDBRANCH  20  28
ENDBRANCH   1  20
TORSDOF 3
ENDMDL
MODEL 8
REMARK VINA RESULT:    -5.888     12.879     14.683
REMARK INTER + INTRA:          -7.303
REMARK INTER:                  -7.298
REMARK INTRA:                  -0.006
REMARK UNBOUND:                -0.382
REMARK  3 active torsions:
REMARK  status: ('A' for Active; 'I' for Inactive)
REMARK    1  A    between atoms: C4_6  and  C5_7 
REMARK    2  A    between atoms: C5_7  and  C6_8 
REMARK    3  A    between atoms: C5_7  and  C12_16 
ROOT
HETATM    1  C12   D T 441     -28.848   0.870  29.093  1.00 19.85     0.021 A 
HETATM    2  C13   D T 441     -28.946  -0.499  28.710  1.00 19.83    -0.000 A 
HETATM    3  C14   D T 441     -29.426  -1.484  29.616  1.00 20.16     0.016 A 
HETATM    4  C15   D T 441     -29.278   1.241  30.393  1.00 20.41    -0.000 A 
HETATM    5  C16   D T 441     -29.752   0.275  31.295  1.00 20.73     0.017 A 
HETATM    6  C17   D T 441     -29.818  -1.085  30.924  1.00 21.09     0.062 A 
HETATM    7  N4    D T 441     -30.221  -2.077  31.877  1.00 20.91    -0.294 N 
HETATM    8  C18   D T 441     -30.647  -1.688  33.252  1.00 20.23     0.134 C 
HETATM    9  C19   D T 441     -30.223  -3.444  31.519  1.00 22.47     0.261 A 
HETATM   10  O1    D T 441     -30.521  -4.300  32.350  1.00 22.92    -0.267 OA
HETATM   11  C20   D T 441     -29.853  -3.829  30.226  1.00 22.04     0.061 A 
HETATM   12  C21   D T 441     -29.465  -2.873  29.261  1.00 20.64     0.006 A 
HETATM   13  C22   D T 441     -29.221  -3.327  27.939  1.00 21.65     0.001 A 
HETATM   14  C23   D T 441     -27.970  -3.131  27.309  1.00 20.99     0.011 A 
HETATM   15  C24   D T 441     -27.748  -3.646  26.013  1.00 22.35     0.058 A 
HETATM   16 CL2    D T 441     -26.179  -3.428  25.226  1.00 26.30    -0.082 Cl
HETATM   17  C25   D T 441     -28.763  -4.353  25.341  1.00 21.98     0.011 A 
HETATM   18  C26   D T 441     -30.006  -4.549  25.961  1.00 20.12     0.001 A 
HETATM   19  C27   D T 441     -30.235  -4.039  27.252  1.00 21.15     0.000 A 
ENDROOT
BRANCH   1  20
HETATM   20  C5    D T 441     -28.168   1.839  28.265  1.00 20.67     0.342 C 
HETATM   21  N3    D T 441     -28.489   3.130  28.908  1.00 22.80     0.629 N 
BRANCH  20  22
HETATM   22  C4    D T 441     -26.721   1.757  28.306  1.00 19.37     0.100 A 
HETATM   23  N1    D T 441     -25.915   2.629  27.730  1.00 19.33    -0.308 N 
HETATM   24  C1    D T 441     -26.283   3.872  27.005  1.00 19.43     0.132 C 
HETATM   25  C2    D T 441     -24.673   2.181  27.902  1.00 17.45     0.178 A 
HETATM   26  N2    D T 441     -24.757   1.015  28.597  1.00 18.66    -0.223 NA
HETATM   27  C3    D T 441     -26.056   0.747  28.852  1.00 16.78     0.116 A 
ENDBRANCH  20  22
BRANCH  20  28
HETATM   28  C6    D T 441     -28.674   1.922  26.928  1.00 20.70     0.021 A 
HETATM   29  C7    D T 441     -29.489   3.018  26.546  1.00 21.08    -0.001 A 
HETATM   30  C8    D T 441     -29.944   3.145  25.226  1.00 21.56     0.011 A 
HETATM   31  C9    D T 441     -29.597   2.187  24.265  1.00 22.96     0.058 A 
HETATM   32 CL1    D T 441     -30.147   2.394  22.585  1.00 26.89    -0.082 Cl
HETATM   33  C10   D T 441     -28.790   1.087  24.623  1.00 22.08     0.011 A 
HETATM   34  C11   D T 441     -28.329   0.952  25.953  1.00 21.58    -0.001 A 
ENDBRANCH  20  28
ENDBRANCH   1  20
TORSDOF 3
ENDMDL
MODEL 9
REMARK VINA RESULT:    -5.789     12.119     14.193
REMARK INTER + INTRA:          -7.187
REMARK INTER:                  -7.304
REMARK INTRA:                   0.117
REMARK UNBOUND:                -0.382
REMARK  3 active torsions:
REMARK  status: ('A' for Active; 'I' for Inactive)
REMARK    1  A    between atoms: C4_6  and  C5_7 
REMARK    2  A    between atoms: C5_7  and  C6_8 
REMARK    3  A    between atoms: C5_7  and  C12_16 
ROOT
HETATM    1  C12   D T 441     -28.121   2.698  27.655  1.00 19.85     0.021 A 
HETATM    2  C13   D T 441     -27.939   1.347  28.066  1.00 19.83    -0.000 A 
HETATM    3  C14   D T 441     -26.648   0.842  28.383  1.00 20.16     0.016 A 
HETATM    4  C15   D T 441     -26.987   3.549  27.604  1.00 20.41    -0.000 A 
HETATM    5  C16   D T 441     -25.708   3.058  27.913  1.00 20.73     0.017 A 
HETATM    6  C17   D T 441     -25.525   1.711  28.290  1.00 21.09     0.062 A 
HETATM    7  N4    D T 441     -24.209   1.195  28.520  1.00 20.91    -0.294 N 
HETATM    8  C18   D T 441     -23.014   2.084  28.440  1.00 20.23     0.134 C 
HETATM    9  C19   D T 441     -24.028  -0.171  28.834  1.00 22.47     0.261 A 
HETATM   10  O1    D T 441     -22.895  -0.626  28.984  1.00 22.92    -0.267 OA
HETATM   11  C20   D T 441     -25.136  -1.017  28.941  1.00 22.04     0.061 A 
HETATM   12  C21   D T 441     -26.447  -0.535  28.733  1.00 20.64     0.006 A 
HETATM   13  C22   D T 441     -27.527  -1.422  28.978  1.00 21.65     0.001 A 
HETATM   14  C23   D T 441     -28.462  -1.745  27.968  1.00 20.99     0.011 A 
HETATM   15  C24   D T 441     -29.491  -2.675  28.234  1.00 22.35     0.058 A 
HETATM   16 CL2    D T 441     -30.651  -3.105  26.969  1.00 26.30    -0.082 Cl
HETATM   17  C25   D T 441     -29.595  -3.283  29.500  1.00 21.98     0.011 A 
HETATM   18  C26   D T 441     -28.670  -2.966  30.506  1.00 20.12     0.001 A 
HETATM   19  C27   D T 441     -27.643  -2.040  30.247  1.00 21.15     0.000 A 
ENDROOT
BRANCH   1  20
HETATM   20  C5    D T 441     -29.383   3.164  27.128  1.00 20.67     0.342 C 
HETATM   21  N3    D T 441     -30.354   2.164  27.618  1.00 22.80     0.629 N 
BRANCH  20  22
HETATM   22  C4    D T 441     -29.840   4.423  27.681  1.00 19.37     0.100 A 
HETATM   23  N1    D T 441     -30.015   4.644  28.970  1.00 19.33    -0.308 N 
HETATM   24  C1    D T 441     -29.728   3.725  30.101  1.00 19.43     0.132 C 
HETATM   25  C2    D T 441     -30.523   5.870  29.088  1.00 17.45     0.178 A 
HETATM   26  N2    D T 441     -30.649   6.377  27.833  1.00 18.66    -0.223 NA
HETATM   27  C3    D T 441     -30.217   5.459  26.942  1.00 16.78     0.116 A 
ENDBRANCH  20  22
BRANCH  20  28
HETATM   28  C6    D T 441     -29.466   3.133  25.698  1.00 20.70     0.021 A 
HETATM   29  C7    D T 441     -30.483   2.375  25.064  1.00 21.08    -0.001 A 
HETATM   30  C8    D T 441     -30.615   2.380  23.668  1.00 21.56     0.011 A 
HETATM   31  C9    D T 441     -29.738   3.138  22.880  1.00 22.96     0.058 A 
HETATM   32 CL1    D T 441     -29.953   3.166  21.114  1.00 26.89    -0.082 Cl
HETATM   33  C10   D T 441     -28.716   3.896  23.489  1.00 22.08     0.011 A 
HETATM   34  C11   D T 441     -28.578   3.894  24.896  1.00 21.58    -0.001 A 
ENDBRANCH  20  28
ENDBRANCH   1  20
TORSDOF 3
ENDMDL
