MODEL 1
REMARK VINA RESULT:    -8.352      0.000      0.000
REMARK INTER + INTRA:         -10.074
REMARK INTER:                  -9.817
REMARK INTRA:                  -0.257
REMARK UNBOUND:                -0.257
REMARK  3 active torsions:
REMARK  status: ('A' for Active; 'I' for Inactive)
REMARK    1  A    between atoms: C4_6  and  C5_7 
REMARK    2  A    between atoms: C5_7  and  C6_8 
REMARK    3  A    between atoms: C5_7  and  C12_16 
ROOT
HETATM    1  C12   D T 441       5.004  -7.347   3.641  1.00 19.85     0.021 A 
HETATM    2  C13   D T 441       6.158  -6.573   3.326  1.00 19.83    -0.000 A 
HETATM    3  C14   D T 441       6.335  -6.010   2.031  1.00 20.16     0.016 A 
HETATM    4  C15   D T 441       4.010  -7.516   2.645  1.00 20.41    -0.000 A 
HETATM    5  C16   D T 441       4.176  -6.967   1.364  1.00 20.73     0.017 A 
HETATM    6  C17   D T 441       5.334  -6.226   1.042  1.00 21.09     0.062 A 
HETATM    7  N4    D T 441       5.539  -5.742  -0.289  1.00 20.91    -0.294 N 
HETATM    8  C18   D T 441       4.503  -5.943  -1.344  1.00 20.23     0.134 C 
HETATM    9  C19   D T 441       6.729  -5.058  -0.620  1.00 22.47     0.261 A 
HETATM   10  O1    D T 441       6.929  -4.684  -1.776  1.00 22.92    -0.267 OA
HETATM   11  C20   D T 441       7.702  -4.833   0.359  1.00 22.04     0.061 A 
HETATM   12  C21   D T 441       7.524  -5.288   1.685  1.00 20.64     0.006 A 
HETATM   13  C22   D T 441       8.496  -4.917   2.649  1.00 21.65     0.001 A 
HETATM   14  C23   D T 441       9.219  -5.889   3.381  1.00 20.99     0.011 A 
HETATM   15  C24   D T 441      10.218  -5.481   4.291  1.00 22.35     0.058 A 
HETATM   16 CL2    D T 441      11.146  -6.689   5.193  1.00 26.30    -0.082 Cl
HETATM   17  C25   D T 441      10.501  -4.116   4.480  1.00 21.98     0.011 A 
HETATM   18  C26   D T 441       9.786  -3.148   3.758  1.00 20.12     0.001 A 
HETATM   19  C27   D T 441       8.790  -3.545   2.848  1.00 21.15     0.000 A 
ENDROOT
BRANCH   1  20
HETATM   20  C5    D T 441       4.913  -8.098   4.873  1.00 20.67     0.342 C 
HETATM   21  N3    D T 441       3.461  -8.311   5.041  1.00 22.80     0.629 N 
BRANCH  20  22
HETATM   22  C4    D T 441       5.476  -9.432   4.809  1.00 19.37     0.100 A 
HETATM   23  N1    D T 441       5.364 -10.329   5.770  1.00 19.33    -0.308 N 
HETATM   24  C1    D T 441       4.613 -10.209   7.047  1.00 19.43     0.132 C 
HETATM   25  C2    D T 441       6.079 -11.388   5.397  1.00 17.45     0.178 A 
HETATM   26  N2    D T 441       6.622 -11.102   4.184  1.00 18.66    -0.223 NA
HETATM   27  C3    D T 441       6.240  -9.863   3.812  1.00 16.78     0.116 A 
ENDBRANCH  20  22
BRANCH  20  28
HETATM   28  C6    D T 441       5.348  -7.375   6.031  1.00 20.70     0.021 A 
HETATM   29  C7    D T 441       6.719  -7.374   6.391  1.00 21.08    -0.001 A 
HETATM   30  C8    D T 441       7.170  -6.625   7.488  1.00 21.56     0.011 A 
HETATM   31  C9    D T 441       6.266  -5.867   8.243  1.00 22.96     0.058 A 
HETATM   32 CL1    D T 441       6.868  -4.888   9.602  1.00 26.89    -0.082 Cl
HETATM   33  C10   D T 441       4.896  -5.857   7.906  1.00 22.08     0.011 A 
HETATM   34  C11   D T 441       4.436  -6.610   6.802  1.00 21.58    -0.001 A 
ENDBRANCH  20  28
ENDBRANCH   1  20
TORSDOF 3
ENDMDL
MODEL 2
REMARK VINA RESULT:    -8.257      3.815      7.412
REMARK INTER + INTRA:          -9.963
REMARK INTER:                  -9.948
REMARK INTRA:                  -0.015
REMARK UNBOUND:                -0.257
REMARK  3 active torsions:
REMARK  status: ('A' for Active; 'I' for Inactive)
REMARK    1  A    between atoms: C4_6  and  C5_7 
REMARK    2  A    between atoms: C5_7  and  C6_8 
REMARK    3  A    between atoms: C5_7  and  C12_16 
ROOT
HETATM    1  C12   D T 441       8.236  -4.693   4.599  1.00 19.85     0.021 A 
HETATM    2  C13   D T 441       7.193  -5.635   4.836  1.00 19.83    -0.000 A 
HETATM    3  C14   D T 441       6.747  -5.922   6.156  1.00 20.16     0.016 A 
HETATM    4  C15   D T 441       8.799  -4.014   5.709  1.00 20.41    -0.000 A 
HETATM    5  C16   D T 441       8.368  -4.292   7.015  1.00 20.73     0.017 A 
HETATM    6  C17   D T 441       7.356  -5.248   7.252  1.00 21.09     0.062 A 
HETATM    7  N4    D T 441       6.981  -5.591   8.591  1.00 20.91    -0.294 N 
HETATM    8  C18   D T 441       7.594  -4.894   9.759  1.00 20.23     0.134 C 
HETATM    9  C19   D T 441       6.014  -6.594   8.821  1.00 22.47     0.261 A 
HETATM   10  O1    D T 441       5.726  -6.924   9.972  1.00 22.92    -0.267 OA
HETATM   11  C20   D T 441       5.406  -7.241   7.741  1.00 22.04     0.061 A 
HETATM   12  C21   D T 441       5.746  -6.917   6.409  1.00 20.64     0.006 A 
HETATM   13  C22   D T 441       5.001  -7.527   5.367  1.00 21.65     0.001 A 
HETATM   14  C23   D T 441       5.629  -8.314   4.373  1.00 20.99     0.011 A 
HETATM   15  C24   D T 441       4.846  -8.951   3.385  1.00 22.35     0.058 A 
HETATM   16 CL2    D T 441       5.620  -9.959   2.152  1.00 26.30    -0.082 Cl
HETATM   17  C25   D T 441       3.447  -8.809   3.378  1.00 21.98     0.011 A 
HETATM   18  C26   D T 441       2.820  -8.028   4.361  1.00 20.12     0.001 A 
HETATM   19  C27   D T 441       3.591  -7.391   5.349  1.00 21.15     0.000 A 
ENDROOT
BRANCH   1  20
HETATM   20  C5    D T 441       8.841  -4.550   3.295  1.00 20.67     0.342 C 
HETATM   21  N3    D T 441       9.137  -3.106   3.207  1.00 22.80     0.629 N 
BRANCH  20  22
HETATM   22  C4    D T 441      10.129  -5.200   3.154  1.00 19.37     0.100 A 
HETATM   23  N1    D T 441      10.304  -6.508   3.186  1.00 19.33    -0.308 N 
HETATM   24  C1    D T 441       9.266  -7.566   3.297  1.00 19.43     0.132 C 
HETATM   25  C2    D T 441      11.616  -6.725   3.117  1.00 17.45     0.178 A 
HETATM   26  N2    D T 441      12.223  -5.511   3.043  1.00 18.66    -0.223 NA
HETATM   27  C3    D T 441      11.280  -4.546   3.066  1.00 16.78     0.116 A 
ENDBRANCH  20  22
BRANCH  20  28
HETATM   28  C6    D T 441       7.958  -4.844   2.206  1.00 20.70     0.021 A 
HETATM   29  C7    D T 441       6.574  -5.037   2.448  1.00 21.08    -0.001 A 
HETATM   30  C8    D T 441       5.687  -5.268   1.387  1.00 21.56     0.011 A 
HETATM   31  C9    D T 441       6.161  -5.312   0.070  1.00 22.96     0.058 A 
HETATM   32 CL1    D T 441       5.010  -5.561  -1.265  1.00 26.89    -0.082 Cl
HETATM   33  C10   D T 441       7.535  -5.128  -0.195  1.00 22.08     0.011 A 
HETATM   34  C11   D T 441       8.433  -4.895   0.871  1.00 21.58    -0.001 A 
ENDBRANCH  20  28
ENDBRANCH   1  20
TORSDOF 3
ENDMDL
MODEL 3
REMARK VINA RESULT:    -7.872      3.803      7.484
REMARK INTER + INTRA:          -9.510
REMARK INTER:                 -10.160
REMARK INTRA:                   0.650
REMARK UNBOUND:                -0.257
REMARK  3 active torsions:
REMARK  status: ('A' for Active; 'I' for Inactive)
REMARK    1  A    between atoms: C4_6  and  C5_7 
REMARK    2  A    between atoms: C5_7  and  C6_8 
REMARK    3  A    between atoms: C5_7  and  C12_16 
ROOT
HETATM    1  C12   D T 441       8.445  -4.706   4.521  1.00 19.85     0.021 A 
HETATM    2  C13   D T 441       7.377  -5.619   4.758  1.00 19.83    -0.000 A 
HETATM    3  C14   D T 441       6.870  -5.836   6.070  1.00 20.16     0.016 A 
HETATM    4  C15   D T 441       8.972  -3.983   5.621  1.00 20.41    -0.000 A 
HETATM    5  C16   D T 441       8.481  -4.192   6.919  1.00 20.73     0.017 A 
HETATM    6  C17   D T 441       7.444  -5.119   7.158  1.00 21.09     0.062 A 
HETATM    7  N4    D T 441       7.007  -5.391   8.494  1.00 20.91    -0.294 N 
HETATM    8  C18   D T 441       7.582  -4.648   9.653  1.00 20.23     0.134 C 
HETATM    9  C19   D T 441       6.014  -6.367   8.730  1.00 22.47     0.261 A 
HETATM   10  O1    D T 441       5.671  -6.637   9.881  1.00 22.92    -0.267 OA
HETATM   11  C20   D T 441       5.441  -7.056   7.656  1.00 22.04     0.061 A 
HETATM   12  C21   D T 441       5.843  -6.802   6.326  1.00 20.64     0.006 A 
HETATM   13  C22   D T 441       5.132  -7.450   5.284  1.00 21.65     0.001 A 
HETATM   14  C23   D T 441       5.788  -8.294   4.356  1.00 20.99     0.011 A 
HETATM   15  C24   D T 441       5.037  -8.966   3.366  1.00 22.35     0.058 A 
HETATM   16 CL2    D T 441       5.844 -10.043   2.217  1.00 26.30    -0.082 Cl
HETATM   17  C25   D T 441       3.641  -8.802   3.293  1.00 21.98     0.011 A 
HETATM   18  C26   D T 441       2.986  -7.966   4.210  1.00 20.12     0.001 A 
HETATM   19  C27   D T 441       3.726  -7.293   5.199  1.00 21.15     0.000 A 
ENDROOT
BRANCH   1  20
HETATM   20  C5    D T 441       9.107  -4.636   3.239  1.00 20.67     0.342 C 
HETATM   21  N3    D T 441       9.754  -3.308   3.257  1.00 22.80     0.629 N 
BRANCH  20  22
HETATM   22  C4    D T 441      10.197  -5.576   3.072  1.00 19.37     0.100 A 
HETATM   23  N1    D T 441      11.361  -5.269   2.529  1.00 19.33    -0.308 N 
HETATM   24  C1    D T 441      11.824  -3.940   2.052  1.00 19.43     0.132 C 
HETATM   25  C2    D T 441      12.066  -6.397   2.463  1.00 17.45     0.178 A 
HETATM   26  N2    D T 441      11.294  -7.388   2.982  1.00 18.66    -0.223 NA
HETATM   27  C3    D T 441      10.111  -6.867   3.367  1.00 16.78     0.116 A 
ENDBRANCH  20  22
BRANCH  20  28
HETATM   28  C6    D T 441       8.213  -4.630   2.120  1.00 20.70     0.021 A 
HETATM   29  C7    D T 441       8.613  -5.212   0.890  1.00 21.08    -0.001 A 
HETATM   30  C8    D T 441       7.729  -5.266  -0.197  1.00 21.56     0.011 A 
HETATM   31  C9    D T 441       6.436  -4.741  -0.081  1.00 22.96     0.058 A 
HETATM   32 CL1    D T 441       5.316  -4.862  -1.459  1.00 26.89    -0.082 Cl
HETATM   33  C10   D T 441       6.018  -4.153   1.132  1.00 22.08     0.011 A 
HETATM   34  C11   D T 441       6.904  -4.096   2.231  1.00 21.58    -0.001 A 
ENDBRANCH  20  28
ENDBRANCH   1  20
TORSDOF 3
ENDMDL
MODEL 4
REMARK VINA RESULT:    -7.784      3.179      5.472
REMARK INTER + INTRA:          -9.406
REMARK INTER:                  -9.252
REMARK INTRA:                  -0.154
REMARK UNBOUND:                -0.257
REMARK  3 active torsions:
REMARK  status: ('A' for Active; 'I' for Inactive)
REMARK    1  A    between atoms: C4_6  and  C5_7 
REMARK    2  A    between atoms: C5_7  and  C6_8 
REMARK    3  A    between atoms: C5_7  and  C12_16 
ROOT
HETATM    1  C12   D T 441       7.562  -7.204   5.335  1.00 19.85     0.021 A 
HETATM    2  C13   D T 441       7.811  -6.429   4.165  1.00 19.83    -0.000 A 
HETATM    3  C14   D T 441       8.740  -5.350   4.181  1.00 20.16     0.016 A 
HETATM    4  C15   D T 441       8.288  -6.902   6.514  1.00 20.41    -0.000 A 
HETATM    5  C16   D T 441       9.204  -5.839   6.540  1.00 20.73     0.017 A 
HETATM    6  C17   D T 441       9.429  -5.051   5.390  1.00 21.09     0.062 A 
HETATM    7  N4    D T 441      10.298  -3.915   5.447  1.00 20.91    -0.294 N 
HETATM    8  C18   D T 441      11.043  -3.583   6.697  1.00 20.23     0.134 C 
HETATM    9  C19   D T 441      10.468  -3.095   4.310  1.00 22.47     0.261 A 
HETATM   10  O1    D T 441      11.178  -2.090   4.371  1.00 22.92    -0.267 OA
HETATM   11  C20   D T 441       9.802  -3.403   3.119  1.00 22.04     0.061 A 
HETATM   12  C21   D T 441       8.947  -4.524   3.028  1.00 20.64     0.006 A 
HETATM   13  C22   D T 441       8.404  -4.841   1.757  1.00 21.65     0.001 A 
HETATM   14  C23   D T 441       7.006  -4.902   1.546  1.00 20.99     0.011 A 
HETATM   15  C24   D T 441       6.503  -5.167   0.253  1.00 22.35     0.058 A 
HETATM   16 CL2    D T 441       4.756  -5.220  -0.028  1.00 26.30    -0.082 Cl
HETATM   17  C25   D T 441       7.380  -5.372  -0.828  1.00 21.98     0.011 A 
HETATM   18  C26   D T 441       8.767  -5.314  -0.623  1.00 20.12     0.001 A 
HETATM   19  C27   D T 441       9.276  -5.051   0.661  1.00 21.15     0.000 A 
ENDROOT
BRANCH   1  20
HETATM   20  C5    D T 441       6.475  -8.155   5.391  1.00 20.67     0.342 C 
HETATM   21  N3    D T 441       7.154  -9.440   5.650  1.00 22.80     0.629 N 
BRANCH  20  22
HETATM   22  C4    D T 441       5.578  -7.978   6.516  1.00 19.37     0.100 A 
HETATM   23  N1    D T 441       4.855  -8.948   7.044  1.00 19.33    -0.308 N 
HETATM   24  C1    D T 441       4.847 -10.387   6.672  1.00 19.43     0.132 C 
HETATM   25  C2    D T 441       4.095  -8.395   7.987  1.00 17.45     0.178 A 
HETATM   26  N2    D T 441       4.382  -7.067   8.011  1.00 18.66    -0.223 NA
HETATM   27  C3    D T 441       5.322  -6.804   7.078  1.00 16.78     0.116 A 
ENDBRANCH  20  22
BRANCH  20  28
HETATM   28  C6    D T 441       5.775  -8.315   4.152  1.00 20.70     0.021 A 
HETATM   29  C7    D T 441       4.791  -7.369   3.766  1.00 21.08    -0.001 A 
HETATM   30  C8    D T 441       4.137  -7.479   2.531  1.00 21.56     0.011 A 
HETATM   31  C9    D T 441       4.449  -8.531   1.660  1.00 22.96     0.058 A 
HETATM   32 CL1    D T 441       3.640  -8.625   0.078  1.00 26.89    -0.082 Cl
HETATM   33  C10   D T 441       5.421  -9.487   2.025  1.00 22.08     0.011 A 
HETATM   34  C11   D T 441       6.083  -9.381   3.269  1.00 21.58    -0.001 A 
ENDBRANCH  20  28
ENDBRANCH   1  20
TORSDOF 3
ENDMDL
MODEL 5
REMARK VINA RESULT:    -7.571      2.825      5.573
REMARK INTER + INTRA:          -9.156
REMARK INTER:                  -8.993
REMARK INTRA:                  -0.163
REMARK UNBOUND:                -0.257
REMARK  3 active torsions:
REMARK  status: ('A' for Active; 'I' for Inactive)
REMARK    1  A    between atoms: C4_6  and  C5_7 
REMARK    2  A    between atoms: C5_7  and  C6_8 
REMARK    3  A    between atoms: C5_7  and  C12_16 
ROOT
HETATM    1  C12   D T 441       9.043  -5.868   2.798  1.00 19.85     0.021 A 
HETATM    2  C13   D T 441       7.665  -6.222   2.721  1.00 19.83    -0.000 A 
HETATM    3  C14   D T 441       6.928  -6.050   1.515  1.00 20.16     0.016 A 
HETATM    4  C15   D T 441       9.681  -5.373   1.632  1.00 20.41    -0.000 A 
HETATM    5  C16   D T 441       8.962  -5.198   0.440  1.00 20.73     0.017 A 
HETATM    6  C17   D T 441       7.589  -5.520   0.372  1.00 21.09     0.062 A 
HETATM    7  N4    D T 441       6.841  -5.258  -0.821  1.00 20.91    -0.294 N 
HETATM    8  C18   D T 441       7.508  -4.713  -2.039  1.00 20.23     0.134 C 
HETATM    9  C19   D T 441       5.454  -5.523  -0.860  1.00 22.47     0.261 A 
HETATM   10  O1    D T 441       4.800  -5.253  -1.868  1.00 22.92    -0.267 OA
HETATM   11  C20   D T 441       4.812  -6.060   0.260  1.00 22.04     0.061 A 
HETATM   12  C21   D T 441       5.525  -6.340   1.447  1.00 20.64     0.006 A 
HETATM   13  C22   D T 441       4.833  -6.996   2.498  1.00 21.65     0.001 A 
HETATM   14  C23   D T 441       4.720  -6.415   3.783  1.00 20.99     0.011 A 
HETATM   15  C24   D T 441       3.975  -7.074   4.786  1.00 22.35     0.058 A 
HETATM   16 CL2    D T 441       3.806  -6.344   6.390  1.00 26.30    -0.082 Cl
HETATM   17  C25   D T 441       3.345  -8.303   4.520  1.00 21.98     0.011 A 
HETATM   18  C26   D T 441       3.455  -8.883   3.247  1.00 20.12     0.001 A 
HETATM   19  C27   D T 441       4.194  -8.234   2.242  1.00 21.15     0.000 A 
ENDROOT
BRANCH   1  20
HETATM   20  C5    D T 441       9.743  -5.835   4.062  1.00 20.67     0.342 C 
HETATM   21  N3    D T 441      10.835  -6.812   3.877  1.00 22.80     0.629 N 
BRANCH  20  22
HETATM   22  C4    D T 441      10.413  -4.582   4.347  1.00 19.37     0.100 A 
HETATM   23  N1    D T 441      11.332  -4.431   5.282  1.00 19.33    -0.308 N 
HETATM   24  C1    D T 441      11.912  -5.474   6.168  1.00 19.43     0.132 C 
HETATM   25  C2    D T 441      11.647  -3.138   5.311  1.00 17.45     0.178 A 
HETATM   26  N2    D T 441      10.892  -2.517   4.366  1.00 18.66    -0.223 NA
HETATM   27  C3    D T 441      10.111  -3.433   3.756  1.00 16.78     0.116 A 
ENDBRANCH  20  22
BRANCH  20  28
HETATM   28  C6    D T 441       8.968  -6.306   5.170  1.00 20.70     0.021 A 
HETATM   29  C7    D T 441       8.107  -5.417   5.862  1.00 21.08    -0.001 A 
HETATM   30  C8    D T 441       7.299  -5.875   6.912  1.00 21.56     0.011 A 
HETATM   31  C9    D T 441       7.335  -7.223   7.293  1.00 22.96     0.058 A 
HETATM   32 CL1    D T 441       6.267  -7.791   8.598  1.00 26.89    -0.082 Cl
HETATM   33  C10   D T 441       8.188  -8.125   6.622  1.00 22.08     0.011 A 
HETATM   34  C11   D T 441       9.005  -7.668   5.563  1.00 21.58    -0.001 A 
ENDBRANCH  20  28
ENDBRANCH   1  20
TORSDOF 3
ENDMDL
MODEL 6
REMARK VINA RESULT:    -7.564      3.046      5.118
REMARK INTER + INTRA:          -9.148
REMARK INTER:                  -9.958
REMARK INTRA:                   0.811
REMARK UNBOUND:                -0.257
REMARK  3 active torsions:
REMARK  status: ('A' for Active; 'I' for Inactive)
REMARK    1  A    between atoms: C4_6  and  C5_7 
REMARK    2  A    between atoms: C5_7  and  C6_8 
REMARK    3  A    between atoms: C5_7  and  C12_16 
ROOT
HETATM    1  C12   D T 441       6.517  -6.894   4.810  1.00 19.85     0.021 A 
HETATM    2  C13   D T 441       7.002  -6.178   3.677  1.00 19.83    -0.000 A 
HETATM    3  C14   D T 441       8.082  -5.259   3.794  1.00 20.16     0.016 A 
HETATM    4  C15   D T 441       7.159  -6.699   6.059  1.00 20.41    -0.000 A 
HETATM    5  C16   D T 441       8.223  -5.793   6.185  1.00 20.73     0.017 A 
HETATM    6  C17   D T 441       8.684  -5.061   5.069  1.00 21.09     0.062 A 
HETATM    7  N4    D T 441       9.711  -4.076   5.221  1.00 20.91    -0.294 N 
HETATM    8  C18   D T 441      10.369  -3.853   6.542  1.00 20.23     0.134 C 
HETATM    9  C19   D T 441      10.121  -3.302   4.113  1.00 22.47     0.261 A 
HETATM   10  O1    D T 441      10.970  -2.421   4.252  1.00 22.92    -0.267 OA
HETATM   11  C20   D T 441       9.539  -3.512   2.859  1.00 22.04     0.061 A 
HETATM   12  C21   D T 441       8.532  -4.486   2.674  1.00 20.64     0.006 A 
HETATM   13  C22   D T 441       8.076  -4.725   1.353  1.00 21.65     0.001 A 
HETATM   14  C23   D T 441       6.714  -4.568   1.001  1.00 20.99     0.011 A 
HETATM   15  C24   D T 441       6.309  -4.761  -0.338  1.00 22.35     0.058 A 
HETATM   16 CL2    D T 441       4.613  -4.542  -0.794  1.00 26.30    -0.082 Cl
HETATM   17  C25   D T 441       7.247  -5.112  -1.326  1.00 21.98     0.011 A 
HETATM   18  C26   D T 441       8.598  -5.271  -0.982  1.00 20.12     0.001 A 
HETATM   19  C27   D T 441       9.011  -5.079   0.349  1.00 21.15     0.000 A 
ENDROOT
BRANCH   1  20
HETATM   20  C5    D T 441       5.294  -7.662   4.750  1.00 20.67     0.342 C 
HETATM   21  N3    D T 441       4.416  -6.989   5.728  1.00 22.80     0.629 N 
BRANCH  20  22
HETATM   22  C4    D T 441       4.585  -7.567   3.490  1.00 19.37     0.100 A 
HETATM   23  N1    D T 441       3.312  -7.880   3.333  1.00 19.33    -0.308 N 
HETATM   24  C1    D T 441       2.344  -8.314   4.374  1.00 19.43     0.132 C 
HETATM   25  C2    D T 441       3.040  -7.755   2.035  1.00 17.45     0.178 A 
HETATM   26  N2    D T 441       4.184  -7.357   1.419  1.00 18.66    -0.223 NA
HETATM   27  C3    D T 441       5.162  -7.238   2.341  1.00 16.78     0.116 A 
ENDBRANCH  20  22
BRANCH  20  28
HETATM   28  C6    D T 441       5.431  -9.014   5.200  1.00 20.70     0.021 A 
HETATM   29  C7    D T 441       6.130  -9.959   4.406  1.00 21.08    -0.001 A 
HETATM   30  C8    D T 441       6.322 -11.272   4.858  1.00 21.56     0.011 A 
HETATM   31  C9    D T 441       5.824 -11.668   6.106  1.00 22.96     0.058 A 
HETATM   32 CL1    D T 441       6.121 -13.326   6.680  1.00 26.89    -0.082 Cl
HETATM   33  C10   D T 441       5.122 -10.746   6.912  1.00 22.08     0.011 A 
HETATM   34  C11   D T 441       4.925  -9.422   6.461  1.00 21.58    -0.001 A 
ENDBRANCH  20  28
ENDBRANCH   1  20
TORSDOF 3
ENDMDL
MODEL 7
REMARK VINA RESULT:    -7.455      3.521      6.502
REMARK INTER + INTRA:          -9.020
REMARK INTER:                  -9.375
REMARK INTRA:                   0.355
REMARK UNBOUND:                -0.257
REMARK  3 active torsions:
REMARK  status: ('A' for Active; 'I' for Inactive)
REMARK    1  A    between atoms: C4_6  and  C5_7 
REMARK    2  A    between atoms: C5_7  and  C6_8 
REMARK    3  A    between atoms: C5_7  and  C12_16 
ROOT
HETATM    1  C12   D T 441       8.406  -5.910   3.116  1.00 19.85     0.021 A 
HETATM    2  C13   D T 441       8.858  -5.544   4.417  1.00 19.83    -0.000 A 
HETATM    3  C14   D T 441      10.229  -5.257   4.666  1.00 20.16     0.016 A 
HETATM    4  C15   D T 441       9.349  -5.947   2.058  1.00 20.41    -0.000 A 
HETATM    5  C16   D T 441      10.704  -5.668   2.294  1.00 20.73     0.017 A 
HETATM    6  C17   D T 441      11.157  -5.336   3.589  1.00 21.09     0.062 A 
HETATM    7  N4    D T 441      12.552  -5.137   3.841  1.00 20.91    -0.294 N 
HETATM    8  C18   D T 441      13.547  -5.202   2.731  1.00 20.23     0.134 C 
HETATM    9  C19   D T 441      13.005  -4.868   5.151  1.00 22.47     0.261 A 
HETATM   10  O1    D T 441      14.209  -4.745   5.378  1.00 22.92    -0.267 OA
HETATM   11  C20   D T 441      12.088  -4.775   6.203  1.00 22.04     0.061 A 
HETATM   12  C21   D T 441      10.704  -4.954   5.984  1.00 20.64     0.006 A 
HETATM   13  C22   D T 441       9.825  -4.724   7.074  1.00 21.65     0.001 A 
HETATM   14  C23   D T 441       8.954  -5.734   7.547  1.00 20.99     0.011 A 
HETATM   15  C24   D T 441       8.135  -5.484   8.670  1.00 22.35     0.058 A 
HETATM   16 CL2    D T 441       7.061  -6.750   9.284  1.00 26.30    -0.082 Cl
HETATM   17  C25   D T 441       8.175  -4.239   9.323  1.00 21.98     0.011 A 
HETATM   18  C26   D T 441       9.037  -3.233   8.857  1.00 20.12     0.001 A 
HETATM   19  C27   D T 441       9.856  -3.473   7.740  1.00 21.15     0.000 A 
ENDROOT
BRANCH   1  20
HETATM   20  C5    D T 441       7.067  -6.408   2.896  1.00 20.67     0.342 C 
HETATM   21  N3    D T 441       7.243  -7.874   2.881  1.00 22.80     0.629 N 
BRANCH  20  22
HETATM   22  C4    D T 441       6.145  -6.158   3.985  1.00 19.37     0.100 A 
HETATM   23  N1    D T 441       5.703  -4.960   4.319  1.00 19.33    -0.308 N 
HETATM   24  C1    D T 441       5.980  -3.664   3.646  1.00 19.43     0.132 C 
HETATM   25  C2    D T 441       4.956  -5.114   5.411  1.00 17.45     0.178 A 
HETATM   26  N2    D T 441       4.961  -6.437   5.721  1.00 18.66    -0.223 NA
HETATM   27  C3    D T 441       5.714  -7.098   4.818  1.00 16.78     0.116 A 
ENDBRANCH  20  22
BRANCH  20  28
HETATM   28  C6    D T 441       6.517  -6.058   1.621  1.00 20.70     0.021 A 
HETATM   29  C7    D T 441       5.282  -6.617   1.204  1.00 21.08    -0.001 A 
HETATM   30  C8    D T 441       4.701  -6.242  -0.015  1.00 21.56     0.011 A 
HETATM   31  C9    D T 441       5.338  -5.306  -0.841  1.00 22.96     0.058 A 
HETATM   32 CL1    D T 441       4.559  -4.810  -2.362  1.00 26.89    -0.082 Cl
HETATM   33  C10   D T 441       6.570  -4.740  -0.449  1.00 22.08     0.011 A 
HETATM   34  C11   D T 441       7.160  -5.115   0.779  1.00 21.58    -0.001 A 
ENDBRANCH  20  28
ENDBRANCH   1  20
TORSDOF 3
ENDMDL
MODEL 8
REMARK VINA RESULT:    -7.445      2.636      5.976
REMARK INTER + INTRA:          -9.008
REMARK INTER:                  -9.046
REMARK INTRA:                   0.038
REMARK UNBOUND:                -0.257
REMARK  3 active torsions:
REMARK  status: ('A' for Active; 'I' for Inactive)
REMARK    1  A    between atoms: C4_6  and  C5_7 
REMARK    2  A    between atoms: C5_7  and  C6_8 
REMARK    3  A    between atoms: C5_7  and  C12_16 
ROOT
HETATM    1  C12   D T 441       9.191  -5.051   2.864  1.00 19.85     0.021 A 
HETATM    2  C13   D T 441       7.860  -5.556   2.921  1.00 19.83    -0.000 A 
HETATM    3  C14   D T 441       7.060  -5.655   1.749  1.00 20.16     0.016 A 
HETATM    4  C15   D T 441       9.720  -4.680   1.602  1.00 20.41    -0.000 A 
HETATM    5  C16   D T 441       8.938  -4.772   0.440  1.00 20.73     0.017 A 
HETATM    6  C17   D T 441       7.609  -5.243   0.502  1.00 21.09     0.062 A 
HETATM    7  N4    D T 441       6.788  -5.253  -0.671  1.00 20.91    -0.294 N 
HETATM    8  C18   D T 441       7.339  -4.838  -1.995  1.00 20.23     0.134 C 
HETATM    9  C19   D T 441       5.440  -5.666  -0.590  1.00 22.47     0.261 A 
HETATM   10  O1    D T 441       4.718  -5.629  -1.587  1.00 22.92    -0.267 OA
HETATM   11  C20   D T 441       4.909  -6.085   0.634  1.00 22.04     0.061 A 
HETATM   12  C21   D T 441       5.698  -6.099   1.807  1.00 20.64     0.006 A 
HETATM   13  C22   D T 441       5.128  -6.651   2.982  1.00 21.65     0.001 A 
HETATM   14  C23   D T 441       5.002  -5.892   4.170  1.00 20.99     0.011 A 
HETATM   15  C24   D T 441       4.378  -6.460   5.303  1.00 22.35     0.058 A 
HETATM   16 CL2    D T 441       4.193  -5.510   6.785  1.00 26.30    -0.082 Cl
HETATM   17  C25   D T 441       3.882  -7.776   5.262  1.00 21.98     0.011 A 
HETATM   18  C26   D T 441       4.005  -8.533   4.087  1.00 20.12     0.001 A 
HETATM   19  C27   D T 441       4.624  -7.976   2.955  1.00 21.15     0.000 A 
ENDROOT
BRANCH   1  20
HETATM   20  C5    D T 441       9.934  -4.746   4.065  1.00 20.67     0.342 C 
HETATM   21  N3    D T 441      10.084  -3.278   4.015  1.00 22.80     0.629 N 
BRANCH  20  22
HETATM   22  C4    D T 441       9.216  -5.001   5.298  1.00 19.37     0.100 A 
HETATM   23  N1    D T 441       9.029  -6.204   5.809  1.00 19.33    -0.308 N 
HETATM   24  C1    D T 441       9.545  -7.502   5.301  1.00 19.43     0.132 C 
HETATM   25  C2    D T 441       8.257  -6.052   6.884  1.00 17.45     0.178 A 
HETATM   26  N2    D T 441       7.987  -4.726   7.003  1.00 18.66    -0.223 NA
HETATM   27  C3    D T 441       8.595  -4.061   5.999  1.00 16.78     0.116 A 
ENDBRANCH  20  22
BRANCH  20  28
HETATM   28  C6    D T 441      11.261  -5.283   4.083  1.00 20.70     0.021 A 
HETATM   29  C7    D T 441      12.209  -4.801   5.022  1.00 21.08    -0.001 A 
HETATM   30  C8    D T 441      13.494  -5.356   5.091  1.00 21.56     0.011 A 
HETATM   31  C9    D T 441      13.860  -6.398   4.229  1.00 22.96     0.058 A 
HETATM   32 CL1    D T 441      15.481  -7.118   4.365  1.00 26.89    -0.082 Cl
HETATM   33  C10   D T 441      12.935  -6.891   3.283  1.00 22.08     0.011 A 
HETATM   34  C11   D T 441      11.638  -6.334   3.209  1.00 21.58    -0.001 A 
ENDBRANCH  20  28
ENDBRANCH   1  20
TORSDOF 3
ENDMDL
MODEL 9
REMARK VINA RESULT:    -7.259      4.113      7.744
REMARK INTER + INTRA:          -8.789
REMARK INTER:                  -8.825
REMARK INTRA:                   0.036
REMARK UNBOUND:                -0.257
REMARK  3 active torsions:
REMARK  status: ('A' for Active; 'I' for Inactive)
REMARK    1  A    between atoms: C4_6  and  C5_7 
REMARK    2  A    between atoms: C5_7  and  C6_8 
REMARK    3  A    between atoms: C5_7  and  C12_16 
ROOT
HETATM    1  C12   D T 441       9.722  -4.066   5.131  1.00 19.85     0.021 A 
HETATM    2  C13   D T 441       8.574  -4.807   5.537  1.00 19.83    -0.000 A 
HETATM    3  C14   D T 441       8.334  -5.099   6.909  1.00 20.16     0.016 A 
HETATM    4  C15   D T 441      10.607  -3.590   6.130  1.00 20.41    -0.000 A 
HETATM    5  C16   D T 441      10.381  -3.874   7.485  1.00 20.73     0.017 A 
HETATM    6  C17   D T 441       9.260  -4.635   7.885  1.00 21.09     0.062 A 
HETATM    7  N4    D T 441       9.081  -4.995   9.259  1.00 20.91    -0.294 N 
HETATM    8  C18   D T 441      10.028  -4.515  10.307  1.00 20.23     0.134 C 
HETATM    9  C19   D T 441       7.992  -5.810   9.642  1.00 22.47     0.261 A 
HETATM   10  O1    D T 441       7.863  -6.161  10.815  1.00 22.92    -0.267 OA
HETATM   11  C20   D T 441       7.075  -6.249   8.681  1.00 22.04     0.061 A 
HETATM   12  C21   D T 441       7.219  -5.900   7.320  1.00 20.64     0.006 A 
HETATM   13  C22   D T 441       6.185  -6.280   6.426  1.00 21.65     0.001 A 
HETATM   14  C23   D T 441       6.445  -7.098   5.301  1.00 20.99     0.011 A 
HETATM   15  C24   D T 441       5.380  -7.501   4.466  1.00 22.35     0.058 A 
HETATM   16 CL2    D T 441       5.691  -8.545   3.071  1.00 26.30    -0.082 Cl
HETATM   17  C25   D T 441       4.061  -7.094   4.740  1.00 21.98     0.011 A 
HETATM   18  C26   D T 441       3.799  -6.282   5.854  1.00 20.12     0.001 A 
HETATM   19  C27   D T 441       4.853  -5.876   6.691  1.00 21.15     0.000 A 
ENDROOT
BRANCH   1  20
HETATM   20  C5    D T 441      10.089  -3.947   3.738  1.00 20.67     0.342 C 
HETATM   21  N3    D T 441      10.546  -2.548   3.620  1.00 22.80     0.629 N 
BRANCH  20  22
HETATM   22  C4    D T 441      11.235  -4.744   3.347  1.00 19.37     0.100 A 
HETATM   23  N1    D T 441      11.377  -6.024   3.635  1.00 19.33    -0.308 N 
HETATM   24  C1    D T 441      10.413  -6.917   4.329  1.00 19.43     0.132 C 
HETATM   25  C2    D T 441      12.581  -6.388   3.198  1.00 17.45     0.178 A 
HETATM   26  N2    D T 441      13.157  -5.290   2.640  1.00 18.66    -0.223 NA
HETATM   27  C3    D T 441      12.303  -4.250   2.735  1.00 16.78     0.116 A 
ENDBRANCH  20  22
BRANCH  20  28
HETATM   28  C6    D T 441       8.990  -4.087   2.831  1.00 20.70     0.021 A 
HETATM   29  C7    D T 441       9.112  -4.924   1.693  1.00 21.08    -0.001 A 
HETATM   30  C8    D T 441       8.027  -5.117   0.826  1.00 21.56     0.011 A 
HETATM   31  C9    D T 441       6.804  -4.481   1.076  1.00 22.96     0.058 A 
HETATM   32 CL1    D T 441       5.427  -4.777  -0.012  1.00 26.89    -0.082 Cl
HETATM   33  C10   D T 441       6.660  -3.640   2.200  1.00 22.08     0.011 A 
HETATM   34  C11   D T 441       7.751  -3.441   3.076  1.00 21.58    -0.001 A 
ENDBRANCH  20  28
ENDBRANCH   1  20
TORSDOF 3
ENDMDL
