MODEL 1
REMARK VINA RESULT:    -6.536      0.000      0.000
REMARK INTER + INTRA:          -7.866
REMARK INTER:                  -7.683
REMARK INTRA:                  -0.183
REMARK UNBOUND:                -0.183
REMARK  3 active torsions:
REMARK  status: ('A' for Active; 'I' for Inactive)
REMARK    1  A    between atoms: C4_6  and  C5_7 
REMARK    2  A    between atoms: C5_7  and  C6_8 
REMARK    3  A    between atoms: C5_7  and  C12_16 
ROOT
HETATM    1  C12   D T 441     -16.773   3.321   2.398  1.00 19.85     0.021 A 
HETATM    2  C13   D T 441     -16.466   1.942   2.206  1.00 19.83    -0.000 A 
HETATM    3  C14   D T 441     -15.248   1.539   1.592  1.00 20.16     0.016 A 
HETATM    4  C15   D T 441     -15.818   4.288   1.995  1.00 20.41    -0.000 A 
HETATM    5  C16   D T 441     -14.616   3.899   1.386  1.00 20.73     0.017 A 
HETATM    6  C17   D T 441     -14.325   2.535   1.170  1.00 21.09     0.062 A 
HETATM    7  N4    D T 441     -13.136   2.150   0.471  1.00 20.91    -0.294 N 
HETATM    8  C18   D T 441     -12.145   3.171   0.024  1.00 20.23     0.134 C 
HETATM    9  C19   D T 441     -12.884   0.786   0.200  1.00 22.47     0.261 A 
HETATM   10  O1    D T 441     -11.887   0.457  -0.444  1.00 22.92    -0.267 OA
HETATM   11  C20   D T 441     -13.786  -0.191   0.632  1.00 22.04     0.061 A 
HETATM   12  C21   D T 441     -14.960   0.158   1.335  1.00 20.64     0.006 A 
HETATM   13  C22   D T 441     -15.763  -0.895   1.847  1.00 21.65     0.001 A 
HETATM   14  C23   D T 441     -17.120  -1.037   1.474  1.00 20.99     0.011 A 
HETATM   15  C24   D T 441     -17.870  -2.130   1.962  1.00 22.35     0.058 A 
HETATM   16 CL2    D T 441     -19.562  -2.332   1.480  1.00 26.30    -0.082 Cl
HETATM   17  C25   D T 441     -17.281  -3.076   2.819  1.00 21.98     0.011 A 
HETATM   18  C26   D T 441     -15.935  -2.939   3.193  1.00 20.12     0.001 A 
HETATM   19  C27   D T 441     -15.181  -1.855   2.711  1.00 21.15     0.000 A 
ENDROOT
BRANCH   1  20
HETATM   20  C5    D T 441     -18.087   3.749   2.820  1.00 20.67     0.342 C 
HETATM   21  N3    D T 441     -18.220   5.094   2.225  1.00 22.80     0.629 N 
BRANCH  20  22
HETATM   22  C4    D T 441     -19.181   2.986   2.252  1.00 19.37     0.100 A 
HETATM   23  N1    D T 441     -19.520   3.017   0.977  1.00 19.33    -0.308 N 
HETATM   24  C1    D T 441     -18.847   3.746  -0.129  1.00 19.43     0.132 C 
HETATM   25  C2    D T 441     -20.613   2.268   0.849  1.00 17.45     0.178 A 
HETATM   26  N2    D T 441     -20.922   1.789   2.084  1.00 18.66    -0.223 NA
HETATM   27  C3    D T 441     -20.014   2.244   2.972  1.00 16.78     0.116 A 
ENDBRANCH  20  22
BRANCH  20  28
HETATM   28  C6    D T 441     -18.218   3.922   4.236  1.00 20.70     0.021 A 
HETATM   29  C7    D T 441     -19.049   4.949   4.751  1.00 21.08    -0.001 A 
HETATM   30  C8    D T 441     -19.233   5.094   6.133  1.00 21.56     0.011 A 
HETATM   31  C9    D T 441     -18.595   4.223   7.024  1.00 22.96     0.058 A 
HETATM   32 CL1    D T 441     -18.880   4.399   8.773  1.00 26.89    -0.082 Cl
HETATM   33  C10   D T 441     -17.759   3.197   6.535  1.00 22.08     0.011 A 
HETATM   34  C11   D T 441     -17.569   3.046   5.143  1.00 21.58    -0.001 A 
ENDBRANCH  20  28
ENDBRANCH   1  20
TORSDOF 3
ENDMDL
MODEL 2
REMARK VINA RESULT:    -6.397      8.705     10.885
REMARK INTER + INTRA:          -7.702
REMARK INTER:                  -7.744
REMARK INTRA:                   0.042
REMARK UNBOUND:                -0.183
REMARK  3 active torsions:
REMARK  status: ('A' for Active; 'I' for Inactive)
REMARK    1  A    between atoms: C4_6  and  C5_7 
REMARK    2  A    between atoms: C5_7  and  C6_8 
REMARK    3  A    between atoms: C5_7  and  C12_16 
ROOT
HETATM    1  C12   D T 441     -24.415  -3.239   7.541  1.00 19.85     0.021 A 
HETATM    2  C13   D T 441     -23.628  -4.350   7.120  1.00 19.83    -0.000 A 
HETATM    3  C14   D T 441     -22.873  -4.303   5.916  1.00 20.16     0.016 A 
HETATM    4  C15   D T 441     -24.402  -2.063   6.748  1.00 20.41    -0.000 A 
HETATM    5  C16   D T 441     -23.661  -2.009   5.558  1.00 20.73     0.017 A 
HETATM    6  C17   D T 441     -22.906  -3.120   5.126  1.00 21.09     0.062 A 
HETATM    7  N4    D T 441     -22.223  -3.088   3.868  1.00 20.91    -0.294 N 
HETATM    8  C18   D T 441     -22.231  -1.859   3.023  1.00 20.23     0.134 C 
HETATM    9  C19   D T 441     -21.522  -4.227   3.413  1.00 22.47     0.261 A 
HETATM   10  O1    D T 441     -20.975  -4.218   2.310  1.00 22.92    -0.267 OA
HETATM   11  C20   D T 441     -21.478  -5.382   4.201  1.00 22.04     0.061 A 
HETATM   12  C21   D T 441     -22.131  -5.439   5.452  1.00 20.64     0.006 A 
HETATM   13  C22   D T 441     -21.940  -6.599   6.247  1.00 21.65     0.001 A 
HETATM   14  C23   D T 441     -23.031  -7.396   6.665  1.00 20.99     0.011 A 
HETATM   15  C24   D T 441     -22.795  -8.573   7.409  1.00 22.35     0.058 A 
HETATM   16 CL2    D T 441     -24.151  -9.592   7.915  1.00 26.30    -0.082 Cl
HETATM   17  C25   D T 441     -21.483  -8.959   7.741  1.00 21.98     0.011 A 
HETATM   18  C26   D T 441     -20.397  -8.172   7.329  1.00 20.12     0.001 A 
HETATM   19  C27   D T 441     -20.623  -6.999   6.587  1.00 21.15     0.000 A 
ENDROOT
BRANCH   1  20
HETATM   20  C5    D T 441     -25.348  -3.348   8.639  1.00 20.67     0.342 C 
HETATM   21  N3    D T 441     -26.580  -2.730   8.107  1.00 22.80     0.629 N 
BRANCH  20  22
HETATM   22  C4    D T 441     -25.731  -4.705   8.971  1.00 19.37     0.100 A 
HETATM   23  N1    D T 441     -26.593  -5.422   8.276  1.00 19.33    -0.308 N 
HETATM   24  C1    D T 441     -27.281  -5.048   7.012  1.00 19.43     0.132 C 
HETATM   25  C2    D T 441     -26.759  -6.570   8.928  1.00 17.45     0.178 A 
HETATM   26  N2    D T 441     -25.973  -6.522  10.037  1.00 18.66    -0.223 NA
HETATM   27  C3    D T 441     -25.322  -5.340  10.064  1.00 16.78     0.116 A 
ENDBRANCH  20  22
BRANCH  20  28
HETATM   28  C6    D T 441     -24.983  -2.584   9.793  1.00 20.70     0.021 A 
HETATM   29  C7    D T 441     -23.725  -2.795  10.415  1.00 21.08    -0.001 A 
HETATM   30  C8    D T 441     -23.329  -2.015  11.510  1.00 21.56     0.011 A 
HETATM   31  C9    D T 441     -24.174  -1.015  12.006  1.00 22.96     0.058 A 
HETATM   32 CL1    D T 441     -23.631  -0.008  13.370  1.00 26.89    -0.082 Cl
HETATM   33  C10   D T 441     -25.432  -0.791  11.408  1.00 22.08     0.011 A 
HETATM   34  C11   D T 441     -25.838  -1.574  10.304  1.00 21.58    -0.001 A 
ENDBRANCH  20  28
ENDBRANCH   1  20
TORSDOF 3
ENDMDL
MODEL 3
REMARK VINA RESULT:    -6.129      3.283      5.729
REMARK INTER + INTRA:          -7.387
REMARK INTER:                  -7.402
REMARK INTRA:                   0.016
REMARK UNBOUND:                -0.183
REMARK  3 active torsions:
REMARK  status: ('A' for Active; 'I' for Inactive)
REMARK    1  A    between atoms: C4_6  and  C5_7 
REMARK    2  A    between atoms: C5_7  and  C6_8 
REMARK    3  A    between atoms: C5_7  and  C12_16 
ROOT
HETATM    1  C12   D T 441     -16.710   0.892   2.161  1.00 19.85     0.021 A 
HETATM    2  C13   D T 441     -17.836   0.019   2.192  1.00 19.83    -0.000 A 
HETATM    3  C14   D T 441     -17.700  -1.344   2.575  1.00 20.16     0.016 A 
HETATM    4  C15   D T 441     -15.448   0.380   2.557  1.00 20.41    -0.000 A 
HETATM    5  C16   D T 441     -15.304  -0.963   2.934  1.00 20.73     0.017 A 
HETATM    6  C17   D T 441     -16.415  -1.835   2.936  1.00 21.09     0.062 A 
HETATM    7  N4    D T 441     -16.245  -3.224   3.238  1.00 20.91    -0.294 N 
HETATM    8  C18   D T 441     -14.911  -3.765   3.629  1.00 20.23     0.134 C 
HETATM    9  C19   D T 441     -17.349  -4.103   3.175  1.00 22.47     0.261 A 
HETATM   10  O1    D T 441     -17.196  -5.306   3.386  1.00 22.92    -0.267 OA
HETATM   11  C20   D T 441     -18.615  -3.613   2.836  1.00 22.04     0.061 A 
HETATM   12  C21   D T 441     -18.815  -2.245   2.546  1.00 20.64     0.006 A 
HETATM   13  C22   D T 441     -20.146  -1.802   2.331  1.00 21.65     0.001 A 
HETATM   14  C23   D T 441     -20.530  -1.178   1.121  1.00 20.99     0.011 A 
HETATM   15  C24   D T 441     -21.877  -0.801   0.923  1.00 22.35     0.058 A 
HETATM   16 CL2    D T 441     -22.374  -0.043  -0.598  1.00 26.30    -0.082 Cl
HETATM   17  C25   D T 441     -22.840  -1.037   1.922  1.00 21.98     0.011 A 
HETATM   18  C26   D T 441     -22.464  -1.655   3.124  1.00 20.12     0.001 A 
HETATM   19  C27   D T 441     -21.125  -2.034   3.329  1.00 21.15     0.000 A 
ENDROOT
BRANCH   1  20
HETATM   20  C5    D T 441     -16.792   2.209   1.574  1.00 20.67     0.342 C 
HETATM   21  N3    D T 441     -17.813   2.053   0.518  1.00 22.80     0.629 N 
BRANCH  20  22
HETATM   22  C4    D T 441     -17.327   3.229   2.454  1.00 19.37     0.100 A 
HETATM   23  N1    D T 441     -17.944   4.317   2.036  1.00 19.33    -0.308 N 
HETATM   24  C1    D T 441     -18.283   4.694   0.639  1.00 19.43     0.132 C 
HETATM   25  C2    D T 441     -18.209   5.052   3.114  1.00 17.45     0.178 A 
HETATM   26  N2    D T 441     -17.730   4.375   4.192  1.00 18.66    -0.223 NA
HETATM   27  C3    D T 441     -17.171   3.220   3.773  1.00 16.78     0.116 A 
ENDBRANCH  20  22
BRANCH  20  28
HETATM   28  C6    D T 441     -15.594   2.630   0.913  1.00 20.70     0.021 A 
HETATM   29  C7    D T 441     -14.737   3.575   1.532  1.00 21.08    -0.001 A 
HETATM   30  C8    D T 441     -13.532   3.954   0.925  1.00 21.56     0.011 A 
HETATM   31  C9    D T 441     -13.159   3.401  -0.306  1.00 22.96     0.058 A 
HETATM   32 CL1    D T 441     -11.602   3.863  -1.036  1.00 26.89    -0.082 Cl
HETATM   33  C10   D T 441     -13.998   2.462  -0.944  1.00 22.08     0.011 A 
HETATM   34  C11   D T 441     -15.214   2.078  -0.337  1.00 21.58    -0.001 A 
ENDBRANCH  20  28
ENDBRANCH   1  20
TORSDOF 3
ENDMDL
MODEL 4
REMARK VINA RESULT:    -5.876      7.516      9.770
REMARK INTER + INTRA:          -7.090
REMARK INTER:                  -7.713
REMARK INTRA:                   0.623
REMARK UNBOUND:                -0.183
REMARK  3 active torsions:
REMARK  status: ('A' for Active; 'I' for Inactive)
REMARK    1  A    between atoms: C4_6  and  C5_7 
REMARK    2  A    between atoms: C5_7  and  C6_8 
REMARK    3  A    between atoms: C5_7  and  C12_16 
ROOT
HETATM    1  C12   D T 441     -23.150   0.934   6.652  1.00 19.85     0.021 A 
HETATM    2  C13   D T 441     -23.417   0.057   7.743  1.00 19.83    -0.000 A 
HETATM    3  C14   D T 441     -23.450  -1.353   7.561  1.00 20.16     0.016 A 
HETATM    4  C15   D T 441     -22.880   0.369   5.380  1.00 20.41    -0.000 A 
HETATM    5  C16   D T 441     -22.913  -1.021   5.192  1.00 20.73     0.017 A 
HETATM    6  C17   D T 441     -23.207  -1.888   6.266  1.00 21.09     0.062 A 
HETATM    7  N4    D T 441     -23.324  -3.299   6.047  1.00 20.91    -0.294 N 
HETATM    8  C18   D T 441     -23.064  -3.890   4.703  1.00 20.23     0.134 C 
HETATM    9  C19   D T 441     -23.682  -4.153   7.114  1.00 22.47     0.261 A 
HETATM   10  O1    D T 441     -23.831  -5.360   6.917  1.00 22.92    -0.267 OA
HETATM   11  C20   D T 441     -23.904  -3.625   8.390  1.00 22.04     0.061 A 
HETATM   12  C21   D T 441     -23.783  -2.240   8.638  1.00 20.64     0.006 A 
HETATM   13  C22   D T 441     -23.904  -1.794   9.981  1.00 21.65     0.001 A 
HETATM   14  C23   D T 441     -24.887  -0.852  10.361  1.00 20.99     0.011 A 
HETATM   15  C24   D T 441     -25.011  -0.476  11.716  1.00 22.35     0.058 A 
HETATM   16 CL2    D T 441     -26.255   0.683  12.208  1.00 26.30    -0.082 Cl
HETATM   17  C25   D T 441     -24.161  -1.028  12.692  1.00 21.98     0.011 A 
HETATM   18  C26   D T 441     -23.183  -1.963  12.320  1.00 20.12     0.001 A 
HETATM   19  C27   D T 441     -23.054  -2.344  10.973  1.00 21.15     0.000 A 
ENDROOT
BRANCH   1  20
HETATM   20  C5    D T 441     -23.324   2.364   6.774  1.00 20.67     0.342 C 
HETATM   21  N3    D T 441     -23.165   2.850   5.388  1.00 22.80     0.629 N 
BRANCH  20  22
HETATM   22  C4    D T 441     -24.658   2.778   7.159  1.00 19.37     0.100 A 
HETATM   23  N1    D T 441     -25.268   3.845   6.680  1.00 19.33    -0.308 N 
HETATM   24  C1    D T 441     -24.782   4.781   5.633  1.00 19.43     0.132 C 
HETATM   25  C2    D T 441     -26.427   3.953   7.327  1.00 17.45     0.178 A 
HETATM   26  N2    D T 441     -26.494   2.921   8.210  1.00 18.66    -0.223 NA
HETATM   27  C3    D T 441     -25.373   2.177   8.103  1.00 16.78     0.116 A 
ENDBRANCH  20  22
BRANCH  20  28
HETATM   28  C6    D T 441     -22.306   3.012   7.545  1.00 20.70     0.021 A 
HETATM   29  C7    D T 441     -22.661   3.984   8.515  1.00 21.08    -0.001 A 
HETATM   30  C8    D T 441     -21.681   4.585   9.317  1.00 21.56     0.011 A 
HETATM   31  C9    D T 441     -20.335   4.231   9.169  1.00 22.96     0.058 A 
HETATM   32 CL1    D T 441     -19.114   4.975  10.231  1.00 26.89    -0.082 Cl
HETATM   33  C10   D T 441     -19.957   3.270   8.207  1.00 22.08     0.011 A 
HETATM   34  C11   D T 441     -20.939   2.662   7.395  1.00 21.58    -0.001 A 
ENDBRANCH  20  28
ENDBRANCH   1  20
TORSDOF 3
ENDMDL
MODEL 5
REMARK VINA RESULT:    -5.661      5.513      8.808
REMARK INTER + INTRA:          -6.837
REMARK INTER:                  -6.978
REMARK INTRA:                   0.141
REMARK UNBOUND:                -0.183
REMARK  3 active torsions:
REMARK  status: ('A' for Active; 'I' for Inactive)
REMARK    1  A    between atoms: C4_6  and  C5_7 
REMARK    2  A    between atoms: C5_7  and  C6_8 
REMARK    3  A    between atoms: C5_7  and  C12_16 
ROOT
HETATM    1  C12   D T 441     -17.366  -3.664   2.707  1.00 19.85     0.021 A 
HETATM    2  C13   D T 441     -18.132  -4.755   3.212  1.00 19.83    -0.000 A 
HETATM    3  C14   D T 441     -19.518  -4.611   3.495  1.00 20.16     0.016 A 
HETATM    4  C15   D T 441     -18.025  -2.434   2.456  1.00 20.41    -0.000 A 
HETATM    5  C16   D T 441     -19.392  -2.283   2.734  1.00 20.73     0.017 A 
HETATM    6  C17   D T 441     -20.144  -3.354   3.263  1.00 21.09     0.062 A 
HETATM    7  N4    D T 441     -21.516  -3.167   3.626  1.00 20.91    -0.294 N 
HETATM    8  C18   D T 441     -22.201  -1.864   3.385  1.00 20.23     0.134 C 
HETATM    9  C19   D T 441     -22.244  -4.225   4.215  1.00 22.47     0.261 A 
HETATM   10  O1    D T 441     -23.409  -4.051   4.573  1.00 22.92    -0.267 OA
HETATM   11  C20   D T 441     -21.630  -5.464   4.426  1.00 22.04     0.061 A 
HETATM   12  C21   D T 441     -20.282  -5.682   4.066  1.00 20.64     0.006 A 
HETATM   13  C22   D T 441     -19.765  -6.998   4.198  1.00 21.65     0.001 A 
HETATM   14  C23   D T 441     -18.642  -7.272   5.013  1.00 20.99     0.011 A 
HETATM   15  C24   D T 441     -18.193  -8.603   5.162  1.00 22.35     0.058 A 
HETATM   16 CL2    D T 441     -16.804  -8.961   6.199  1.00 26.30    -0.082 Cl
HETATM   17  C25   D T 441     -18.851  -9.658   4.503  1.00 21.98     0.011 A 
HETATM   18  C26   D T 441     -19.965  -9.391   3.693  1.00 20.12     0.001 A 
HETATM   19  C27   D T 441     -20.420  -8.069   3.541  1.00 21.15     0.000 A 
ENDROOT
BRANCH   1  20
HETATM   20  C5    D T 441     -15.926  -3.732   2.618  1.00 20.67     0.342 C 
HETATM   21  N3    D T 441     -15.508  -4.033   4.002  1.00 22.80     0.629 N 
BRANCH  20  22
HETATM   22  C4    D T 441     -15.422  -4.841   1.832  1.00 19.37     0.100 A 
HETATM   23  N1    D T 441     -15.911  -5.200   0.661  1.00 19.33    -0.308 N 
HETATM   24  C1    D T 441     -16.990  -4.538  -0.119  1.00 19.43     0.132 C 
HETATM   25  C2    D T 441     -15.262  -6.301   0.290  1.00 17.45     0.178 A 
HETATM   26  N2    D T 441     -14.370  -6.595   1.273  1.00 18.66    -0.223 NA
HETATM   27  C3    D T 441     -14.472  -5.669   2.250  1.00 16.78     0.116 A 
ENDBRANCH  20  22
BRANCH  20  28
HETATM   28  C6    D T 441     -15.303  -2.490   2.272  1.00 20.70     0.021 A 
HETATM   29  C7    D T 441     -14.740  -2.313   0.983  1.00 21.08    -0.001 A 
HETATM   30  C8    D T 441     -14.178  -1.084   0.610  1.00 21.56     0.011 A 
HETATM   31  C9    D T 441     -14.167  -0.012   1.511  1.00 22.96     0.058 A 
HETATM   32 CL1    D T 441     -13.490   1.553   0.999  1.00 26.89    -0.082 Cl
HETATM   33  C10   D T 441     -14.717  -0.166   2.801  1.00 22.08     0.011 A 
HETATM   34  C11   D T 441     -15.283  -1.402   3.183  1.00 21.58    -0.001 A 
ENDBRANCH  20  28
ENDBRANCH   1  20
TORSDOF 3
ENDMDL
MODEL 6
REMARK VINA RESULT:    -5.632      3.845      6.917
REMARK INTER + INTRA:          -6.802
REMARK INTER:                  -6.454
REMARK INTRA:                  -0.348
REMARK UNBOUND:                -0.183
REMARK  3 active torsions:
REMARK  status: ('A' for Active; 'I' for Inactive)
REMARK    1  A    between atoms: C4_6  and  C5_7 
REMARK    2  A    between atoms: C5_7  and  C6_8 
REMARK    3  A    between atoms: C5_7  and  C12_16 
ROOT
HETATM    1  C12   D T 441     -16.303  -2.331   2.926  1.00 19.85     0.021 A 
HETATM    2  C13   D T 441     -17.696  -2.628   2.900  1.00 19.83    -0.000 A 
HETATM    3  C14   D T 441     -18.180  -3.918   3.253  1.00 20.16     0.016 A 
HETATM    4  C15   D T 441     -15.404  -3.343   3.349  1.00 20.41    -0.000 A 
HETATM    5  C16   D T 441     -15.872  -4.619   3.698  1.00 20.73     0.017 A 
HETATM    6  C17   D T 441     -17.250  -4.921   3.643  1.00 21.09     0.062 A 
HETATM    7  N4    D T 441     -17.712  -6.249   3.916  1.00 20.91    -0.294 N 
HETATM    8  C18   D T 441     -16.761  -7.319   4.336  1.00 20.23     0.134 C 
HETATM    9  C19   D T 441     -19.085  -6.560   3.796  1.00 22.47     0.261 A 
HETATM   10  O1    D T 441     -19.477  -7.713   3.982  1.00 22.92    -0.267 OA
HETATM   11  C20   D T 441     -19.998  -5.567   3.429  1.00 22.04     0.061 A 
HETATM   12  C21   D T 441     -19.573  -4.245   3.166  1.00 20.64     0.006 A 
HETATM   13  C22   D T 441     -20.571  -3.266   2.920  1.00 21.65     0.001 A 
HETATM   14  C23   D T 441     -20.599  -2.527   1.714  1.00 20.99     0.011 A 
HETATM   15  C24   D T 441     -21.640  -1.601   1.483  1.00 22.35     0.058 A 
HETATM   16 CL2    D T 441     -21.699  -0.690  -0.034  1.00 26.30    -0.082 Cl
HETATM   17  C25   D T 441     -22.648  -1.404   2.444  1.00 21.98     0.011 A 
HETATM   18  C26   D T 441     -22.625  -2.134   3.642  1.00 20.12     0.001 A 
HETATM   19  C27   D T 441     -21.593  -3.059   3.880  1.00 21.15     0.000 A 
ENDROOT
BRANCH   1  20
HETATM   20  C5    D T 441     -15.783  -1.103   2.369  1.00 20.67     0.342 C 
HETATM   21  N3    D T 441     -14.595  -0.822   3.202  1.00 22.80     0.629 N 
BRANCH  20  22
HETATM   22  C4    D T 441     -15.266  -1.225   1.020  1.00 19.37     0.100 A 
HETATM   23  N1    D T 441     -14.430  -0.366   0.469  1.00 19.33    -0.308 N 
HETATM   24  C1    D T 441     -13.799   0.825   1.096  1.00 19.43     0.132 C 
HETATM   25  C2    D T 441     -14.253  -0.753  -0.793  1.00 17.45     0.178 A 
HETATM   26  N2    D T 441     -15.009  -1.867  -0.983  1.00 18.66    -0.223 NA
HETATM   27  C3    D T 441     -15.650  -2.165   0.166  1.00 16.78     0.116 A 
ENDBRANCH  20  22
BRANCH  20  28
HETATM   28  C6    D T 441     -16.655   0.022   2.521  1.00 20.70     0.021 A 
HETATM   29  C7    D T 441     -16.523   0.875   3.647  1.00 21.08    -0.001 A 
HETATM   30  C8    D T 441     -17.330   2.013   3.781  1.00 21.56     0.011 A 
HETATM   31  C9    D T 441     -18.281   2.322   2.800  1.00 22.96     0.058 A 
HETATM   32 CL1    D T 441     -19.263   3.797   2.970  1.00 26.89    -0.082 Cl
HETATM   33  C10   D T 441     -18.433   1.486   1.674  1.00 22.08     0.011 A 
HETATM   34  C11   D T 441     -17.623   0.337   1.534  1.00 21.58    -0.001 A 
ENDBRANCH  20  28
ENDBRANCH   1  20
TORSDOF 3
ENDMDL
MODEL 7
REMARK VINA RESULT:    -5.558      4.970      8.467
REMARK INTER + INTRA:          -6.715
REMARK INTER:                  -6.745
REMARK INTRA:                   0.030
REMARK UNBOUND:                -0.183
REMARK  3 active torsions:
REMARK  status: ('A' for Active; 'I' for Inactive)
REMARK    1  A    between atoms: C4_6  and  C5_7 
REMARK    2  A    between atoms: C5_7  and  C6_8 
REMARK    3  A    between atoms: C5_7  and  C12_16 
ROOT
HETATM    1  C12   D T 441     -17.005  -4.499   3.202  1.00 19.85     0.021 A 
HETATM    2  C13   D T 441     -18.421  -4.352   3.278  1.00 19.83    -0.000 A 
HETATM    3  C14   D T 441     -19.233  -5.355   3.876  1.00 20.16     0.016 A 
HETATM    4  C15   D T 441     -16.415  -5.657   3.769  1.00 20.41    -0.000 A 
HETATM    5  C16   D T 441     -17.209  -6.652   4.359  1.00 20.73     0.017 A 
HETATM    6  C17   D T 441     -18.614  -6.519   4.408  1.00 21.09     0.062 A 
HETATM    7  N4    D T 441     -19.423  -7.577   4.933  1.00 20.91    -0.294 N 
HETATM    8  C18   D T 441     -18.802  -8.806   5.506  1.00 20.23     0.134 C 
HETATM    9  C19   D T 441     -20.832  -7.464   4.919  1.00 22.47     0.261 A 
HETATM   10  O1    D T 441     -21.531  -8.393   5.324  1.00 22.92    -0.267 OA
HETATM   11  C20   D T 441     -21.437  -6.310   4.410  1.00 22.04     0.061 A 
HETATM   12  C21   D T 441     -20.663  -5.245   3.898  1.00 20.64     0.006 A 
HETATM   13  C22   D T 441     -21.341  -4.059   3.513  1.00 21.65     0.001 A 
HETATM   14  C23   D T 441     -21.254  -3.553   2.195  1.00 20.99     0.011 A 
HETATM   15  C24   D T 441     -21.988  -2.401   1.837  1.00 22.35     0.058 A 
HETATM   16 CL2    D T 441     -21.907  -1.774   0.183  1.00 26.30    -0.082 Cl
HETATM   17  C25   D T 441     -22.803  -1.749   2.781  1.00 21.98     0.011 A 
HETATM   18  C26   D T 441     -22.892  -2.247   4.090  1.00 20.12     0.001 A 
HETATM   19  C27   D T 441     -22.166  -3.394   4.455  1.00 21.15     0.000 A 
ENDROOT
BRANCH   1  20
HETATM   20  C5    D T 441     -16.194  -3.599   2.414  1.00 20.67     0.342 C 
HETATM   21  N3    D T 441     -14.814  -3.929   2.825  1.00 22.80     0.629 N 
BRANCH  20  22
HETATM   22  C4    D T 441     -16.225  -3.853   0.988  1.00 19.37     0.100 A 
HETATM   23  N1    D T 441     -15.379  -3.323   0.125  1.00 19.33    -0.308 N 
HETATM   24  C1    D T 441     -14.214  -2.445   0.409  1.00 19.43     0.132 C 
HETATM   25  C2    D T 441     -15.770  -3.710  -1.088  1.00 17.45     0.178 A 
HETATM   26  N2    D T 441     -16.875  -4.485  -0.928  1.00 18.66    -0.223 NA
HETATM   27  C3    D T 441     -17.162  -4.576   0.387  1.00 16.78     0.116 A 
ENDBRANCH  20  22
BRANCH  20  28
HETATM   28  C6    D T 441     -16.386  -2.215   2.728  1.00 20.70     0.021 A 
HETATM   29  C7    D T 441     -15.374  -1.496   3.412  1.00 21.08    -0.001 A 
HETATM   30  C8    D T 441     -15.522  -0.127   3.674  1.00 21.56     0.011 A 
HETATM   31  C9    D T 441     -16.677   0.549   3.263  1.00 22.96     0.058 A 
HETATM   32 CL1    D T 441     -16.823   2.297   3.567  1.00 26.89    -0.082 Cl
HETATM   33  C10   D T 441     -17.700  -0.147   2.585  1.00 22.08     0.011 A 
HETATM   34  C11   D T 441     -17.557  -1.527   2.318  1.00 21.58    -0.001 A 
ENDBRANCH  20  28
ENDBRANCH   1  20
TORSDOF 3
ENDMDL
MODEL 8
REMARK VINA RESULT:    -5.541      4.773      8.400
REMARK INTER + INTRA:          -6.696
REMARK INTER:                  -6.450
REMARK INTRA:                  -0.246
REMARK UNBOUND:                -0.183
REMARK  3 active torsions:
REMARK  status: ('A' for Active; 'I' for Inactive)
REMARK    1  A    between atoms: C4_6  and  C5_7 
REMARK    2  A    between atoms: C5_7  and  C6_8 
REMARK    3  A    between atoms: C5_7  and  C12_16 
ROOT
HETATM    1  C12   D T 441     -16.989  -3.859   3.121  1.00 19.85     0.021 A 
HETATM    2  C13   D T 441     -17.961  -2.877   2.771  1.00 19.83    -0.000 A 
HETATM    3  C14   D T 441     -19.352  -3.132   2.923  1.00 20.16     0.016 A 
HETATM    4  C15   D T 441     -17.438  -5.090   3.662  1.00 20.41    -0.000 A 
HETATM    5  C16   D T 441     -18.808  -5.351   3.813  1.00 20.73     0.017 A 
HETATM    6  C17   D T 441     -19.771  -4.389   3.438  1.00 21.09     0.062 A 
HETATM    7  N4    D T 441     -21.168  -4.695   3.515  1.00 20.91    -0.294 N 
HETATM    8  C18   D T 441     -21.638  -6.002   4.060  1.00 20.23     0.134 C 
HETATM    9  C19   D T 441     -22.124  -3.752   3.077  1.00 22.47     0.261 A 
HETATM   10  O1    D T 441     -23.324  -4.031   3.095  1.00 22.92    -0.267 OA
HETATM   11  C20   D T 441     -21.709  -2.509   2.587  1.00 22.04     0.061 A 
HETATM   12  C21   D T 441     -20.338  -2.175   2.512  1.00 20.64     0.006 A 
HETATM   13  C22   D T 441     -19.999  -0.854   2.119  1.00 21.65     0.001 A 
HETATM   14  C23   D T 441     -19.187  -0.605   0.989  1.00 20.99     0.011 A 
HETATM   15  C24   D T 441     -18.918   0.726   0.598  1.00 22.35     0.058 A 
HETATM   16 CL2    D T 441     -17.924   1.049  -0.831  1.00 26.30    -0.082 Cl
HETATM   17  C25   D T 441     -19.448   1.806   1.326  1.00 21.98     0.011 A 
HETATM   18  C26   D T 441     -20.254   1.564   2.449  1.00 20.12     0.001 A 
HETATM   19  C27   D T 441     -20.528   0.243   2.844  1.00 21.15     0.000 A 
ENDROOT
BRANCH   1  20
HETATM   20  C5    D T 441     -15.596  -3.698   2.774  1.00 20.67     0.342 C 
HETATM   21  N3    D T 441     -14.897  -3.871   4.064  1.00 22.80     0.629 N 
BRANCH  20  22
HETATM   22  C4    D T 441     -15.062  -4.742   1.923  1.00 19.37     0.100 A 
HETATM   23  N1    D T 441     -15.656  -5.180   0.829  1.00 19.33    -0.308 N 
HETATM   24  C1    D T 441     -16.910  -4.678   0.208  1.00 19.43     0.132 C 
HETATM   25  C2    D T 441     -14.923  -6.192   0.368  1.00 17.45     0.178 A 
HETATM   26  N2    D T 441     -13.874  -6.351   1.219  1.00 18.66    -0.223 NA
HETATM   27  C3    D T 441     -13.963  -5.432   2.203  1.00 16.78     0.116 A 
ENDBRANCH  20  22
BRANCH  20  28
HETATM   28  C6    D T 441     -15.258  -2.387   2.308  1.00 20.70     0.021 A 
HETATM   29  C7    D T 441     -15.287  -1.287   3.203  1.00 21.08    -0.001 A 
HETATM   30  C8    D T 441     -14.903  -0.007   2.776  1.00 21.56     0.011 A 
HETATM   31  C9    D T 441     -14.485   0.199   1.456  1.00 22.96     0.058 A 
HETATM   32 CL1    D T 441     -13.959   1.823   0.950  1.00 26.89    -0.082 Cl
HETATM   33  C10   D T 441     -14.453  -0.879   0.547  1.00 22.08     0.011 A 
HETATM   34  C11   D T 441     -14.840  -2.170   0.970  1.00 21.58    -0.001 A 
ENDBRANCH  20  28
ENDBRANCH   1  20
TORSDOF 3
ENDMDL
MODEL 9
REMARK VINA RESULT:    -5.405      6.948     10.670
REMARK INTER + INTRA:          -6.536
REMARK INTER:                  -6.443
REMARK INTRA:                  -0.093
REMARK UNBOUND:                -0.183
REMARK  3 active torsions:
REMARK  status: ('A' for Active; 'I' for Inactive)
REMARK    1  A    between atoms: C4_6  and  C5_7 
REMARK    2  A    between atoms: C5_7  and  C6_8 
REMARK    3  A    between atoms: C5_7  and  C12_16 
ROOT
HETATM    1  C12   D T 441     -18.761  -5.814   3.491  1.00 19.85     0.021 A 
HETATM    2  C13   D T 441     -19.411  -6.664   4.432  1.00 19.83    -0.000 A 
HETATM    3  C14   D T 441     -20.671  -6.315   4.990  1.00 20.16     0.016 A 
HETATM    4  C15   D T 441     -19.417  -4.622   3.091  1.00 20.41    -0.000 A 
HETATM    5  C16   D T 441     -20.660  -4.269   3.638  1.00 20.73     0.017 A 
HETATM    6  C17   D T 441     -21.289  -5.097   4.593  1.00 21.09     0.062 A 
HETATM    7  N4    D T 441     -22.515  -4.688   5.210  1.00 20.91    -0.294 N 
HETATM    8  C18   D T 441     -23.190  -3.421   4.807  1.00 20.23     0.134 C 
HETATM    9  C19   D T 441     -23.105  -5.491   6.212  1.00 22.47     0.261 A 
HETATM   10  O1    D T 441     -24.132  -5.117   6.779  1.00 22.92    -0.267 OA
HETATM   11  C20   D T 441     -22.503  -6.696   6.588  1.00 22.04     0.061 A 
HETATM   12  C21   D T 441     -21.301  -7.131   5.987  1.00 20.64     0.006 A 
HETATM   13  C22   D T 441     -20.817  -8.420   6.333  1.00 21.65     0.001 A 
HETATM   14  C23   D T 441     -19.533  -8.599   6.898  1.00 20.99     0.011 A 
HETATM   15  C24   D T 441     -19.109  -9.891   7.279  1.00 22.35     0.058 A 
HETATM   16 CL2    D T 441     -17.514 -10.124   8.012  1.00 26.30    -0.082 Cl
HETATM   17  C25   D T 441     -19.952 -11.003   7.098  1.00 21.98     0.011 A 
HETATM   18  C26   D T 441     -21.226 -10.831   6.536  1.00 20.12     0.001 A 
HETATM   19  C27   D T 441     -21.657  -9.548   6.155  1.00 21.15     0.000 A 
ENDROOT
BRANCH   1  20
HETATM   20  C5    D T 441     -17.395  -6.047   3.082  1.00 20.67     0.342 C 
HETATM   21  N3    D T 441     -16.754  -6.577   4.303  1.00 22.80     0.629 N 
BRANCH  20  22
HETATM   22  C4    D T 441     -17.232  -7.096   2.095  1.00 19.37     0.100 A 
HETATM   23  N1    D T 441     -16.078  -7.670   1.810  1.00 19.33    -0.308 N 
HETATM   24  C1    D T 441     -14.759  -7.437   2.453  1.00 19.43     0.132 C 
HETATM   25  C2    D T 441     -16.303  -8.512   0.803  1.00 17.45     0.178 A 
HETATM   26  N2    D T 441     -17.623  -8.426   0.491  1.00 18.66    -0.223 NA
HETATM   27  C3    D T 441     -18.211  -7.529   1.310  1.00 16.78     0.116 A 
ENDBRANCH  20  22
BRANCH  20  28
HETATM   28  C6    D T 441     -16.677  -4.857   2.737  1.00 20.70     0.021 A 
HETATM   29  C7    D T 441     -16.765  -4.330   1.424  1.00 21.08    -0.001 A 
HETATM   30  C8    D T 441     -16.116  -3.134   1.087  1.00 21.56     0.011 A 
HETATM   31  C9    D T 441     -15.368  -2.444   2.049  1.00 22.96     0.058 A 
HETATM   32 CL1    D T 441     -14.589  -0.904   1.610  1.00 26.89    -0.082 Cl
HETATM   33  C10   D T 441     -15.262  -2.951   3.361  1.00 22.08     0.011 A 
HETATM   34  C11   D T 441     -15.913  -4.156   3.706  1.00 21.58    -0.001 A 
ENDBRANCH  20  28
ENDBRANCH   1  20
TORSDOF 3
ENDMDL
