MODEL 1
REMARK VINA RESULT:    -6.716      0.000      0.000
REMARK INTER + INTRA:          -8.114
REMARK INTER:                  -7.893
REMARK INTRA:                  -0.221
REMARK UNBOUND:                -0.221
REMARK  3 active torsions:
REMARK  status: ('A' for Active; 'I' for Inactive)
REMARK    1  A    between atoms: C4_6  and  C5_7 
REMARK    2  A    between atoms: C5_7  and  C6_8 
REMARK    3  A    between atoms: C5_7  and  C12_16 
ROOT
HETATM    1  C12   D T 441     -30.441   3.119  24.361  1.00 19.85     0.021 A 
HETATM    2  C13   D T 441     -30.065   3.823  23.180  1.00 19.83    -0.000 A 
HETATM    3  C14   D T 441     -30.732   3.595  21.944  1.00 20.16     0.016 A 
HETATM    4  C15   D T 441     -31.525   2.207  24.288  1.00 20.41    -0.000 A 
HETATM    5  C16   D T 441     -32.187   1.974  23.073  1.00 20.73     0.017 A 
HETATM    6  C17   D T 441     -31.794   2.649  21.897  1.00 21.09     0.062 A 
HETATM    7  N4    D T 441     -32.416   2.344  20.643  1.00 20.91    -0.294 N 
HETATM    8  C18   D T 441     -33.538   1.366  20.564  1.00 20.23     0.134 C 
HETATM    9  C19   D T 441     -31.974   2.977  19.461  1.00 22.47     0.261 A 
HETATM   10  O1    D T 441     -32.474   2.680  18.376  1.00 22.92    -0.267 OA
HETATM   11  C20   D T 441     -30.941   3.918  19.514  1.00 22.04     0.061 A 
HETATM   12  C21   D T 441     -30.317   4.250  20.738  1.00 20.64     0.006 A 
HETATM   13  C22   D T 441     -29.362   5.300  20.732  1.00 21.65     0.001 A 
HETATM   14  C23   D T 441     -28.030   5.090  21.157  1.00 20.99     0.011 A 
HETATM   15  C24   D T 441     -27.095   6.145  21.084  1.00 22.35     0.058 A 
HETATM   16 CL2    D T 441     -25.419   5.886  21.589  1.00 26.30    -0.082 Cl
HETATM   17  C25   D T 441     -27.479   7.408  20.595  1.00 21.98     0.011 A 
HETATM   18  C26   D T 441     -28.799   7.622  20.172  1.00 20.12     0.001 A 
HETATM   19  C27   D T 441     -29.736   6.576  20.241  1.00 21.15     0.000 A 
ENDROOT
BRANCH   1  20
HETATM   20  C5    D T 441     -29.642   3.179  25.562  1.00 20.67     0.342 C 
HETATM   21  N3    D T 441     -30.602   3.618  26.594  1.00 22.80     0.629 N 
BRANCH  20  22
HETATM   22  C4    D T 441     -29.159   1.896  26.030  1.00 19.37     0.100 A 
HETATM   23  N1    D T 441     -28.493   1.038  25.281  1.00 19.33    -0.308 N 
HETATM   24  C1    D T 441     -28.044   1.212  23.874  1.00 19.43     0.132 C 
HETATM   25  C2    D T 441     -28.298  -0.054  26.018  1.00 17.45     0.178 A 
HETATM   26  N2    D T 441     -28.868   0.173  27.232  1.00 18.66    -0.223 NA
HETATM   27  C3    D T 441     -29.412   1.408  27.238  1.00 16.78     0.116 A 
ENDBRANCH  20  22
BRANCH  20  28
HETATM   28  C6    D T 441     -28.610   4.173  25.528  1.00 20.70     0.021 A 
HETATM   29  C7    D T 441     -27.262   3.804  25.764  1.00 21.08    -0.001 A 
HETATM   30  C8    D T 441     -26.234   4.752  25.678  1.00 21.56     0.011 A 
HETATM   31  C9    D T 441     -26.528   6.083  25.353  1.00 22.96     0.058 A 
HETATM   32 CL1    D T 441     -25.202   7.261  25.203  1.00 26.89    -0.082 Cl
HETATM   33  C10   D T 441     -27.864   6.474  25.118  1.00 22.08     0.011 A 
HETATM   34  C11   D T 441     -28.904   5.523  25.205  1.00 21.58    -0.001 A 
ENDBRANCH  20  28
ENDBRANCH   1  20
TORSDOF 3
ENDMDL
MODEL 2
REMARK VINA RESULT:    -6.171      3.362      5.650
REMARK INTER + INTRA:          -7.474
REMARK INTER:                  -7.326
REMARK INTRA:                  -0.148
REMARK UNBOUND:                -0.221
REMARK  3 active torsions:
REMARK  status: ('A' for Active; 'I' for Inactive)
REMARK    1  A    between atoms: C4_6  and  C5_7 
REMARK    2  A    between atoms: C5_7  and  C6_8 
REMARK    3  A    between atoms: C5_7  and  C12_16 
ROOT
HETATM    1  C12   D T 441     -28.896   2.180  24.977  1.00 19.85     0.021 A 
HETATM    2  C13   D T 441     -29.690   2.525  23.845  1.00 19.83    -0.000 A 
HETATM    3  C14   D T 441     -29.355   3.638  23.023  1.00 20.16     0.016 A 
HETATM    4  C15   D T 441     -27.735   2.949  25.249  1.00 20.41    -0.000 A 
HETATM    5  C16   D T 441     -27.399   4.049  24.446  1.00 20.73     0.017 A 
HETATM    6  C17   D T 441     -28.202   4.409  23.343  1.00 21.09     0.062 A 
HETATM    7  N4    D T 441     -27.901   5.583  22.579  1.00 20.91    -0.294 N 
HETATM    8  C18   D T 441     -26.695   6.405  22.883  1.00 20.23     0.134 C 
HETATM    9  C19   D T 441     -28.746   5.973  21.517  1.00 22.47     0.261 A 
HETATM   10  O1    D T 441     -28.517   7.008  20.891  1.00 22.92    -0.267 OA
HETATM   11  C20   D T 441     -29.869   5.203  21.196  1.00 22.04     0.061 A 
HETATM   12  C21   D T 441     -30.184   4.033  21.922  1.00 20.64     0.006 A 
HETATM   13  C22   D T 441     -31.266   3.238  21.462  1.00 21.65     0.001 A 
HETATM   14  C23   D T 441     -32.379   2.956  22.288  1.00 20.99     0.011 A 
HETATM   15  C24   D T 441     -33.462   2.208  21.776  1.00 22.35     0.058 A 
HETATM   16 CL2    D T 441     -34.871   1.870  22.792  1.00 26.30    -0.082 Cl
HETATM   17  C25   D T 441     -33.442   1.737  20.449  1.00 21.98     0.011 A 
HETATM   18  C26   D T 441     -32.340   2.014  19.626  1.00 20.12     0.001 A 
HETATM   19  C27   D T 441     -31.258   2.759  20.128  1.00 21.15     0.000 A 
ENDROOT
BRANCH   1  20
HETATM   20  C5    D T 441     -29.338   1.195  25.936  1.00 20.67     0.342 C 
HETATM   21  N3    D T 441     -29.015   1.811  27.238  1.00 22.80     0.629 N 
BRANCH  20  22
HETATM   22  C4    D T 441     -30.772   0.989  25.971  1.00 19.37     0.100 A 
HETATM   23  N1    D T 441     -31.627   1.830  26.523  1.00 19.33    -0.308 N 
HETATM   24  C1    D T 441     -31.337   3.151  27.141  1.00 19.43     0.132 C 
HETATM   25  C2    D T 441     -32.832   1.269  26.444  1.00 17.45     0.178 A 
HETATM   26  N2    D T 441     -32.675   0.065  25.830  1.00 18.66    -0.223 NA
HETATM   27  C3    D T 441     -31.371  -0.110  25.531  1.00 16.78     0.116 A 
ENDBRANCH  20  22
BRANCH  20  28
HETATM   28  C6    D T 441     -28.610  -0.038  25.885  1.00 20.70     0.021 A 
HETATM   29  C7    D T 441     -28.310  -0.734  27.083  1.00 21.08    -0.001 A 
HETATM   30  C8    D T 441     -27.649  -1.969  27.048  1.00 21.56     0.011 A 
HETATM   31  C9    D T 441     -27.276  -2.534  25.820  1.00 22.96     0.058 A 
HETATM   32 CL1    D T 441     -26.478  -4.124  25.796  1.00 26.89    -0.082 Cl
HETATM   33  C10   D T 441     -27.559  -1.856  24.616  1.00 22.08     0.011 A 
HETATM   34  C11   D T 441     -28.225  -0.610  24.646  1.00 21.58    -0.001 A 
ENDBRANCH  20  28
ENDBRANCH   1  20
TORSDOF 3
ENDMDL
MODEL 3
REMARK VINA RESULT:    -5.944      3.190      5.427
REMARK INTER + INTRA:          -7.207
REMARK INTER:                  -7.025
REMARK INTRA:                  -0.182
REMARK UNBOUND:                -0.221
REMARK  3 active torsions:
REMARK  status: ('A' for Active; 'I' for Inactive)
REMARK    1  A    between atoms: C4_6  and  C5_7 
REMARK    2  A    between atoms: C5_7  and  C6_8 
REMARK    3  A    between atoms: C5_7  and  C12_16 
ROOT
HETATM    1  C12   D T 441     -28.774   3.370  24.968  1.00 19.85     0.021 A 
HETATM    2  C13   D T 441     -29.474   3.604  23.749  1.00 19.83    -0.000 A 
HETATM    3  C14   D T 441     -28.994   4.545  22.795  1.00 20.16     0.016 A 
HETATM    4  C15   D T 441     -27.561   4.069  25.198  1.00 20.41    -0.000 A 
HETATM    5  C16   D T 441     -27.082   5.001  24.264  1.00 20.73     0.017 A 
HETATM    6  C17   D T 441     -27.792   5.255  23.070  1.00 21.09     0.062 A 
HETATM    7  N4    D T 441     -27.344   6.268  22.162  1.00 20.91    -0.294 N 
HETATM    8  C18   D T 441     -26.082   7.021  22.418  1.00 20.23     0.134 C 
HETATM    9  C19   D T 441     -28.093   6.561  21.002  1.00 22.47     0.261 A 
HETATM   10  O1    D T 441     -27.736   7.464  20.246  1.00 22.92    -0.267 OA
HETATM   11  C20   D T 441     -29.265   5.849  20.727  1.00 22.04     0.061 A 
HETATM   12  C21   D T 441     -29.726   4.836  21.597  1.00 20.64     0.006 A 
HETATM   13  C22   D T 441     -30.853   4.076  21.191  1.00 21.65     0.001 A 
HETATM   14  C23   D T 441     -32.028   4.019  21.976  1.00 20.99     0.011 A 
HETATM   15  C24   D T 441     -33.149   3.296  21.512  1.00 22.35     0.058 A 
HETATM   16 CL2    D T 441     -34.633   3.240  22.474  1.00 26.30    -0.082 Cl
HETATM   17  C25   D T 441     -33.106   2.628  20.273  1.00 21.98     0.011 A 
HETATM   18  C26   D T 441     -31.943   2.681  19.491  1.00 20.12     0.001 A 
HETATM   19  C27   D T 441     -30.823   3.399  19.946  1.00 21.15     0.000 A 
ENDROOT
BRANCH   1  20
HETATM   20  C5    D T 441     -29.355   2.585  26.032  1.00 20.67     0.342 C 
HETATM   21  N3    D T 441     -28.647   3.059  27.238  1.00 22.80     0.629 N 
BRANCH  20  22
HETATM   22  C4    D T 441     -30.753   2.863  26.292  1.00 19.37     0.100 A 
HETATM   23  N1    D T 441     -31.752   2.326  25.618  1.00 19.33    -0.308 N 
HETATM   24  C1    D T 441     -31.680   1.308  24.538  1.00 19.43     0.132 C 
HETATM   25  C2    D T 441     -32.873   2.882  26.073  1.00 17.45     0.178 A 
HETATM   26  N2    D T 441     -32.517   3.770  27.041  1.00 18.66    -0.223 NA
HETATM   27  C3    D T 441     -31.175   3.757  27.178  1.00 16.78     0.116 A 
ENDBRANCH  20  22
BRANCH  20  28
HETATM   28  C6    D T 441     -29.085   1.181  25.937  1.00 20.70     0.021 A 
HETATM   29  C7    D T 441     -28.479   0.654  24.768  1.00 21.08    -0.001 A 
HETATM   30  C8    D T 441     -28.156  -0.707  24.681  1.00 21.56     0.011 A 
HETATM   31  C9    D T 441     -28.429  -1.567  25.754  1.00 22.96     0.058 A 
HETATM   32 CL1    D T 441     -27.968  -3.282  25.639  1.00 26.89    -0.082 Cl
HETATM   33  C10   D T 441     -29.036  -1.065  26.925  1.00 22.08     0.011 A 
HETATM   34  C11   D T 441     -29.364   0.306  27.017  1.00 21.58    -0.001 A 
ENDBRANCH  20  28
ENDBRANCH   1  20
TORSDOF 3
ENDMDL
MODEL 4
REMARK VINA RESULT:    -5.547      2.681      6.232
REMARK INTER + INTRA:          -6.741
REMARK INTER:                  -6.544
REMARK INTRA:                  -0.196
REMARK UNBOUND:                -0.221
REMARK  3 active torsions:
REMARK  status: ('A' for Active; 'I' for Inactive)
REMARK    1  A    between atoms: C4_6  and  C5_7 
REMARK    2  A    between atoms: C5_7  and  C6_8 
REMARK    3  A    between atoms: C5_7  and  C12_16 
ROOT
HETATM    1  C12   D T 441     -31.835   3.804  20.305  1.00 19.85     0.021 A 
HETATM    2  C13   D T 441     -31.268   3.351  21.532  1.00 19.83    -0.000 A 
HETATM    3  C14   D T 441     -31.984   2.474  22.393  1.00 20.16     0.016 A 
HETATM    4  C15   D T 441     -33.121   3.330  19.938  1.00 20.41    -0.000 A 
HETATM    5  C16   D T 441     -33.835   2.467  20.783  1.00 20.73     0.017 A 
HETATM    6  C17   D T 441     -33.286   2.042  22.012  1.00 21.09     0.062 A 
HETATM    7  N4    D T 441     -34.053   1.230  22.908  1.00 20.91    -0.294 N 
HETATM    8  C18   D T 441     -35.416   0.754  22.532  1.00 20.23     0.134 C 
HETATM    9  C19   D T 441     -33.521   0.863  24.164  1.00 22.47     0.261 A 
HETATM   10  O1    D T 441     -34.198   0.207  24.955  1.00 22.92    -0.267 OA
HETATM   11  C20   D T 441     -32.235   1.276  24.527  1.00 22.04     0.061 A 
HETATM   12  C21   D T 441     -31.449   2.066  23.659  1.00 20.64     0.006 A 
HETATM   13  C22   D T 441     -30.111   2.342  24.044  1.00 21.65     0.001 A 
HETATM   14  C23   D T 441     -29.645   3.669  24.197  1.00 20.99     0.011 A 
HETATM   15  C24   D T 441     -28.323   3.903  24.635  1.00 22.35     0.058 A 
HETATM   16 CL2    D T 441     -27.738   5.558  24.855  1.00 26.30    -0.082 Cl
HETATM   17  C25   D T 441     -27.462   2.825  24.918  1.00 21.98     0.011 A 
HETATM   18  C26   D T 441     -27.919   1.508  24.767  1.00 20.12     0.001 A 
HETATM   19  C27   D T 441     -29.235   1.266  24.332  1.00 21.15     0.000 A 
ENDROOT
BRANCH   1  20
HETATM   20  C5    D T 441     -31.216   4.855  19.530  1.00 20.67     0.342 C 
HETATM   21  N3    D T 441     -31.026   4.238  18.202  1.00 22.80     0.629 N 
BRANCH  20  22
HETATM   22  C4    D T 441     -32.065   6.003  19.285  1.00 19.37     0.100 A 
HETATM   23  N1    D T 441     -32.659   6.701  20.235  1.00 19.33    -0.308 N 
HETATM   24  C1    D T 441     -32.541   6.522  21.706  1.00 19.43     0.132 C 
HETATM   25  C2    D T 441     -33.420   7.612  19.632  1.00 17.45     0.178 A 
HETATM   26  N2    D T 441     -33.267   7.440  18.291  1.00 18.66    -0.223 NA
HETATM   27  C3    D T 441     -32.409   6.421  18.073  1.00 16.78     0.116 A 
ENDBRANCH  20  22
BRANCH  20  28
HETATM   28  C6    D T 441     -29.911   5.227  19.989  1.00 20.70     0.021 A 
HETATM   29  C7    D T 441     -29.520   6.590  19.984  1.00 21.08    -0.001 A 
HETATM   30  C8    D T 441     -28.269   6.978  20.483  1.00 21.56     0.011 A 
HETATM   31  C9    D T 441     -27.387   6.018  20.996  1.00 22.96     0.058 A 
HETATM   32 CL1    D T 441     -25.822   6.538  21.667  1.00 26.89    -0.082 Cl
HETATM   33  C10   D T 441     -27.753   4.655  21.007  1.00 22.08     0.011 A 
HETATM   34  C11   D T 441     -29.012   4.259  20.505  1.00 21.58    -0.001 A 
ENDBRANCH  20  28
ENDBRANCH   1  20
TORSDOF 3
ENDMDL
MODEL 5
REMARK VINA RESULT:    -5.433     11.692     15.506
REMARK INTER + INTRA:          -6.606
REMARK INTER:                  -6.990
REMARK INTRA:                   0.383
REMARK UNBOUND:                -0.221
REMARK  3 active torsions:
REMARK  status: ('A' for Active; 'I' for Inactive)
REMARK    1  A    between atoms: C4_6  and  C5_7 
REMARK    2  A    between atoms: C5_7  and  C6_8 
REMARK    3  A    between atoms: C5_7  and  C12_16 
ROOT
HETATM    1  C12   D T 441     -36.464  -7.898  17.182  1.00 19.85     0.021 A 
HETATM    2  C13   D T 441     -36.811  -7.076  18.293  1.00 19.83    -0.000 A 
HETATM    3  C14   D T 441     -36.555  -5.677  18.281  1.00 20.16     0.016 A 
HETATM    4  C15   D T 441     -35.888  -7.285  16.040  1.00 20.41    -0.000 A 
HETATM    5  C16   D T 441     -35.630  -5.906  16.020  1.00 20.73     0.017 A 
HETATM    6  C17   D T 441     -35.946  -5.097  17.132  1.00 21.09     0.062 A 
HETATM    7  N4    D T 441     -35.602  -3.706  17.140  1.00 20.91    -0.294 N 
HETATM    8  C18   D T 441     -34.972  -3.068  15.948  1.00 20.23     0.134 C 
HETATM    9  C19   D T 441     -35.863  -2.918  18.281  1.00 22.47     0.261 A 
HETATM   10  O1    D T 441     -35.523  -1.735  18.308  1.00 22.92    -0.267 OA
HETATM   11  C20   D T 441     -36.477  -3.488  19.401  1.00 22.04     0.061 A 
HETATM   12  C21   D T 441     -36.840  -4.853  19.419  1.00 20.64     0.006 A 
HETATM   13  C22   D T 441     -37.567  -5.331  20.540  1.00 21.65     0.001 A 
HETATM   14  C23   D T 441     -37.079  -6.389  21.342  1.00 20.99     0.011 A 
HETATM   15  C24   D T 441     -37.806  -6.799  22.481  1.00 22.35     0.058 A 
HETATM   16 CL2    D T 441     -37.191  -8.104  23.506  1.00 26.30    -0.082 Cl
HETATM   17  C25   D T 441     -39.015  -6.165  22.825  1.00 21.98     0.011 A 
HETATM   18  C26   D T 441     -39.503  -5.115  22.033  1.00 20.12     0.001 A 
HETATM   19  C27   D T 441     -38.786  -4.700  20.897  1.00 21.15     0.000 A 
ENDROOT
BRANCH   1  20
HETATM   20  C5    D T 441     -36.520  -9.340  17.263  1.00 20.67     0.342 C 
HETATM   21  N3    D T 441     -37.351  -9.586  18.459  1.00 22.80     0.629 N 
BRANCH  20  22
HETATM   22  C4    D T 441     -37.237  -9.978  16.178  1.00 19.37     0.100 A 
HETATM   23  N1    D T 441     -36.732 -10.182  14.976  1.00 19.33    -0.308 N 
HETATM   24  C1    D T 441     -35.354  -9.884  14.503  1.00 19.43     0.132 C 
HETATM   25  C2    D T 441     -37.703 -10.702  14.228  1.00 17.45     0.178 A 
HETATM   26  N2    D T 441     -38.807 -10.803  15.016  1.00 18.66    -0.223 NA
HETATM   27  C3    D T 441     -38.511 -10.344  16.250  1.00 16.78     0.116 A 
ENDBRANCH  20  22
BRANCH  20  28
HETATM   28  C6    D T 441     -35.254  -9.959  17.521  1.00 20.70     0.021 A 
HETATM   29  C7    D T 441     -34.120  -9.160  17.812  1.00 21.08    -0.001 A 
HETATM   30  C8    D T 441     -32.888  -9.750  18.122  1.00 21.56     0.011 A 
HETATM   31  C9    D T 441     -32.763 -11.146  18.151  1.00 22.96     0.058 A 
HETATM   32 CL1    D T 441     -31.200 -11.875  18.593  1.00 26.89    -0.082 Cl
HETATM   33  C10   D T 441     -33.877 -11.961  17.860  1.00 22.08     0.011 A 
HETATM   34  C11   D T 441     -35.121 -11.371  17.546  1.00 21.58    -0.001 A 
ENDBRANCH  20  28
ENDBRANCH   1  20
TORSDOF 3
ENDMDL
MODEL 6
REMARK VINA RESULT:    -5.422      2.581      5.998
REMARK INTER + INTRA:          -6.594
REMARK INTER:                  -6.263
REMARK INTRA:                  -0.331
REMARK UNBOUND:                -0.221
REMARK  3 active torsions:
REMARK  status: ('A' for Active; 'I' for Inactive)
REMARK    1  A    between atoms: C4_6  and  C5_7 
REMARK    2  A    between atoms: C5_7  and  C6_8 
REMARK    3  A    between atoms: C5_7  and  C12_16 
ROOT
HETATM    1  C12   D T 441     -31.440   3.312  21.992  1.00 19.85     0.021 A 
HETATM    2  C13   D T 441     -30.757   3.173  23.235  1.00 19.83    -0.000 A 
HETATM    3  C14   D T 441     -31.228   2.279  24.236  1.00 20.16     0.016 A 
HETATM    4  C15   D T 441     -32.585   2.509  21.755  1.00 20.41    -0.000 A 
HETATM    5  C16   D T 441     -33.058   1.626  22.738  1.00 20.73     0.017 A 
HETATM    6  C17   D T 441     -32.399   1.511  23.981  1.00 21.09     0.062 A 
HETATM    7  N4    D T 441     -32.935   0.673  25.011  1.00 20.91    -0.294 N 
HETATM    8  C18   D T 441     -34.155  -0.151  24.770  1.00 20.23     0.134 C 
HETATM    9  C19   D T 441     -32.307   0.612  26.274  1.00 22.47     0.261 A 
HETATM   10  O1    D T 441     -32.794  -0.069  27.176  1.00 22.92    -0.267 OA
HETATM   11  C20   D T 441     -31.147   1.355  26.515  1.00 22.04     0.061 A 
HETATM   12  C21   D T 441     -30.587   2.181  25.515  1.00 20.64     0.006 A 
HETATM   13  C22   D T 441     -29.344   2.808  25.792  1.00 21.65     0.001 A 
HETATM   14  C23   D T 441     -29.201   4.215  25.752  1.00 20.99     0.011 A 
HETATM   15  C24   D T 441     -27.963   4.804  26.088  1.00 22.35     0.058 A 
HETATM   16 CL2    D T 441     -27.780   6.565  26.065  1.00 26.30    -0.082 Cl
HETATM   17  C25   D T 441     -26.867   4.004  26.461  1.00 21.98     0.011 A 
HETATM   18  C26   D T 441     -27.003   2.608  26.502  1.00 20.12     0.001 A 
HETATM   19  C27   D T 441     -28.233   2.013  26.170  1.00 21.15     0.000 A 
ENDROOT
BRANCH   1  20
HETATM   20  C5    D T 441     -31.102   4.362  21.059  1.00 20.67     0.342 C 
HETATM   21  N3    D T 441     -31.059   3.667  19.757  1.00 22.80     0.629 N 
BRANCH  20  22
HETATM   22  C4    D T 441     -32.121   5.379  20.901  1.00 19.37     0.100 A 
HETATM   23  N1    D T 441     -32.199   6.194  19.866  1.00 19.33    -0.308 N 
HETATM   24  C1    D T 441     -31.345   6.209  18.650  1.00 19.43     0.132 C 
HETATM   25  C2    D T 441     -33.197   7.041  20.112  1.00 17.45     0.178 A 
HETATM   26  N2    D T 441     -33.716   6.711  21.325  1.00 18.66    -0.223 NA
HETATM   27  C3    D T 441     -33.033   5.659  21.824  1.00 16.78     0.116 A 
ENDBRANCH  20  22
BRANCH  20  28
HETATM   28  C6    D T 441     -29.797   4.921  21.257  1.00 20.70     0.021 A 
HETATM   29  C7    D T 441     -29.592   5.906  22.255  1.00 21.08    -0.001 A 
HETATM   30  C8    D T 441     -28.313   6.422  22.500  1.00 21.56     0.011 A 
HETATM   31  C9    D T 441     -27.215   5.965  21.758  1.00 22.96     0.058 A 
HETATM   32 CL1    D T 441     -25.591   6.600  22.118  1.00 26.89    -0.082 Cl
HETATM   33  C10   D T 441     -27.396   4.989  20.756  1.00 22.08     0.011 A 
HETATM   34  C11   D T 441     -28.684   4.467  20.505  1.00 21.58    -0.001 A 
ENDBRANCH  20  28
ENDBRANCH   1  20
TORSDOF 3
ENDMDL
MODEL 7
REMARK VINA RESULT:    -5.390     11.692     14.709
REMARK INTER + INTRA:          -6.556
REMARK INTER:                  -6.429
REMARK INTRA:                  -0.127
REMARK UNBOUND:                -0.221
REMARK  3 active torsions:
REMARK  status: ('A' for Active; 'I' for Inactive)
REMARK    1  A    between atoms: C4_6  and  C5_7 
REMARK    2  A    between atoms: C5_7  and  C6_8 
REMARK    3  A    between atoms: C5_7  and  C12_16 
ROOT
HETATM    1  C12   D T 441     -36.494  -7.694  18.427  1.00 19.85     0.021 A 
HETATM    2  C13   D T 441     -36.480  -6.338  17.988  1.00 19.83    -0.000 A 
HETATM    3  C14   D T 441     -36.845  -5.279  18.864  1.00 20.16     0.016 A 
HETATM    4  C15   D T 441     -36.844  -7.967  19.774  1.00 20.41    -0.000 A 
HETATM    5  C16   D T 441     -37.207  -6.928  20.644  1.00 20.73     0.017 A 
HETATM    6  C17   D T 441     -37.223  -5.587  20.201  1.00 21.09     0.062 A 
HETATM    7  N4    D T 441     -37.677  -4.542  21.069  1.00 20.91    -0.294 N 
HETATM    8  C18   D T 441     -38.070  -4.833  22.477  1.00 20.23     0.134 C 
HETATM    9  C19   D T 441     -37.751  -3.213  20.598  1.00 22.47     0.261 A 
HETATM   10  O1    D T 441     -38.187  -2.321  21.326  1.00 22.92    -0.267 OA
HETATM   11  C20   D T 441     -37.362  -2.911  19.289  1.00 22.04     0.061 A 
HETATM   12  C21   D T 441     -36.898  -3.918  18.414  1.00 20.64     0.006 A 
HETATM   13  C22   D T 441     -36.407  -3.519  17.144  1.00 21.65     0.001 A 
HETATM   14  C23   D T 441     -36.973  -4.010  15.944  1.00 20.99     0.011 A 
HETATM   15  C24   D T 441     -36.493  -3.547  14.700  1.00 22.35     0.058 A 
HETATM   16 CL2    D T 441     -37.211  -4.135  13.193  1.00 26.30    -0.082 Cl
HETATM   17  C25   D T 441     -35.453  -2.600  14.642  1.00 21.98     0.011 A 
HETATM   18  C26   D T 441     -34.888  -2.110  15.828  1.00 20.12     0.001 A 
HETATM   19  C27   D T 441     -35.360  -2.566  17.072  1.00 21.15     0.000 A 
ENDROOT
BRANCH   1  20
HETATM   20  C5    D T 441     -36.336  -8.789  17.497  1.00 20.67     0.342 C 
HETATM   21  N3    D T 441     -37.440  -9.704  17.850  1.00 22.80     0.629 N 
BRANCH  20  22
HETATM   22  C4    D T 441     -36.574  -8.442  16.111  1.00 19.37     0.100 A 
HETATM   23  N1    D T 441     -37.769  -8.211  15.601  1.00 19.33    -0.308 N 
HETATM   24  C1    D T 441     -39.074  -8.184  16.311  1.00 19.43     0.132 C 
HETATM   25  C2    D T 441     -37.603  -8.015  14.294  1.00 17.45     0.178 A 
HETATM   26  N2    D T 441     -36.273  -8.137  14.034  1.00 18.66    -0.223 NA
HETATM   27  C3    D T 441     -35.623  -8.407  15.185  1.00 16.78     0.116 A 
ENDBRANCH  20  22
BRANCH  20  28
HETATM   28  C6    D T 441     -35.126  -9.536  17.675  1.00 20.70     0.021 A 
HETATM   29  C7    D T 441     -33.908  -8.860  17.939  1.00 21.08    -0.001 A 
HETATM   30  C8    D T 441     -32.727  -9.576  18.172  1.00 21.56     0.011 A 
HETATM   31  C9    D T 441     -32.736 -10.977  18.147  1.00 22.96     0.058 A 
HETATM   32 CL1    D T 441     -31.234 -11.868  18.491  1.00 26.89    -0.082 Cl
HETATM   33  C10   D T 441     -33.936 -11.671  17.881  1.00 22.08     0.011 A 
HETATM   34  C11   D T 441     -35.129 -10.954  17.645  1.00 21.58    -0.001 A 
ENDBRANCH  20  28
ENDBRANCH   1  20
TORSDOF 3
ENDMDL
MODEL 8
REMARK VINA RESULT:    -5.374      3.137      5.791
REMARK INTER + INTRA:          -6.537
REMARK INTER:                  -6.339
REMARK INTRA:                  -0.198
REMARK UNBOUND:                -0.221
REMARK  3 active torsions:
REMARK  status: ('A' for Active; 'I' for Inactive)
REMARK    1  A    between atoms: C4_6  and  C5_7 
REMARK    2  A    between atoms: C5_7  and  C6_8 
REMARK    3  A    between atoms: C5_7  and  C12_16 
ROOT
HETATM    1  C12   D T 441     -29.858   3.891  21.650  1.00 19.85     0.021 A 
HETATM    2  C13   D T 441     -31.111   3.313  21.293  1.00 19.83    -0.000 A 
HETATM    3  C14   D T 441     -31.664   3.500  19.996  1.00 20.16     0.016 A 
HETATM    4  C15   D T 441     -29.150   4.632  20.669  1.00 20.41    -0.000 A 
HETATM    5  C16   D T 441     -29.689   4.824  19.388  1.00 20.73     0.017 A 
HETATM    6  C17   D T 441     -30.944   4.276  19.044  1.00 21.09     0.062 A 
HETATM    7  N4    D T 441     -31.528   4.547  17.764  1.00 20.91    -0.294 N 
HETATM    8  C18   D T 441     -30.794   5.348  16.743  1.00 20.23     0.134 C 
HETATM    9  C19   D T 441     -32.812   4.049  17.452  1.00 22.47     0.261 A 
HETATM   10  O1    D T 441     -33.336   4.322  16.372  1.00 22.92    -0.267 OA
HETATM   11  C20   D T 441     -33.508   3.274  18.384  1.00 22.04     0.061 A 
HETATM   12  C21   D T 441     -32.953   2.978  19.649  1.00 20.64     0.006 A 
HETATM   13  C22   D T 441     -33.665   2.086  20.493  1.00 21.65     0.001 A 
HETATM   14  C23   D T 441     -34.093   2.473  21.784  1.00 20.99     0.011 A 
HETATM   15  C24   D T 441     -34.846   1.576  22.572  1.00 22.35     0.058 A 
HETATM   16 CL2    D T 441     -35.409   2.059  24.179  1.00 26.30    -0.082 Cl
HETATM   17  C25   D T 441     -35.173   0.296  22.085  1.00 21.98     0.011 A 
HETATM   18  C26   D T 441     -34.750  -0.093  20.805  1.00 20.12     0.001 A 
HETATM   19  C27   D T 441     -34.000   0.795  20.013  1.00 21.15     0.000 A 
ENDROOT
BRANCH   1  20
HETATM   20  C5    D T 441     -29.389   3.891  23.017  1.00 20.67     0.342 C 
HETATM   21  N3    D T 441     -27.958   4.231  22.891  1.00 22.80     0.629 N 
BRANCH  20  22
HETATM   22  C4    D T 441     -29.946   4.941  23.846  1.00 19.37     0.100 A 
HETATM   23  N1    D T 441     -29.454   5.297  25.017  1.00 19.33    -0.308 N 
HETATM   24  C1    D T 441     -28.235   4.779  25.691  1.00 19.43     0.132 C 
HETATM   25  C2    D T 441     -30.273   6.220  25.519  1.00 17.45     0.178 A 
HETATM   26  N2    D T 441     -31.272   6.406  24.614  1.00 18.66    -0.223 NA
HETATM   27  C3    D T 441     -31.064   5.595  23.556  1.00 16.78     0.116 A 
ENDBRANCH  20  22
BRANCH  20  28
HETATM   28  C6    D T 441     -29.441   2.607  23.651  1.00 20.70     0.021 A 
HETATM   29  C7    D T 441     -28.279   1.796  23.706  1.00 21.08    -0.001 A 
HETATM   30  C8    D T 441     -28.297   0.564  24.372  1.00 21.56     0.011 A 
HETATM   31  C9    D T 441     -29.470   0.117  24.996  1.00 22.96     0.058 A 
HETATM   32 CL1    D T 441     -29.458  -1.430  25.876  1.00 26.89    -0.082 Cl
HETATM   33  C10   D T 441     -30.640   0.905  24.950  1.00 22.08     0.011 A 
HETATM   34  C11   D T 441     -30.627   2.148  24.279  1.00 21.58    -0.001 A 
ENDBRANCH  20  28
ENDBRANCH   1  20
TORSDOF 3
ENDMDL
MODEL 9
REMARK VINA RESULT:    -5.262      3.292      5.762
REMARK INTER + INTRA:          -6.406
REMARK INTER:                  -6.179
REMARK INTRA:                  -0.227
REMARK UNBOUND:                -0.221
REMARK  3 active torsions:
REMARK  status: ('A' for Active; 'I' for Inactive)
REMARK    1  A    between atoms: C4_6  and  C5_7 
REMARK    2  A    between atoms: C5_7  and  C6_8 
REMARK    3  A    between atoms: C5_7  and  C12_16 
ROOT
HETATM    1  C12   D T 441     -29.430   2.988  22.727  1.00 19.85     0.021 A 
HETATM    2  C13   D T 441     -30.769   2.710  22.326  1.00 19.83    -0.000 A 
HETATM    3  C14   D T 441     -31.291   3.222  21.106  1.00 20.16     0.016 A 
HETATM    4  C15   D T 441     -28.610   3.758  21.864  1.00 20.41    -0.000 A 
HETATM    5  C16   D T 441     -29.118   4.269  20.659  1.00 20.73     0.017 A 
HETATM    6  C17   D T 441     -30.453   4.020  20.276  1.00 21.09     0.062 A 
HETATM    7  N4    D T 441     -30.991   4.615  19.090  1.00 20.91    -0.294 N 
HETATM    8  C18   D T 441     -30.135   5.446  18.195  1.00 20.23     0.134 C 
HETATM    9  C19   D T 441     -32.346   4.413  18.747  1.00 22.47     0.261 A 
HETATM   10  O1    D T 441     -32.822   4.963  17.755  1.00 22.92    -0.267 OA
HETATM   11  C20   D T 441     -33.161   3.615  19.556  1.00 22.04     0.061 A 
HETATM   12  C21   D T 441     -32.656   3.004  20.725  1.00 20.64     0.006 A 
HETATM   13  C22   D T 441     -33.508   2.111  21.428  1.00 21.65     0.001 A 
HETATM   14  C23   D T 441     -33.848   2.328  22.783  1.00 20.99     0.011 A 
HETATM   15  C24   D T 441     -34.742   1.447  23.431  1.00 22.35     0.058 A 
HETATM   16 CL2    D T 441     -35.195   1.723  25.120  1.00 26.30    -0.082 Cl
HETATM   17  C25   D T 441     -35.297   0.354  22.740  1.00 21.98     0.011 A 
HETATM   18  C26   D T 441     -34.962   0.135  21.396  1.00 20.12     0.001 A 
HETATM   19  C27   D T 441     -34.073   1.007  20.742  1.00 21.15     0.000 A 
ENDROOT
BRANCH   1  20
HETATM   20  C5    D T 441     -28.956   2.659  24.052  1.00 20.67     0.342 C 
HETATM   21  N3    D T 441     -27.840   1.726  23.798  1.00 22.80     0.629 N 
BRANCH  20  22
HETATM   22  C4    D T 441     -28.356   3.765  24.769  1.00 19.37     0.100 A 
HETATM   23  N1    D T 441     -28.886   4.971  24.847  1.00 19.33    -0.308 N 
HETATM   24  C1    D T 441     -30.191   5.431  24.303  1.00 19.43     0.132 C 
HETATM   25  C2    D T 441     -28.016   5.737  25.502  1.00 17.45     0.178 A 
HETATM   26  N2    D T 441     -26.947   4.956  25.815  1.00 18.66    -0.223 NA
HETATM   27  C3    D T 441     -27.164   3.708  25.350  1.00 16.78     0.116 A 
ENDBRANCH  20  22
BRANCH  20  28
HETATM   28  C6    D T 441     -29.904   1.939  24.849  1.00 20.70     0.021 A 
HETATM   29  C7    D T 441     -30.964   2.632  25.488  1.00 21.08    -0.001 A 
HETATM   30  C8    D T 441     -31.933   1.938  26.224  1.00 21.56     0.011 A 
HETATM   31  C9    D T 441     -31.866   0.542  26.337  1.00 22.96     0.058 A 
HETATM   32 CL1    D T 441     -33.133  -0.324  27.238  1.00 26.89    -0.082 Cl
HETATM   33  C10   D T 441     -30.817  -0.168  25.714  1.00 22.08     0.011 A 
HETATM   34  C11   D T 441     -29.838   0.528  24.971  1.00 21.58    -0.001 A 
ENDBRANCH  20  28
ENDBRANCH   1  20
TORSDOF 3
ENDMDL
