MODEL 1
REMARK VINA RESULT:    -9.237      0.000      0.000
REMARK INTER + INTRA:         -10.937
REMARK INTER:                 -10.857
REMARK INTRA:                  -0.079
REMARK UNBOUND:                -0.079
REMARK  3 active torsions:
REMARK  status: ('A' for Active; 'I' for Inactive)
REMARK    1  A    between atoms: C4_6  and  C5_7 
REMARK    2  A    between atoms: C5_7  and  C6_8 
REMARK    3  A    between atoms: C5_7  and  C12_16 
ROOT
HETATM    1  C12   D T 441       0.754   9.400  -6.867  1.00 19.85     0.021 A 
HETATM    2  C13   D T 441       0.749  10.700  -6.285  1.00 19.83    -0.000 A 
HETATM    3  C14   D T 441       1.921  11.244  -5.690  1.00 20.16     0.016 A 
HETATM    4  C15   D T 441       1.969   8.667  -6.877  1.00 20.41    -0.000 A 
HETATM    5  C16   D T 441       3.130   9.195  -6.291  1.00 20.73     0.017 A 
HETATM    6  C17   D T 441       3.116  10.471  -5.687  1.00 21.09     0.062 A 
HETATM    7  N4    D T 441       4.278  10.968  -5.014  1.00 20.91    -0.294 N 
HETATM    8  C18   D T 441       5.548  10.184  -5.003  1.00 20.23     0.134 C 
HETATM    9  C19   D T 441       4.238  12.217  -4.357  1.00 22.47     0.261 A 
HETATM   10  O1    D T 441       5.222  12.622  -3.737  1.00 22.92    -0.267 OA
HETATM   11  C20   D T 441       3.067  12.981  -4.377  1.00 22.04     0.061 A 
HETATM   12  C21   D T 441       1.909  12.523  -5.042  1.00 20.64     0.006 A 
HETATM   13  C22   D T 441       0.799  13.405  -5.124  1.00 21.65     0.001 A 
HETATM   14  C23   D T 441      -0.467  13.051  -4.602  1.00 20.99     0.011 A 
HETATM   15  C24   D T 441      -1.531  13.978  -4.653  1.00 22.35     0.058 A 
HETATM   16 CL2    D T 441      -3.112  13.556  -3.979  1.00 26.30    -0.082 Cl
HETATM   17  C25   D T 441      -1.344  15.252  -5.223  1.00 21.98     0.011 A 
HETATM   18  C26   D T 441      -0.090  15.607  -5.743  1.00 20.12     0.001 A 
HETATM   19  C27   D T 441       0.975  14.691  -5.695  1.00 21.15     0.000 A 
ENDROOT
BRANCH   1  20
HETATM   20  C5    D T 441      -0.470   8.752  -7.280  1.00 20.67     0.342 C 
HETATM   21  N3    D T 441      -1.476   9.280  -6.334  1.00 22.80     0.629 N 
BRANCH  20  22
HETATM   22  C4    D T 441      -0.950   9.149  -8.588  1.00 19.37     0.100 A 
HETATM   23  N1    D T 441      -2.217   9.106  -8.956  1.00 19.33    -0.308 N 
HETATM   24  C1    D T 441      -3.393   8.727  -8.131  1.00 19.43     0.132 C 
HETATM   25  C2    D T 441      -2.260   9.455 -10.240  1.00 17.45     0.178 A 
HETATM   26  N2    D T 441      -0.985   9.709 -10.633  1.00 18.66    -0.223 NA
HETATM   27  C3    D T 441      -0.155   9.515  -9.585  1.00 16.78     0.116 A 
ENDBRANCH  20  22
BRANCH  20  28
HETATM   28  C6    D T 441      -0.466   7.331  -7.107  1.00 20.70     0.021 A 
HETATM   29  C7    D T 441      -0.943   6.762  -5.899  1.00 21.08    -0.001 A 
HETATM   30  C8    D T 441      -1.000   5.371  -5.736  1.00 21.56     0.011 A 
HETATM   31  C9    D T 441      -0.582   4.523  -6.770  1.00 22.96     0.058 A 
HETATM   32 CL1    D T 441      -0.705   2.760  -6.559  1.00 26.89    -0.082 Cl
HETATM   33  C10   D T 441      -0.098   5.066  -7.979  1.00 22.08     0.011 A 
HETATM   34  C11   D T 441      -0.039   6.468  -8.148  1.00 21.58    -0.001 A 
ENDBRANCH  20  28
ENDBRANCH   1  20
TORSDOF 3
ENDMDL
MODEL 2
REMARK VINA RESULT:    -8.952      2.446      4.875
REMARK INTER + INTRA:         -10.601
REMARK INTER:                 -10.243
REMARK INTRA:                  -0.358
REMARK UNBOUND:                -0.079
REMARK  3 active torsions:
REMARK  status: ('A' for Active; 'I' for Inactive)
REMARK    1  A    between atoms: C4_6  and  C5_7 
REMARK    2  A    between atoms: C5_7  and  C6_8 
REMARK    3  A    between atoms: C5_7  and  C12_16 
ROOT
HETATM    1  C12   D T 441       0.594   9.900  -6.516  1.00 19.85     0.021 A 
HETATM    2  C13   D T 441       1.879   9.291  -6.421  1.00 19.83    -0.000 A 
HETATM    3  C14   D T 441       2.998  10.009  -5.917  1.00 20.16     0.016 A 
HETATM    4  C15   D T 441       0.443  11.234  -6.060  1.00 20.41    -0.000 A 
HETATM    5  C16   D T 441       1.542  11.952  -5.562  1.00 20.73     0.017 A 
HETATM    6  C17   D T 441       2.821  11.358  -5.498  1.00 21.09     0.062 A 
HETATM    7  N4    D T 441       3.955  12.122  -5.072  1.00 20.91    -0.294 N 
HETATM    8  C18   D T 441       3.797  13.534  -4.617  1.00 20.23     0.134 C 
HETATM    9  C19   D T 441       5.242  11.541  -5.071  1.00 22.47     0.261 A 
HETATM   10  O1    D T 441       6.223  12.212  -4.752  1.00 22.92    -0.267 OA
HETATM   11  C20   D T 441       5.409  10.210  -5.468  1.00 22.04     0.061 A 
HETATM   12  C21   D T 441       4.308   9.428  -5.881  1.00 20.64     0.006 A 
HETATM   13  C22   D T 441       4.537   8.054  -6.153  1.00 21.65     0.001 A 
HETATM   14  C23   D T 441       4.247   7.492  -7.418  1.00 20.99     0.011 A 
HETATM   15  C24   D T 441       4.541   6.132  -7.666  1.00 22.35     0.058 A 
HETATM   16 CL2    D T 441       4.206   5.426  -9.254  1.00 26.30    -0.082 Cl
HETATM   17  C25   D T 441       5.116   5.330  -6.663  1.00 21.98     0.011 A 
HETATM   18  C26   D T 441       5.404   5.883  -5.406  1.00 20.12     0.001 A 
HETATM   19  C27   D T 441       5.117   7.235  -5.151  1.00 21.15     0.000 A 
ENDROOT
BRANCH   1  20
HETATM   20  C5    D T 441      -0.495   9.260  -7.219  1.00 20.67     0.342 C 
HETATM   21  N3    D T 441      -1.698   9.777  -6.535  1.00 22.80     0.629 N 
BRANCH  20  22
HETATM   22  C4    D T 441      -0.647   9.675  -8.599  1.00 19.37     0.100 A 
HETATM   23  N1    D T 441      -1.743   9.489  -9.310  1.00 19.33    -0.308 N 
HETATM   24  C1    D T 441      -3.034   8.906  -8.860  1.00 19.43     0.132 C 
HETATM   25  C2    D T 441      -1.481   9.913 -10.545  1.00 17.45     0.178 A 
HETATM   26  N2    D T 441      -0.197  10.357 -10.555  1.00 18.66    -0.223 NA
HETATM   27  C3    D T 441       0.331  10.206  -9.321  1.00 16.78     0.116 A 
ENDBRANCH  20  22
BRANCH  20  28
HETATM   28  C6    D T 441      -0.529   7.836  -7.068  1.00 20.70     0.021 A 
HETATM   29  C7    D T 441       0.249   7.014  -7.922  1.00 21.08    -0.001 A 
HETATM   30  C8    D T 441       0.271   5.623  -7.750  1.00 21.56     0.011 A 
HETATM   31  C9    D T 441      -0.480   5.026  -6.729  1.00 22.96     0.058 A 
HETATM   32 CL1    D T 441      -0.401   3.263  -6.502  1.00 26.89    -0.082 Cl
HETATM   33  C10   D T 441      -1.266   5.824  -5.871  1.00 22.08     0.011 A 
HETATM   34  C11   D T 441      -1.292   7.227  -6.040  1.00 21.58    -0.001 A 
ENDBRANCH  20  28
ENDBRANCH   1  20
TORSDOF 3
ENDMDL
MODEL 3
REMARK VINA RESULT:    -8.937      1.404      2.111
REMARK INTER + INTRA:         -10.584
REMARK INTER:                 -10.729
REMARK INTRA:                   0.145
REMARK UNBOUND:                -0.079
REMARK  3 active torsions:
REMARK  status: ('A' for Active; 'I' for Inactive)
REMARK    1  A    between atoms: C4_6  and  C5_7 
REMARK    2  A    between atoms: C5_7  and  C6_8 
REMARK    3  A    between atoms: C5_7  and  C12_16 
ROOT
HETATM    1  C12   D T 441       0.421   7.795  -7.030  1.00 19.85     0.021 A 
HETATM    2  C13   D T 441       0.632   9.169  -6.721  1.00 19.83    -0.000 A 
HETATM    3  C14   D T 441       1.927   9.660  -6.396  1.00 20.16     0.016 A 
HETATM    4  C15   D T 441       1.540   6.925  -7.044  1.00 20.41    -0.000 A 
HETATM    5  C16   D T 441       2.822   7.399  -6.722  1.00 20.73     0.017 A 
HETATM    6  C17   D T 441       3.025   8.754  -6.386  1.00 21.09     0.062 A 
HETATM    7  N4    D T 441       4.317   9.214  -5.974  1.00 20.91    -0.294 N 
HETATM    8  C18   D T 441       5.490   8.290  -5.964  1.00 20.23     0.134 C 
HETATM    9  C19   D T 441       4.500  10.557  -5.577  1.00 22.47     0.261 A 
HETATM   10  O1    D T 441       5.599  10.940  -5.177  1.00 22.92    -0.267 OA
HETATM   11  C20   D T 441       3.421  11.447  -5.604  1.00 22.04     0.061 A 
HETATM   12  C21   D T 441       2.138  11.026  -6.017  1.00 20.64     0.006 A 
HETATM   13  C22   D T 441       1.124  12.012  -6.135  1.00 21.65     0.001 A 
HETATM   14  C23   D T 441      -0.082  11.923  -5.401  1.00 20.99     0.011 A 
HETATM   15  C24   D T 441      -1.044  12.953  -5.503  1.00 22.35     0.058 A 
HETATM   16 CL2    D T 441      -2.544  12.865  -4.569  1.00 26.30    -0.082 Cl
HETATM   17  C25   D T 441      -0.814  14.067  -6.332  1.00 21.98     0.011 A 
HETATM   18  C26   D T 441       0.380  14.158  -7.064  1.00 20.12     0.001 A 
HETATM   19  C27   D T 441       1.343  13.139  -6.967  1.00 21.15     0.000 A 
ENDROOT
BRANCH   1  20
HETATM   20  C5    D T 441      -0.910   7.244  -7.152  1.00 20.67     0.342 C 
HETATM   21  N3    D T 441      -1.531   7.549  -5.847  1.00 22.80     0.629 N 
BRANCH  20  22
HETATM   22  C4    D T 441      -1.751   7.910  -8.126  1.00 19.37     0.100 A 
HETATM   23  N1    D T 441      -1.356   8.241  -9.341  1.00 19.33    -0.308 N 
HETATM   24  C1    D T 441      -0.046   7.957  -9.983  1.00 19.43     0.132 C 
HETATM   25  C2    D T 441      -2.359   8.911  -9.906  1.00 17.45     0.178 A 
HETATM   26  N2    D T 441      -3.366   8.973  -8.996  1.00 18.66    -0.223 NA
HETATM   27  C3    D T 441      -2.980   8.339  -7.868  1.00 16.78     0.116 A 
ENDBRANCH  20  22
BRANCH  20  28
HETATM   28  C6    D T 441      -0.941   5.818  -7.287  1.00 20.70     0.021 A 
HETATM   29  C7    D T 441      -1.222   5.231  -8.547  1.00 21.08    -0.001 A 
HETATM   30  C8    D T 441      -1.199   3.839  -8.709  1.00 21.56     0.011 A 
HETATM   31  C9    D T 441      -0.898   3.008  -7.622  1.00 22.96     0.058 A 
HETATM   32 CL1    D T 441      -0.831   1.246  -7.861  1.00 26.89    -0.082 Cl
HETATM   33  C10   D T 441      -0.622   3.569  -6.357  1.00 22.08     0.011 A 
HETATM   34  C11   D T 441      -0.643   4.972  -6.189  1.00 21.58    -0.001 A 
ENDBRANCH  20  28
ENDBRANCH   1  20
TORSDOF 3
ENDMDL
MODEL 4
REMARK VINA RESULT:    -8.911      2.604      4.856
REMARK INTER + INTRA:         -10.553
REMARK INTER:                 -10.737
REMARK INTRA:                   0.184
REMARK UNBOUND:                -0.079
REMARK  3 active torsions:
REMARK  status: ('A' for Active; 'I' for Inactive)
REMARK    1  A    between atoms: C4_6  and  C5_7 
REMARK    2  A    between atoms: C5_7  and  C6_8 
REMARK    3  A    between atoms: C5_7  and  C12_16 
ROOT
HETATM    1  C12   D T 441      -0.957   8.801  -7.048  1.00 19.85     0.021 A 
HETATM    2  C13   D T 441       0.457   8.643  -6.966  1.00 19.83    -0.000 A 
HETATM    3  C14   D T 441       1.275   9.642  -6.368  1.00 20.16     0.016 A 
HETATM    4  C15   D T 441      -1.541   9.964  -6.485  1.00 20.41    -0.000 A 
HETATM    5  C16   D T 441      -0.742  10.955  -5.894  1.00 20.73     0.017 A 
HETATM    6  C17   D T 441       0.661  10.812  -5.841  1.00 21.09     0.062 A 
HETATM    7  N4    D T 441       1.478  11.865  -5.317  1.00 20.91    -0.294 N 
HETATM    8  C18   D T 441       0.862  13.100  -4.748  1.00 20.23     0.134 C 
HETATM    9  C19   D T 441       2.884  11.743  -5.325  1.00 22.47     0.261 A 
HETATM   10  O1    D T 441       3.589  12.668  -4.919  1.00 22.92    -0.267 OA
HETATM   11  C20   D T 441       3.483  10.584  -5.828  1.00 22.04     0.061 A 
HETATM   12  C21   D T 441       2.704   9.524  -6.341  1.00 20.64     0.006 A 
HETATM   13  C22   D T 441       3.374   8.331  -6.721  1.00 21.65     0.001 A 
HETATM   14  C23   D T 441       3.288   7.822  -8.038  1.00 20.99     0.011 A 
HETATM   15  C24   D T 441       4.015   6.664  -8.392  1.00 22.35     0.058 A 
HETATM   16 CL2    D T 441       3.935   6.034 -10.043  1.00 26.30    -0.082 Cl
HETATM   17  C25   D T 441       4.823   6.009  -7.443  1.00 21.98     0.011 A 
HETATM   18  C26   D T 441       4.910   6.509  -6.135  1.00 20.12     0.001 A 
HETATM   19  C27   D T 441       4.191   7.662  -5.775  1.00 21.15     0.000 A 
ENDROOT
BRANCH   1  20
HETATM   20  C5    D T 441      -1.772   7.905  -7.836  1.00 20.67     0.342 C 
HETATM   21  N3    D T 441      -3.089   7.958  -7.169  1.00 22.80     0.629 N 
BRANCH  20  22
HETATM   22  C4    D T 441      -2.026   8.355  -9.190  1.00 19.37     0.100 A 
HETATM   23  N1    D T 441      -1.098   8.451 -10.124  1.00 19.33    -0.308 N 
HETATM   24  C1    D T 441       0.336   8.071 -10.027  1.00 19.43     0.132 C 
HETATM   25  C2    D T 441      -1.681   8.980 -11.197  1.00 17.45     0.178 A 
HETATM   26  N2    D T 441      -2.984   9.199 -10.882  1.00 18.66    -0.223 NA
HETATM   27  C3    D T 441      -3.202   8.803  -9.610  1.00 16.78     0.116 A 
ENDBRANCH  20  22
BRANCH  20  28
HETATM   28  C6    D T 441      -1.352   6.537  -7.784  1.00 20.70     0.021 A 
HETATM   29  C7    D T 441      -0.604   6.066  -6.675  1.00 21.08    -0.001 A 
HETATM   30  C8    D T 441      -0.236   4.717  -6.581  1.00 21.56     0.011 A 
HETATM   31  C9    D T 441      -0.603   3.814  -7.587  1.00 22.96     0.058 A 
HETATM   32 CL1    D T 441      -0.163   2.097  -7.425  1.00 26.89    -0.082 Cl
HETATM   33  C10   D T 441      -1.342   4.261  -8.703  1.00 22.08     0.011 A 
HETATM   34  C11   D T 441      -1.716   5.620  -8.803  1.00 21.58    -0.001 A 
ENDBRANCH  20  28
ENDBRANCH   1  20
TORSDOF 3
ENDMDL
MODEL 5
REMARK VINA RESULT:    -8.863      3.605      7.096
REMARK INTER + INTRA:         -10.497
REMARK INTER:                 -10.803
REMARK INTRA:                   0.306
REMARK UNBOUND:                -0.079
REMARK  3 active torsions:
REMARK  status: ('A' for Active; 'I' for Inactive)
REMARK    1  A    between atoms: C4_6  and  C5_7 
REMARK    2  A    between atoms: C5_7  and  C6_8 
REMARK    3  A    between atoms: C5_7  and  C12_16 
ROOT
HETATM    1  C12   D T 441       3.503   7.544  -6.421  1.00 19.85     0.021 A 
HETATM    2  C13   D T 441       2.147   7.337  -6.804  1.00 19.83    -0.000 A 
HETATM    3  C14   D T 441       1.618   6.026  -6.960  1.00 20.16     0.016 A 
HETATM    4  C15   D T 441       4.312   6.409  -6.157  1.00 20.41    -0.000 A 
HETATM    5  C16   D T 441       3.799   5.111  -6.310  1.00 20.73     0.017 A 
HETATM    6  C17   D T 441       2.464   4.908  -6.720  1.00 21.09     0.062 A 
HETATM    7  N4    D T 441       1.973   3.584  -6.958  1.00 20.91    -0.294 N 
HETATM    8  C18   D T 441       2.834   2.392  -6.705  1.00 20.23     0.134 C 
HETATM    9  C19   D T 441       0.656   3.390  -7.430  1.00 22.47     0.261 A 
HETATM   10  O1    D T 441       0.249   2.256  -7.682  1.00 22.92    -0.267 OA
HETATM   11  C20   D T 441      -0.178   4.492  -7.649  1.00 22.04     0.061 A 
HETATM   12  C21   D T 441       0.274   5.808  -7.411  1.00 20.64     0.006 A 
HETATM   13  C22   D T 441      -0.665   6.865  -7.538  1.00 21.65     0.001 A 
HETATM   14  C23   D T 441      -0.460   7.931  -8.445  1.00 20.99     0.011 A 
HETATM   15  C24   D T 441      -1.445   8.935  -8.582  1.00 22.35     0.058 A 
HETATM   16 CL2    D T 441      -1.211  10.259  -9.731  1.00 26.30    -0.082 Cl
HETATM   17  C25   D T 441      -2.628   8.885  -7.821  1.00 21.98     0.011 A 
HETATM   18  C26   D T 441      -2.835   7.829  -6.919  1.00 20.12     0.001 A 
HETATM   19  C27   D T 441      -1.861   6.826  -6.778  1.00 21.15     0.000 A 
ENDROOT
BRANCH   1  20
HETATM   20  C5    D T 441       4.110   8.855  -6.467  1.00 20.67     0.342 C 
HETATM   21  N3    D T 441       5.122   8.806  -5.392  1.00 22.80     0.629 N 
BRANCH  20  22
HETATM   22  C4    D T 441       4.865   9.127  -7.673  1.00 19.37     0.100 A 
HETATM   23  N1    D T 441       4.321   9.295  -8.864  1.00 19.33    -0.308 N 
HETATM   24  C1    D T 441       2.877   9.313  -9.212  1.00 19.43     0.132 C 
HETATM   25  C2    D T 441       5.322   9.432  -9.731  1.00 17.45     0.178 A 
HETATM   26  N2    D T 441       6.481   9.342  -9.028  1.00 18.66    -0.223 NA
HETATM   27  C3    D T 441       6.191   9.149  -7.724  1.00 16.78     0.116 A 
ENDBRANCH  20  22
BRANCH  20  28
HETATM   28  C6    D T 441       3.218   9.923  -6.127  1.00 20.70     0.021 A 
HETATM   29  C7    D T 441       1.820   9.763  -6.307  1.00 21.08    -0.001 A 
HETATM   30  C8    D T 441       0.929  10.776  -5.925  1.00 21.56     0.011 A 
HETATM   31  C9    D T 441       1.412  11.964  -5.361  1.00 22.96     0.058 A 
HETATM   32 CL1    D T 441       0.260  13.217  -4.842  1.00 26.89    -0.082 Cl
HETATM   33  C10   D T 441       2.799  12.147  -5.178  1.00 22.08     0.011 A 
HETATM   34  C11   D T 441       3.702  11.129  -5.561  1.00 21.58    -0.001 A 
ENDBRANCH  20  28
ENDBRANCH   1  20
TORSDOF 3
ENDMDL
MODEL 6
REMARK VINA RESULT:    -8.743      3.458      5.974
REMARK INTER + INTRA:         -10.355
REMARK INTER:                 -10.235
REMARK INTRA:                  -0.120
REMARK UNBOUND:                -0.079
REMARK  3 active torsions:
REMARK  status: ('A' for Active; 'I' for Inactive)
REMARK    1  A    between atoms: C4_6  and  C5_7 
REMARK    2  A    between atoms: C5_7  and  C6_8 
REMARK    3  A    between atoms: C5_7  and  C12_16 
ROOT
HETATM    1  C12   D T 441       3.275   9.647  -6.640  1.00 19.85     0.021 A 
HETATM    2  C13   D T 441       1.851   9.633  -6.620  1.00 19.83    -0.000 A 
HETATM    3  C14   D T 441       1.113  10.708  -6.050  1.00 20.16     0.016 A 
HETATM    4  C15   D T 441       3.949  10.778  -6.113  1.00 20.41    -0.000 A 
HETATM    5  C16   D T 441       3.229  11.842  -5.547  1.00 20.73     0.017 A 
HETATM    6  C17   D T 441       1.819  11.813  -5.499  1.00 21.09     0.062 A 
HETATM    7  N4    D T 441       1.094  12.860  -4.843  1.00 20.91    -0.294 N 
HETATM    8  C18   D T 441       1.806  14.037  -4.265  1.00 20.23     0.134 C 
HETATM    9  C19   D T 441      -0.313  12.793  -4.742  1.00 22.47     0.261 A 
HETATM   10  O1    D T 441      -0.932  13.668  -4.136  1.00 22.92    -0.267 OA
HETATM   11  C20   D T 441      -1.004  11.713  -5.300  1.00 22.04     0.061 A 
HETATM   12  C21   D T 441      -0.318  10.672  -5.963  1.00 20.64     0.006 A 
HETATM   13  C22   D T 441      -1.093   9.673  -6.609  1.00 21.65     0.001 A 
HETATM   14  C23   D T 441      -0.969   8.306  -6.268  1.00 20.99     0.011 A 
HETATM   15  C24   D T 441      -1.798   7.349  -6.894  1.00 22.35     0.058 A 
HETATM   16 CL2    D T 441      -1.670   5.639  -6.456  1.00 26.30    -0.082 Cl
HETATM   17  C25   D T 441      -2.745   7.743  -7.858  1.00 21.98     0.011 A 
HETATM   18  C26   D T 441      -2.870   9.099  -8.201  1.00 20.12     0.001 A 
HETATM   19  C27   D T 441      -2.050  10.057  -7.581  1.00 21.15     0.000 A 
ENDROOT
BRANCH   1  20
HETATM   20  C5    D T 441       4.037   8.478  -7.018  1.00 20.67     0.342 C 
HETATM   21  N3    D T 441       5.039   8.355  -5.940  1.00 22.80     0.629 N 
BRANCH  20  22
HETATM   22  C4    D T 441       3.293   7.235  -6.973  1.00 19.37     0.100 A 
HETATM   23  N1    D T 441       2.428   6.857  -7.896  1.00 19.33    -0.308 N 
HETATM   24  C1    D T 441       2.089   7.551  -9.166  1.00 19.43     0.132 C 
HETATM   25  C2    D T 441       1.882   5.719  -7.473  1.00 17.45     0.178 A 
HETATM   26  N2    D T 441       2.442   5.425  -6.271  1.00 18.66    -0.223 NA
HETATM   27  C3    D T 441       3.336   6.385  -5.955  1.00 16.78     0.116 A 
ENDBRANCH  20  22
BRANCH  20  28
HETATM   28  C6    D T 441       4.775   8.630  -8.235  1.00 20.70     0.021 A 
HETATM   29  C7    D T 441       5.704   7.634  -8.630  1.00 21.08    -0.001 A 
HETATM   30  C8    D T 441       6.391   7.739  -9.848  1.00 21.56     0.011 A 
HETATM   31  C9    D T 441       6.169   8.836 -10.690  1.00 22.96     0.058 A 
HETATM   32 CL1    D T 441       7.019   8.926 -12.251  1.00 26.89    -0.082 Cl
HETATM   33  C10   D T 441       5.254   9.842 -10.315  1.00 22.08     0.011 A 
HETATM   34  C11   D T 441       4.558   9.741  -9.089  1.00 21.58    -0.001 A 
ENDBRANCH  20  28
ENDBRANCH   1  20
TORSDOF 3
ENDMDL
MODEL 7
REMARK VINA RESULT:    -8.602      3.061      6.518
REMARK INTER + INTRA:         -10.190
REMARK INTER:                 -10.459
REMARK INTRA:                   0.269
REMARK UNBOUND:                -0.079
REMARK  3 active torsions:
REMARK  status: ('A' for Active; 'I' for Inactive)
REMARK    1  A    between atoms: C4_6  and  C5_7 
REMARK    2  A    between atoms: C5_7  and  C6_8 
REMARK    3  A    between atoms: C5_7  and  C12_16 
ROOT
HETATM    1  C12   D T 441       3.257   9.931  -6.001  1.00 19.85     0.021 A 
HETATM    2  C13   D T 441       2.188   9.070  -6.381  1.00 19.83    -0.000 A 
HETATM    3  C14   D T 441       2.420   7.701  -6.692  1.00 20.16     0.016 A 
HETATM    4  C15   D T 441       4.562   9.385  -5.900  1.00 20.41    -0.000 A 
HETATM    5  C16   D T 441       4.802   8.036  -6.206  1.00 20.73     0.017 A 
HETATM    6  C17   D T 441       3.746   7.191  -6.613  1.00 21.09     0.062 A 
HETATM    7  N4    D T 441       4.010   5.840  -7.007  1.00 20.91    -0.294 N 
HETATM    8  C18   D T 441       5.389   5.275  -6.925  1.00 20.23     0.134 C 
HETATM    9  C19   D T 441       2.960   5.020  -7.475  1.00 22.47     0.261 A 
HETATM   10  O1    D T 441       3.194   3.874  -7.860  1.00 22.92    -0.267 OA
HETATM   11  C20   D T 441       1.655   5.520  -7.535  1.00 22.04     0.061 A 
HETATM   12  C21   D T 441       1.362   6.844  -7.141  1.00 20.64     0.006 A 
HETATM   13  C22   D T 441      -0.000   7.241  -7.114  1.00 21.65     0.001 A 
HETATM   14  C23   D T 441      -0.467   8.334  -7.882  1.00 20.99     0.011 A 
HETATM   15  C24   D T 441      -1.840   8.663  -7.871  1.00 22.35     0.058 A 
HETATM   16 CL2    D T 441      -2.439  10.012  -8.847  1.00 26.30    -0.082 Cl
HETATM   17  C25   D T 441      -2.750   7.915  -7.100  1.00 21.98     0.011 A 
HETATM   18  C26   D T 441      -2.291   6.831  -6.336  1.00 20.12     0.001 A 
HETATM   19  C27   D T 441      -0.926   6.496  -6.342  1.00 21.15     0.000 A 
ENDROOT
BRANCH   1  20
HETATM   20  C5    D T 441       3.074  11.360  -5.892  1.00 20.67     0.342 C 
HETATM   21  N3    D T 441       3.946  11.735  -4.760  1.00 22.80     0.629 N 
BRANCH  20  22
HETATM   22  C4    D T 441       3.581  12.120  -7.017  1.00 19.37     0.100 A 
HETATM   23  N1    D T 441       3.139  11.993  -8.254  1.00 19.33    -0.308 N 
HETATM   24  C1    D T 441       2.027  11.136  -8.742  1.00 19.43     0.132 C 
HETATM   25  C2    D T 441       3.896  12.777  -9.018  1.00 17.45     0.178 A 
HETATM   26  N2    D T 441       4.805  13.378  -8.206  1.00 18.66    -0.223 NA
HETATM   27  C3    D T 441       4.604  12.961  -6.937  1.00 16.78     0.116 A 
ENDBRANCH  20  22
BRANCH  20  28
HETATM   28  C6    D T 441       1.747  11.751  -5.521  1.00 20.70     0.021 A 
HETATM   29  C7    D T 441       1.536  12.963  -4.816  1.00 21.08    -0.001 A 
HETATM   30  C8    D T 441       0.239  13.389  -4.497  1.00 21.56     0.011 A 
HETATM   31  C9    D T 441      -0.869  12.618  -4.872  1.00 22.96     0.058 A 
HETATM   32 CL1    D T 441      -2.508  13.200  -4.496  1.00 26.89    -0.082 Cl
HETATM   33  C10   D T 441      -0.683  11.405  -5.569  1.00 22.08     0.011 A 
HETATM   34  C11   D T 441       0.623  10.971  -5.893  1.00 21.58    -0.001 A 
ENDBRANCH  20  28
ENDBRANCH   1  20
TORSDOF 3
ENDMDL
MODEL 8
REMARK VINA RESULT:    -8.571      3.111      5.014
REMARK INTER + INTRA:         -10.153
REMARK INTER:                 -10.001
REMARK INTRA:                  -0.152
REMARK UNBOUND:                -0.079
REMARK  3 active torsions:
REMARK  status: ('A' for Active; 'I' for Inactive)
REMARK    1  A    between atoms: C4_6  and  C5_7 
REMARK    2  A    between atoms: C5_7  and  C6_8 
REMARK    3  A    between atoms: C5_7  and  C12_16 
ROOT
HETATM    1  C12   D T 441       0.020   8.001  -6.710  1.00 19.85     0.021 A 
HETATM    2  C13   D T 441       1.164   8.829  -6.526  1.00 19.83    -0.000 A 
HETATM    3  C14   D T 441       1.029  10.211  -6.215  1.00 20.16     0.016 A 
HETATM    4  C15   D T 441      -1.266   8.575  -6.539  1.00 20.41    -0.000 A 
HETATM    5  C16   D T 441      -1.409   9.937  -6.234  1.00 20.73     0.017 A 
HETATM    6  C17   D T 441      -0.275  10.764  -6.082  1.00 21.09     0.062 A 
HETATM    7  N4    D T 441      -0.428  12.170  -5.858  1.00 20.91    -0.294 N 
HETATM    8  C18   D T 441      -1.783  12.777  -5.704  1.00 20.23     0.134 C 
HETATM    9  C19   D T 441       0.709  13.003  -5.771  1.00 22.47     0.261 A 
HETATM   10  O1    D T 441       0.577  14.218  -5.627  1.00 22.92    -0.267 OA
HETATM   11  C20   D T 441       1.990  12.452  -5.885  1.00 22.04     0.061 A 
HETATM   12  C21   D T 441       2.172  11.067  -6.095  1.00 20.64     0.006 A 
HETATM   13  C22   D T 441       3.500  10.564  -6.078  1.00 21.65     0.001 A 
HETATM   14  C23   D T 441       4.044   9.879  -7.190  1.00 20.99     0.011 A 
HETATM   15  C24   D T 441       5.387   9.442  -7.156  1.00 22.35     0.058 A 
HETATM   16 CL2    D T 441       6.086   8.607  -8.550  1.00 26.30    -0.082 Cl
HETATM   17  C25   D T 441       6.189   9.680  -6.023  1.00 21.98     0.011 A 
HETATM   18  C26   D T 441       5.652  10.359  -4.918  1.00 20.12     0.001 A 
HETATM   19  C27   D T 441       4.317  10.798  -4.944  1.00 21.15     0.000 A 
ENDROOT
BRANCH   1  20
HETATM   20  C5    D T 441       0.136   6.658  -7.233  1.00 20.67     0.342 C 
HETATM   21  N3    D T 441      -0.430   5.818  -6.157  1.00 22.80     0.629 N 
BRANCH  20  22
HETATM   22  C4    D T 441      -0.695   6.388  -8.388  1.00 19.37     0.100 A 
HETATM   23  N1    D T 441      -1.087   5.181  -8.752  1.00 19.33    -0.308 N 
HETATM   24  C1    D T 441      -0.837   3.893  -8.054  1.00 19.43     0.132 C 
HETATM   25  C2    D T 441      -1.752   5.317  -9.898  1.00 17.45     0.178 A 
HETATM   26  N2    D T 441      -1.748   6.639 -10.212  1.00 18.66    -0.223 NA
HETATM   27  C3    D T 441      -1.079   7.317  -9.255  1.00 16.78     0.116 A 
ENDBRANCH  20  22
BRANCH  20  28
HETATM   28  C6    D T 441       1.486   6.218  -7.415  1.00 20.70     0.021 A 
HETATM   29  C7    D T 441       2.101   5.393  -6.439  1.00 21.08    -0.001 A 
HETATM   30  C8    D T 441       3.402   4.906  -6.631  1.00 21.56     0.011 A 
HETATM   31  C9    D T 441       4.112   5.231  -7.793  1.00 22.96     0.058 A 
HETATM   32 CL1    D T 441       5.745   4.565  -8.035  1.00 26.89    -0.082 Cl
HETATM   33  C10   D T 441       3.523   6.055  -8.775  1.00 22.08     0.011 A 
HETATM   34  C11   D T 441       2.212   6.549  -8.588  1.00 21.58    -0.001 A 
ENDBRANCH  20  28
ENDBRANCH   1  20
TORSDOF 3
ENDMDL
MODEL 9
REMARK VINA RESULT:    -8.500      2.592      4.283
REMARK INTER + INTRA:         -10.070
REMARK INTER:                  -9.816
REMARK INTRA:                  -0.254
REMARK UNBOUND:                -0.079
REMARK  3 active torsions:
REMARK  status: ('A' for Active; 'I' for Inactive)
REMARK    1  A    between atoms: C4_6  and  C5_7 
REMARK    2  A    between atoms: C5_7  and  C6_8 
REMARK    3  A    between atoms: C5_7  and  C12_16 
ROOT
HETATM    1  C12   D T 441      -0.376  10.069  -6.414  1.00 19.85     0.021 A 
HETATM    2  C13   D T 441       0.934  10.542  -6.111  1.00 19.83    -0.000 A 
HETATM    3  C14   D T 441       1.131  11.765  -5.412  1.00 20.16     0.016 A 
HETATM    4  C15   D T 441      -1.489  10.827  -5.969  1.00 20.41    -0.000 A 
HETATM    5  C16   D T 441      -1.304  12.036  -5.279  1.00 20.73     0.017 A 
HETATM    6  C17   D T 441      -0.006  12.519  -5.007  1.00 21.09     0.062 A 
HETATM    7  N4    D T 441       0.176  13.795  -4.382  1.00 20.91    -0.294 N 
HETATM    8  C18   D T 441      -0.997  14.603  -3.937  1.00 20.23     0.134 C 
HETATM    9  C19   D T 441       1.477  14.301  -4.170  1.00 22.47     0.261 A 
HETATM   10  O1    D T 441       1.634  15.419  -3.677  1.00 22.92    -0.267 OA
HETATM   11  C20   D T 441       2.592  13.549  -4.555  1.00 22.04     0.061 A 
HETATM   12  C21   D T 441       2.444  12.283  -5.162  1.00 20.64     0.006 A 
HETATM   13  C22   D T 441       3.619  11.527  -5.413  1.00 21.65     0.001 A 
HETATM   14  C23   D T 441       3.960  11.101  -6.719  1.00 20.99     0.011 A 
HETATM   15  C24   D T 441       5.166  10.399  -6.935  1.00 22.35     0.058 A 
HETATM   16 CL2    D T 441       5.615   9.884  -8.568  1.00 26.30    -0.082 Cl
HETATM   17  C25   D T 441       6.031  10.114  -5.862  1.00 21.98     0.011 A 
HETATM   18  C26   D T 441       5.696  10.533  -4.565  1.00 20.12     0.001 A 
HETATM   19  C27   D T 441       4.499  11.234  -4.341  1.00 21.15     0.000 A 
ENDROOT
BRANCH   1  20
HETATM   20  C5    D T 441      -0.587   8.949  -7.303  1.00 20.67     0.342 C 
HETATM   21  N3    D T 441      -1.942   8.478  -6.948  1.00 22.80     0.629 N 
BRANCH  20  22
HETATM   22  C4    D T 441      -0.674   9.301  -8.705  1.00 19.37     0.100 A 
HETATM   23  N1    D T 441      -1.110   8.486  -9.647  1.00 19.33    -0.308 N 
HETATM   24  C1    D T 441      -1.652   7.112  -9.484  1.00 19.43     0.132 C 
HETATM   25  C2    D T 441      -0.960   9.119 -10.809  1.00 17.45     0.178 A 
HETATM   26  N2    D T 441      -0.422  10.337 -10.538  1.00 18.66    -0.223 NA
HETATM   27  C3    D T 441      -0.241  10.452  -9.205  1.00 16.78     0.116 A 
ENDBRANCH  20  22
BRANCH  20  28
HETATM   28  C6    D T 441       0.294   7.845  -7.069  1.00 20.70     0.021 A 
HETATM   29  C7    D T 441      -0.145   6.738  -6.299  1.00 21.08    -0.001 A 
HETATM   30  C8    D T 441       0.685   5.624  -6.110  1.00 21.56     0.011 A 
HETATM   31  C9    D T 441       1.963   5.592  -6.682  1.00 22.96     0.058 A 
HETATM   32 CL1    D T 441       2.982   4.148  -6.467  1.00 26.89    -0.082 Cl
HETATM   33  C10   D T 441       2.423   6.684  -7.448  1.00 22.08     0.011 A 
HETATM   34  C11   D T 441       1.591   7.810  -7.641  1.00 21.58    -0.001 A 
ENDBRANCH  20  28
ENDBRANCH   1  20
TORSDOF 3
ENDMDL
