MODEL 1
REMARK VINA RESULT:    -7.914      0.000      0.000
REMARK INTER + INTRA:          -9.237
REMARK INTER:                  -8.840
REMARK INTRA:                  -0.398
REMARK UNBOUND:                -0.398
REMARK  2 active torsions:
REMARK  status: ('A' for Active; 'I' for Inactive)
REMARK    1  A    between atoms: C5_4  and  O7_13 
REMARK    2  A    between atoms: C8_10  and  O7_13 
ROOT
HETATM    1  O7    D T 502       5.964   4.979   3.666  1.00 42.62    -0.304 OA
ENDROOT
BRANCH   1   2
HETATM    2  C5    D T 502       5.999   5.496   2.365  1.00 45.64     0.125 A 
HETATM    3  C6    D T 502       6.377   6.907   2.192  1.00 42.75     0.154 A 
HETATM    4  C1    D T 502       6.423   7.459   0.896  1.00 37.90     0.041 A 
HETATM    5  O17   D T 502       6.676   7.656   3.244  1.00 33.10    -0.188 OA
HETATM    6  C2    D T 502       6.097   6.629  -0.218  1.00 35.81     0.060 A 
HETATM    7  C3    D T 502       5.717   5.232  -0.076  1.00 39.03     0.014 A 
HETATM    8 CL14   D T 502       6.171   7.331  -1.816  1.00 14.39    -0.082 Cl
HETATM    9  C4    D T 502       5.677   4.692   1.231  1.00 45.32     0.028 A 
ENDBRANCH   1   2
BRANCH   1  10
HETATM   10  C8    D T 502       6.960   4.069   4.198  1.00 43.73     0.107 A 
HETATM   11  C9    D T 502       6.528   3.151   5.274  1.00 40.41     0.063 A 
HETATM   12  C10   D T 502       7.451   2.223   5.855  1.00 39.25     0.078 A 
HETATM   13 CL16   D T 502       4.885   3.149   5.888  1.00 15.54    -0.085 Cl
HETATM   14  C11   D T 502       8.830   2.192   5.373  1.00 44.23     0.041 A 
HETATM   15  C12   D T 502       9.274   3.073   4.329  1.00 45.82     0.009 A 
HETATM   16 CL15   D T 502       9.949   1.094   6.053  1.00 27.02    -0.087 Cl
HETATM   17  C13   D T 502       8.332   4.002   3.755  1.00 43.44     0.026 A 
ENDBRANCH   1  10
TORSDOF 2
ENDMDL
MODEL 2
REMARK VINA RESULT:    -7.701      9.348     12.361
REMARK INTER + INTRA:          -8.999
REMARK INTER:                  -8.565
REMARK INTRA:                  -0.434
REMARK UNBOUND:                -0.398
REMARK  2 active torsions:
REMARK  status: ('A' for Active; 'I' for Inactive)
REMARK    1  A    between atoms: C5_4  and  O7_13 
REMARK    2  A    between atoms: C8_10  and  O7_13 
ROOT
HETATM    1  O7    D T 502       6.071   0.854  -7.067  1.00 42.62    -0.304 OA
ENDROOT
BRANCH   1   2
HETATM    2  C5    D T 502       5.298   1.725  -6.290  1.00 45.64     0.125 A 
HETATM    3  C6    D T 502       4.224   1.148  -5.466  1.00 42.75     0.154 A 
HETATM    4  C1    D T 502       3.427   1.996  -4.672  1.00 37.90     0.041 A 
HETATM    5  O17   D T 502       4.007  -0.160  -5.467  1.00 33.10    -0.188 OA
HETATM    6  C2    D T 502       3.685   3.400  -4.690  1.00 35.81     0.060 A 
HETATM    7  C3    D T 502       4.738   3.998  -5.497  1.00 39.03     0.014 A 
HETATM    8 CL14   D T 502       2.692   4.430  -3.689  1.00 14.39    -0.082 Cl
HETATM    9  C4    D T 502       5.530   3.134  -6.288  1.00 45.32     0.028 A 
ENDBRANCH   1   2
BRANCH   1  10
HETATM   10  C8    D T 502       6.544   1.170  -8.402  1.00 43.73     0.107 A 
HETATM   11  C9    D T 502       5.564   1.068  -9.506  1.00 40.41     0.063 A 
HETATM   12  C10   D T 502       5.950   1.361 -10.853  1.00 39.25     0.078 A 
HETATM   13 CL16   D T 502       3.899   0.590  -9.226  1.00 15.54    -0.085 Cl
HETATM   14  C11   D T 502       7.327   1.763 -11.129  1.00 44.23     0.041 A 
HETATM   15  C12   D T 502       8.297   1.870 -10.075  1.00 45.82     0.009 A 
HETATM   16 CL15   D T 502       7.810   2.114 -12.730  1.00 27.02    -0.087 Cl
HETATM   17  C13   D T 502       7.893   1.571  -8.724  1.00 43.44     0.026 A 
ENDBRANCH   1  10
TORSDOF 2
ENDMDL
MODEL 3
REMARK VINA RESULT:    -7.646      9.263     11.551
REMARK INTER + INTRA:          -8.938
REMARK INTER:                  -8.470
REMARK INTRA:                  -0.468
REMARK UNBOUND:                -0.398
REMARK  2 active torsions:
REMARK  status: ('A' for Active; 'I' for Inactive)
REMARK    1  A    between atoms: C5_4  and  O7_13 
REMARK    2  A    between atoms: C8_10  and  O7_13 
ROOT
HETATM    1  O7    D T 502       6.787   1.282  -6.917  1.00 42.62    -0.304 OA
ENDROOT
BRANCH   1   2
HETATM    2  C5    D T 502       7.013   1.458  -8.288  1.00 45.64     0.125 A 
HETATM    3  C6    D T 502       8.294   2.048  -8.707  1.00 42.75     0.154 A 
HETATM    4  C1    D T 502       8.553   2.240 -10.079  1.00 37.90     0.041 A 
HETATM    5  O17   D T 502       9.200   2.396  -7.805  1.00 33.10    -0.188 OA
HETATM    6  C2    D T 502       7.559   1.855 -11.028  1.00 35.81     0.060 A 
HETATM    7  C3    D T 502       6.283   1.273 -10.642  1.00 39.03     0.014 A 
HETATM    8 CL14   D T 502       7.907   2.092 -12.724  1.00 14.39    -0.082 Cl
HETATM    9  C4    D T 502       6.038   1.086  -9.262  1.00 45.32     0.028 A 
ENDBRANCH   1   2
BRANCH   1  10
HETATM   10  C8    D T 502       5.830   2.058  -6.152  1.00 43.73     0.107 A 
HETATM   11  C9    D T 502       4.625   1.352  -5.665  1.00 40.41     0.063 A 
HETATM   12  C10   D T 502       3.631   2.047  -4.904  1.00 39.25     0.078 A 
HETATM   13 CL16   D T 502       4.353  -0.350  -5.989  1.00 15.54    -0.085 Cl
HETATM   14  C11   D T 502       3.819   3.466  -4.612  1.00 44.23     0.041 A 
HETATM   15  C12   D T 502       4.980   4.174  -5.073  1.00 45.82     0.009 A 
HETATM   16 CL15   D T 502       2.644   4.315  -3.707  1.00 27.02    -0.087 Cl
HETATM   17  C13   D T 502       5.972   3.460  -5.839  1.00 43.44     0.026 A 
ENDBRANCH   1  10
TORSDOF 2
ENDMDL
MODEL 4
REMARK VINA RESULT:    -7.612      1.705      6.285
REMARK INTER + INTRA:          -8.900
REMARK INTER:                  -8.569
REMARK INTRA:                  -0.331
REMARK UNBOUND:                -0.398
REMARK  2 active torsions:
REMARK  status: ('A' for Active; 'I' for Inactive)
REMARK    1  A    between atoms: C5_4  and  O7_13 
REMARK    2  A    between atoms: C8_10  and  O7_13 
ROOT
HETATM    1  O7    D T 502       6.125   4.999   3.835  1.00 42.62    -0.304 OA
ENDROOT
BRANCH   1   2
HETATM    2  C5    D T 502       6.645   3.776   4.274  1.00 45.64     0.125 A 
HETATM    3  C6    D T 502       6.002   3.125   5.427  1.00 42.75     0.154 A 
HETATM    4  C1    D T 502       6.499   1.893   5.895  1.00 37.90     0.041 A 
HETATM    5  O17   D T 502       4.961   3.691   6.022  1.00 33.10    -0.188 OA
HETATM    6  C2    D T 502       7.621   1.307   5.234  1.00 35.81     0.060 A 
HETATM    7  C3    D T 502       8.278   1.929   4.095  1.00 39.03     0.014 A 
HETATM    8 CL14   D T 502       8.214  -0.226   5.825  1.00 14.39    -0.082 Cl
HETATM    9  C4    D T 502       7.766   3.165   3.636  1.00 45.32     0.028 A 
ENDBRANCH   1   2
BRANCH   1  10
HETATM   10  C8    D T 502       6.160   5.439   2.453  1.00 43.73     0.107 A 
HETATM   11  C9    D T 502       6.840   6.722   2.170  1.00 40.41     0.063 A 
HETATM   12  C10   D T 502       6.916   7.228   0.833  1.00 39.25     0.078 A 
HETATM   13 CL16   D T 502       7.579   7.679   3.441  1.00 15.54    -0.085 Cl
HETATM   14  C11   D T 502       6.313   6.462  -0.255  1.00 44.23     0.041 A 
HETATM   15  C12   D T 502       5.647   5.213  -0.007  1.00 45.82     0.009 A 
HETATM   16 CL15   D T 502       6.390   7.048  -1.858  1.00 27.02    -0.087 Cl
HETATM   17  C13   D T 502       5.579   4.718   1.346  1.00 43.44     0.026 A 
ENDBRANCH   1  10
TORSDOF 2
ENDMDL
MODEL 5
REMARK VINA RESULT:    -7.469      8.831     11.923
REMARK INTER + INTRA:          -8.740
REMARK INTER:                  -8.301
REMARK INTRA:                  -0.439
REMARK UNBOUND:                -0.398
REMARK  2 active torsions:
REMARK  status: ('A' for Active; 'I' for Inactive)
REMARK    1  A    between atoms: C5_4  and  O7_13 
REMARK    2  A    between atoms: C8_10  and  O7_13 
ROOT
HETATM    1  O7    D T 502       6.512   3.453  -6.715  1.00 42.62    -0.304 OA
ENDROOT
BRANCH   1   2
HETATM    2  C5    D T 502       5.789   2.635  -5.838  1.00 45.64     0.125 A 
HETATM    3  C6    D T 502       4.632   3.220  -5.143  1.00 42.75     0.154 A 
HETATM    4  C1    D T 502       3.882   2.425  -4.253  1.00 37.90     0.041 A 
HETATM    5  O17   D T 502       4.293   4.485  -5.350  1.00 33.10    -0.188 OA
HETATM    6  C2    D T 502       4.269   1.067  -4.050  1.00 35.81     0.060 A 
HETATM    7  C3    D T 502       5.411   0.463  -4.721  1.00 39.03     0.014 A 
HETATM    8 CL14   D T 502       3.319   0.096  -2.952  1.00 14.39    -0.082 Cl
HETATM    9  C4    D T 502       6.152   1.273  -5.612  1.00 45.32     0.028 A 
ENDBRANCH   1   2
BRANCH   1  10
HETATM   10  C8    D T 502       6.765   3.119  -8.104  1.00 43.73     0.107 A 
HETATM   11  C9    D T 502       8.111   2.605  -8.439  1.00 40.41     0.063 A 
HETATM   12  C10   D T 502       8.442   2.255  -9.787  1.00 39.25     0.078 A 
HETATM   13 CL16   D T 502       9.356   2.402  -7.220  1.00 15.54    -0.085 Cl
HETATM   14  C11   D T 502       7.434   2.410 -10.833  1.00 44.23     0.041 A 
HETATM   15  C12   D T 502       6.120   2.906 -10.533  1.00 45.82     0.009 A 
HETATM   16 CL15   D T 502       7.808   2.000 -12.449  1.00 27.02    -0.087 Cl
HETATM   17  C13   D T 502       5.802   3.256  -9.170  1.00 43.44     0.026 A 
ENDBRANCH   1  10
TORSDOF 2
ENDMDL
MODEL 6
REMARK VINA RESULT:    -7.141      8.806     11.091
REMARK INTER + INTRA:          -8.374
REMARK INTER:                  -7.996
REMARK INTRA:                  -0.377
REMARK UNBOUND:                -0.398
REMARK  2 active torsions:
REMARK  status: ('A' for Active; 'I' for Inactive)
REMARK    1  A    between atoms: C5_4  and  O7_13 
REMARK    2  A    between atoms: C8_10  and  O7_13 
ROOT
HETATM    1  O7    D T 502       6.254   1.179  -6.143  1.00 42.62    -0.304 OA
ENDROOT
BRANCH   1   2
HETATM    2  C5    D T 502       6.695   1.328  -7.463  1.00 45.64     0.125 A 
HETATM    3  C6    D T 502       5.833   0.819  -8.542  1.00 42.75     0.154 A 
HETATM    4  C1    D T 502       6.247   0.952  -9.882  1.00 37.90     0.041 A 
HETATM    5  O17   D T 502       4.674   0.241  -8.259  1.00 33.10    -0.188 OA
HETATM    6  C2    D T 502       7.499   1.580 -10.157  1.00 35.81     0.060 A 
HETATM    7  C3    D T 502       8.372   2.089  -9.111  1.00 39.03     0.014 A 
HETATM    8 CL14   D T 502       7.986   1.744 -11.827  1.00 14.39    -0.082 Cl
HETATM    9  C4    D T 502       7.943   1.949  -7.771  1.00 45.32     0.028 A 
ENDBRANCH   1   2
BRANCH   1  10
HETATM   10  C8    D T 502       5.422   2.151  -5.458  1.00 43.73     0.107 A 
HETATM   11  C9    D T 502       4.288   1.627  -4.665  1.00 40.41     0.063 A 
HETATM   12  C10   D T 502       3.417   2.519  -3.960  1.00 39.25     0.078 A 
HETATM   13 CL16   D T 502       3.954  -0.091  -4.548  1.00 15.54    -0.085 Cl
HETATM   14  C11   D T 502       3.661   3.958  -4.032  1.00 44.23     0.041 A 
HETATM   15  C12   D T 502       4.755   4.491  -4.795  1.00 45.82     0.009 A 
HETATM   16 CL15   D T 502       2.633   5.041  -3.201  1.00 27.02    -0.087 Cl
HETATM   17  C13   D T 502       5.622   3.579  -5.500  1.00 43.44     0.026 A 
ENDBRANCH   1  10
TORSDOF 2
ENDMDL
MODEL 7
REMARK VINA RESULT:    -7.062      9.020     12.143
REMARK INTER + INTRA:          -8.285
REMARK INTER:                  -7.937
REMARK INTRA:                  -0.348
REMARK UNBOUND:                -0.398
REMARK  2 active torsions:
REMARK  status: ('A' for Active; 'I' for Inactive)
REMARK    1  A    between atoms: C5_4  and  O7_13 
REMARK    2  A    between atoms: C8_10  and  O7_13 
ROOT
HETATM    1  O7    D T 502       6.859   3.337  -6.824  1.00 42.62    -0.304 OA
ENDROOT
BRANCH   1   2
HETATM    2  C5    D T 502       6.018   2.620  -5.963  1.00 45.64     0.125 A 
HETATM    3  C6    D T 502       6.623   1.587  -5.107  1.00 42.75     0.154 A 
HETATM    4  C1    D T 502       5.806   0.848  -4.229  1.00 37.90     0.041 A 
HETATM    5  O17   D T 502       7.927   1.353  -5.157  1.00 33.10    -0.188 OA
HETATM    6  C2    D T 502       4.406   1.122  -4.196  1.00 35.81     0.060 A 
HETATM    7  C3    D T 502       3.781   2.135  -5.032  1.00 39.03     0.014 A 
HETATM    8 CL14   D T 502       3.414   0.201  -3.092  1.00 14.39    -0.082 Cl
HETATM    9  C4    D T 502       4.614   2.870  -5.907  1.00 45.32     0.028 A 
ENDBRANCH   1   2
BRANCH   1  10
HETATM   10  C8    D T 502       7.096   2.970  -8.207  1.00 43.73     0.107 A 
HETATM   11  C9    D T 502       6.158   3.508  -9.217  1.00 40.41     0.063 A 
HETATM   12  C10   D T 502       6.321   3.193 -10.604  1.00 39.25     0.078 A 
HETATM   13 CL16   D T 502       4.816   4.547  -8.775  1.00 15.54    -0.085 Cl
HETATM   14  C11   D T 502       7.426   2.330 -11.014  1.00 44.23     0.041 A 
HETATM   15  C12   D T 502       8.350   1.795 -10.053  1.00 45.82     0.009 A 
HETATM   16 CL15   D T 502       7.638   1.938 -12.664  1.00 27.02    -0.087 Cl
HETATM   17  C13   D T 502       8.172   2.122  -8.660  1.00 43.44     0.026 A 
ENDBRANCH   1  10
TORSDOF 2
ENDMDL
MODEL 8
REMARK VINA RESULT:    -6.995      7.267     10.318
REMARK INTER + INTRA:          -8.211
REMARK INTER:                  -7.862
REMARK INTRA:                  -0.349
REMARK UNBOUND:                -0.398
REMARK  2 active torsions:
REMARK  status: ('A' for Active; 'I' for Inactive)
REMARK    1  A    between atoms: C5_4  and  O7_13 
REMARK    2  A    between atoms: C8_10  and  O7_13 
ROOT
HETATM    1  O7    D T 502       3.792   2.433  -5.528  1.00 42.62    -0.304 OA
ENDROOT
BRANCH   1   2
HETATM    2  C5    D T 502       4.122   3.375  -4.546  1.00 45.64     0.125 A 
HETATM    3  C6    D T 502       4.776   2.894  -3.318  1.00 42.75     0.154 A 
HETATM    4  C1    D T 502       5.121   3.816  -2.309  1.00 37.90     0.041 A 
HETATM    5  O17   D T 502       5.041   1.605  -3.160  1.00 33.10    -0.188 OA
HETATM    6  C2    D T 502       4.823   5.197  -2.508  1.00 35.81     0.060 A 
HETATM    7  C3    D T 502       4.175   5.700  -3.710  1.00 39.03     0.014 A 
HETATM    8 CL14   D T 502       5.270   6.323  -1.249  1.00 14.39    -0.082 Cl
HETATM    9  C4    D T 502       3.836   4.763  -4.713  1.00 45.32     0.028 A 
ENDBRANCH   1   2
BRANCH   1  10
HETATM   10  C8    D T 502       4.650   2.107  -6.651  1.00 43.73     0.107 A 
HETATM   11  C9    D T 502       4.781   0.678  -7.008  1.00 40.41     0.063 A 
HETATM   12  C10   D T 502       5.609   0.272  -8.103  1.00 39.25     0.078 A 
HETATM   13 CL16   D T 502       3.939  -0.580  -6.121  1.00 15.54    -0.085 Cl
HETATM   14  C11   D T 502       6.328   1.288  -8.868  1.00 44.23     0.041 A 
HETATM   15  C12   D T 502       6.218   2.683  -8.542  1.00 45.82     0.009 A 
HETATM   16 CL15   D T 502       7.325   0.827 -10.177  1.00 27.02    -0.087 Cl
HETATM   17  C13   D T 502       5.380   3.075  -7.436  1.00 43.44     0.026 A 
ENDBRANCH   1  10
TORSDOF 2
ENDMDL
MODEL 9
REMARK VINA RESULT:    -6.945      6.467      9.788
REMARK INTER + INTRA:          -8.154
REMARK INTER:                  -7.744
REMARK INTRA:                  -0.410
REMARK UNBOUND:                -0.398
REMARK  2 active torsions:
REMARK  status: ('A' for Active; 'I' for Inactive)
REMARK    1  A    between atoms: C5_4  and  O7_13 
REMARK    2  A    between atoms: C8_10  and  O7_13 
ROOT
HETATM    1  O7    D T 502       4.955   2.082  -3.957  1.00 42.62    -0.304 OA
ENDROOT
BRANCH   1   2
HETATM    2  C5    D T 502       4.547   3.296  -3.390  1.00 45.64     0.125 A 
HETATM    3  C6    D T 502       5.350   3.848  -2.288  1.00 42.75     0.154 A 
HETATM    4  C1    D T 502       4.968   5.068  -1.695  1.00 37.90     0.041 A 
HETATM    5  O17   D T 502       6.426   3.207  -1.854  1.00 33.10    -0.188 OA
HETATM    6  C2    D T 502       3.805   5.737  -2.183  1.00 35.81     0.060 A 
HETATM    7  C3    D T 502       2.991   5.212  -3.269  1.00 39.03     0.014 A 
HETATM    8 CL14   D T 502       3.357   7.253  -1.440  1.00 14.39    -0.082 Cl
HETATM    9  C4    D T 502       3.388   3.988  -3.855  1.00 45.32     0.028 A 
ENDBRANCH   1   2
BRANCH   1  10
HETATM   10  C8    D T 502       4.617   1.669  -5.306  1.00 43.73     0.107 A 
HETATM   11  C9    D T 502       5.431   2.231  -6.406  1.00 40.41     0.063 A 
HETATM   12  C10   D T 502       5.162   1.876  -7.767  1.00 39.25     0.078 A 
HETATM   13 CL16   D T 502       6.752   3.346  -6.106  1.00 15.54    -0.085 Cl
HETATM   14  C11   D T 502       4.071   0.951  -8.060  1.00 44.23     0.041 A 
HETATM   15  C12   D T 502       3.266   0.392  -7.010  1.00 45.82     0.009 A 
HETATM   16 CL15   D T 502       3.730   0.515  -9.677  1.00 27.02    -0.087 Cl
HETATM   17  C13   D T 502       3.549   0.759  -5.645  1.00 43.44     0.026 A 
ENDBRANCH   1  10
TORSDOF 2
ENDMDL
