MODEL 1
REMARK VINA RESULT:    -7.929      0.000      0.000
REMARK INTER + INTRA:          -9.245
REMARK INTER:                  -8.857
REMARK INTRA:                  -0.389
REMARK UNBOUND:                -0.389
REMARK  2 active torsions:
REMARK  status: ('A' for Active; 'I' for Inactive)
REMARK    1  A    between atoms: C5_4  and  O7_13 
REMARK    2  A    between atoms: C8_10  and  O7_13 
ROOT
HETATM    1  O7    D T 502       5.811   5.366   3.257  1.00 42.62    -0.304 OA
ENDROOT
BRANCH   1   2
HETATM    2  C5    D T 502       6.397   6.064   2.195  1.00 45.64     0.125 A 
HETATM    3  C6    D T 502       5.992   5.707   0.826  1.00 42.75     0.154 A 
HETATM    4  C1    D T 502       6.563   6.390  -0.267  1.00 37.90     0.041 A 
HETATM    5  O17   D T 502       5.096   4.752   0.619  1.00 33.10    -0.188 OA
HETATM    6  C2    D T 502       7.523   7.414  -0.013  1.00 35.81     0.060 A 
HETATM    7  C3    D T 502       7.945   7.786   1.329  1.00 39.03     0.014 A 
HETATM    8 CL14   D T 502       8.208   8.255  -1.384  1.00 14.39    -0.082 Cl
HETATM    9  C4    D T 502       7.363   7.092   2.415  1.00 45.32     0.028 A 
ENDBRANCH   1   2
BRANCH   1  10
HETATM   10  C8    D T 502       6.419   4.216   3.897  1.00 43.73     0.107 A 
HETATM   11  C9    D T 502       5.793   3.728   5.146  1.00 40.41     0.063 A 
HETATM   12  C10   D T 502       6.332   2.599   5.840  1.00 39.25     0.078 A 
HETATM   13 CL16   D T 502       4.376   4.501   5.835  1.00 15.54    -0.085 Cl
HETATM   14  C11   D T 502       7.512   1.926   5.301  1.00 44.23     0.041 A 
HETATM   15  C12   D T 502       8.137   2.379   4.090  1.00 45.82     0.009 A 
HETATM   16 CL15   D T 502       8.174   0.577   6.113  1.00 27.02    -0.087 Cl
HETATM   17  C13   D T 502       7.583   3.518   3.403  1.00 43.44     0.026 A 
ENDBRANCH   1  10
TORSDOF 2
ENDMDL
MODEL 2
REMARK VINA RESULT:    -7.836      9.903     12.682
REMARK INTER + INTRA:          -9.141
REMARK INTER:                  -8.725
REMARK INTRA:                  -0.416
REMARK UNBOUND:                -0.389
REMARK  2 active torsions:
REMARK  status: ('A' for Active; 'I' for Inactive)
REMARK    1  A    between atoms: C5_4  and  O7_13 
REMARK    2  A    between atoms: C8_10  and  O7_13 
ROOT
HETATM    1  O7    D T 502       5.589   0.338  -7.418  1.00 42.62    -0.304 OA
ENDROOT
BRANCH   1   2
HETATM    2  C5    D T 502       4.878   1.270  -6.652  1.00 45.64     0.125 A 
HETATM    3  C6    D T 502       3.941   0.760  -5.638  1.00 42.75     0.154 A 
HETATM    4  C1    D T 502       3.209   1.671  -4.850  1.00 37.90     0.041 A 
HETATM    5  O17   D T 502       3.785  -0.544  -5.464  1.00 33.10    -0.188 OA
HETATM    6  C2    D T 502       3.399   3.069  -5.059  1.00 35.81     0.060 A 
HETATM    7  C3    D T 502       4.316   3.602  -6.056  1.00 39.03     0.014 A 
HETATM    8 CL14   D T 502       2.489   4.180  -4.061  1.00 14.39    -0.082 Cl
HETATM    9  C4    D T 502       5.043   2.676  -6.838  1.00 45.32     0.028 A 
ENDBRANCH   1   2
BRANCH   1  10
HETATM   10  C8    D T 502       6.105   0.613  -8.744  1.00 43.73     0.107 A 
HETATM   11  C9    D T 502       5.156   0.505  -9.874  1.00 40.41     0.063 A 
HETATM   12  C10   D T 502       5.586   0.759 -11.216  1.00 39.25     0.078 A 
HETATM   13 CL16   D T 502       3.475   0.063  -9.633  1.00 15.54    -0.085 Cl
HETATM   14  C11   D T 502       6.978   1.130 -11.461  1.00 44.23     0.041 A 
HETATM   15  C12   D T 502       7.919   1.243 -10.381  1.00 45.82     0.009 A 
HETATM   16 CL15   D T 502       7.514   1.436 -13.053  1.00 27.02    -0.087 Cl
HETATM   17  C13   D T 502       7.470   0.982  -9.036  1.00 43.44     0.026 A 
ENDBRANCH   1  10
TORSDOF 2
ENDMDL
MODEL 3
REMARK VINA RESULT:    -7.619     10.092     12.183
REMARK INTER + INTRA:          -8.899
REMARK INTER:                  -8.567
REMARK INTRA:                  -0.332
REMARK UNBOUND:                -0.389
REMARK  2 active torsions:
REMARK  status: ('A' for Active; 'I' for Inactive)
REMARK    1  A    between atoms: C5_4  and  O7_13 
REMARK    2  A    between atoms: C8_10  and  O7_13 
ROOT
HETATM    1  O7    D T 502       5.702   0.387  -7.696  1.00 42.62    -0.304 OA
ENDROOT
BRANCH   1   2
HETATM    2  C5    D T 502       6.186   0.623  -8.989  1.00 45.64     0.125 A 
HETATM    3  C6    D T 502       5.225   0.591 -10.103  1.00 42.75     0.154 A 
HETATM    4  C1    D T 502       5.678   0.823 -11.417  1.00 37.90     0.041 A 
HETATM    5  O17   D T 502       3.942   0.348  -9.876  1.00 33.10    -0.188 OA
HETATM    6  C2    D T 502       7.064   1.084 -11.631  1.00 35.81     0.060 A 
HETATM    7  C3    D T 502       8.037   1.118 -10.549  1.00 39.03     0.014 A 
HETATM    8 CL14   D T 502       7.601   1.382 -13.267  1.00 14.39    -0.082 Cl
HETATM    9  C4    D T 502       7.567   0.884  -9.236  1.00 45.32     0.028 A 
ENDBRANCH   1   2
BRANCH   1  10
HETATM   10  C8    D T 502       5.002   1.380  -6.905  1.00 43.73     0.107 A 
HETATM   11  C9    D T 502       4.061   0.883  -5.877  1.00 40.41     0.063 A 
HETATM   12  C10   D T 502       3.329   1.798  -5.055  1.00 39.25     0.078 A 
HETATM   13 CL16   D T 502       3.794  -0.832  -5.617  1.00 15.54    -0.085 Cl
HETATM   14  C11   D T 502       3.522   3.235  -5.239  1.00 44.23     0.041 A 
HETATM   15  C12   D T 502       4.430   3.742  -6.230  1.00 45.82     0.009 A 
HETATM   16 CL15   D T 502       2.658   4.345  -4.270  1.00 27.02    -0.087 Cl
HETATM   17  C13   D T 502       5.159   2.808  -7.051  1.00 43.44     0.026 A 
ENDBRANCH   1  10
TORSDOF 2
ENDMDL
MODEL 4
REMARK VINA RESULT:    -7.467      9.326     12.201
REMARK INTER + INTRA:          -8.729
REMARK INTER:                  -8.303
REMARK INTRA:                  -0.426
REMARK UNBOUND:                -0.389
REMARK  2 active torsions:
REMARK  status: ('A' for Active; 'I' for Inactive)
REMARK    1  A    between atoms: C5_4  and  O7_13 
REMARK    2  A    between atoms: C8_10  and  O7_13 
ROOT
HETATM    1  O7    D T 502       5.317   0.637  -7.002  1.00 42.62    -0.304 OA
ENDROOT
BRANCH   1   2
HETATM    2  C5    D T 502       4.670   1.655  -6.291  1.00 45.64     0.125 A 
HETATM    3  C6    D T 502       3.806   1.268  -5.164  1.00 42.75     0.154 A 
HETATM    4  C1    D T 502       3.139   2.267  -4.427  1.00 37.90     0.041 A 
HETATM    5  O17   D T 502       3.655  -0.008  -4.841  1.00 33.10    -0.188 OA
HETATM    6  C2    D T 502       3.322   3.633  -4.797  1.00 35.81     0.060 A 
HETATM    7  C3    D T 502       4.167   4.044  -5.907  1.00 39.03     0.014 A 
HETATM    8 CL14   D T 502       2.494   4.855  -3.861  1.00 14.39    -0.082 Cl
HETATM    9  C4    D T 502       4.830   3.030  -6.637  1.00 45.32     0.028 A 
ENDBRANCH   1   2
BRANCH   1  10
HETATM   10  C8    D T 502       5.739   0.764  -8.383  1.00 43.73     0.107 A 
HETATM   11  C9    D T 502       7.174   1.030  -8.629  1.00 40.41     0.063 A 
HETATM   12  C10   D T 502       7.672   1.170  -9.964  1.00 39.25     0.078 A 
HETATM   13 CL16   D T 502       8.325   1.189  -7.314  1.00 15.54    -0.085 Cl
HETATM   14  C11   D T 502       6.746   1.045 -11.088  1.00 44.23     0.041 A 
HETATM   15  C12   D T 502       5.350   0.786 -10.876  1.00 45.82     0.009 A 
HETATM   16 CL15   D T 502       7.318   1.210 -12.689  1.00 27.02    -0.087 Cl
HETATM   17  C13   D T 502       4.863   0.649  -9.526  1.00 43.44     0.026 A 
ENDBRANCH   1  10
TORSDOF 2
ENDMDL
MODEL 5
REMARK VINA RESULT:    -7.425      2.001      2.345
REMARK INTER + INTRA:          -8.682
REMARK INTER:                  -8.332
REMARK INTRA:                  -0.351
REMARK UNBOUND:                -0.389
REMARK  2 active torsions:
REMARK  status: ('A' for Active; 'I' for Inactive)
REMARK    1  A    between atoms: C5_4  and  O7_13 
REMARK    2  A    between atoms: C8_10  and  O7_13 
ROOT
HETATM    1  O7    D T 502       7.607   5.747   2.873  1.00 42.62    -0.304 OA
ENDROOT
BRANCH   1   2
HETATM    2  C5    D T 502       6.781   5.749   1.742  1.00 45.64     0.125 A 
HETATM    3  C6    D T 502       5.778   6.819   1.622  1.00 42.75     0.154 A 
HETATM    4  C1    D T 502       4.929   6.850   0.497  1.00 37.90     0.041 A 
HETATM    5  O17   D T 502       5.671   7.748   2.561  1.00 33.10    -0.188 OA
HETATM    6  C2    D T 502       5.068   5.839  -0.499  1.00 35.81     0.060 A 
HETATM    7  C3    D T 502       6.048   4.767  -0.404  1.00 39.03     0.014 A 
HETATM    8 CL14   D T 502       4.013   5.905  -1.891  1.00 14.39    -0.082 Cl
HETATM    9  C4    D T 502       6.893   4.749   0.730  1.00 45.32     0.028 A 
ENDBRANCH   1   2
BRANCH   1  10
HETATM   10  C8    D T 502       7.930   4.555   3.631  1.00 43.73     0.107 A 
HETATM   11  C9    D T 502       6.821   3.893   4.354  1.00 40.41     0.063 A 
HETATM   12  C10   D T 502       7.056   2.712   5.127  1.00 39.25     0.078 A 
HETATM   13 CL16   D T 502       5.181   4.516   4.305  1.00 15.54    -0.085 Cl
HETATM   14  C11   D T 502       8.407   2.160   5.195  1.00 44.23     0.041 A 
HETATM   15  C12   D T 502       9.501   2.783   4.502  1.00 45.82     0.009 A 
HETATM   16 CL15   D T 502       8.712   0.752   6.113  1.00 27.02    -0.087 Cl
HETATM   17  C13   D T 502       9.248   3.973   3.729  1.00 43.44     0.026 A 
ENDBRANCH   1  10
TORSDOF 2
ENDMDL
MODEL 6
REMARK VINA RESULT:    -7.351      9.386     11.251
REMARK INTER + INTRA:          -8.600
REMARK INTER:                  -8.233
REMARK INTRA:                  -0.367
REMARK UNBOUND:                -0.389
REMARK  2 active torsions:
REMARK  status: ('A' for Active; 'I' for Inactive)
REMARK    1  A    between atoms: C5_4  and  O7_13 
REMARK    2  A    between atoms: C8_10  and  O7_13 
ROOT
HETATM    1  O7    D T 502       5.382   3.143  -7.458  1.00 42.62    -0.304 OA
ENDROOT
BRANCH   1   2
HETATM    2  C5    D T 502       5.851   2.664  -8.688  1.00 45.64     0.125 A 
HETATM    3  C6    D T 502       7.285   2.360  -8.810  1.00 42.75     0.154 A 
HETATM    4  C1    D T 502       7.790   1.877 -10.033  1.00 37.90     0.041 A 
HETATM    5  O17   D T 502       8.099   2.538  -7.779  1.00 33.10    -0.188 OA
HETATM    6  C2    D T 502       6.891   1.694 -11.125  1.00 35.81     0.060 A 
HETATM    7  C3    D T 502       5.468   1.988 -11.034  1.00 39.03     0.014 A 
HETATM    8 CL14   D T 502       7.538   1.081 -12.629  1.00 14.39    -0.082 Cl
HETATM    9  C4    D T 502       4.977   2.472  -9.800  1.00 45.32     0.028 A 
ENDBRANCH   1   2
BRANCH   1  10
HETATM   10  C8    D T 502       4.886   2.289  -6.398  1.00 43.73     0.107 A 
HETATM   11  C9    D T 502       3.962   2.899  -5.416  1.00 40.41     0.063 A 
HETATM   12  C10   D T 502       3.428   2.125  -4.337  1.00 39.25     0.078 A 
HETATM   13 CL16   D T 502       3.482   4.584  -5.519  1.00 15.54    -0.085 Cl
HETATM   14  C11   D T 502       3.803   0.718  -4.215  1.00 44.23     0.041 A 
HETATM   15  C12   D T 502       4.696   0.102  -5.155  1.00 45.82     0.009 A 
HETATM   16 CL15   D T 502       3.178  -0.226  -2.935  1.00 27.02    -0.087 Cl
HETATM   17  C13   D T 502       5.227   0.895  -6.235  1.00 43.44     0.026 A 
ENDBRANCH   1  10
TORSDOF 2
ENDMDL
MODEL 7
REMARK VINA RESULT:    -7.325      9.107     12.216
REMARK INTER + INTRA:          -8.570
REMARK INTER:                  -8.162
REMARK INTRA:                  -0.408
REMARK UNBOUND:                -0.389
REMARK  2 active torsions:
REMARK  status: ('A' for Active; 'I' for Inactive)
REMARK    1  A    between atoms: C5_4  and  O7_13 
REMARK    2  A    between atoms: C8_10  and  O7_13 
ROOT
HETATM    1  O7    D T 502       5.228   3.313  -7.280  1.00 42.62    -0.304 OA
ENDROOT
BRANCH   1   2
HETATM    2  C5    D T 502       4.721   2.484  -6.271  1.00 45.64     0.125 A 
HETATM    3  C6    D T 502       4.766   2.976  -4.885  1.00 42.75     0.154 A 
HETATM    4  C1    D T 502       4.265   2.166  -3.846  1.00 37.90     0.041 A 
HETATM    5  O17   D T 502       5.271   4.170  -4.612  1.00 33.10    -0.188 OA
HETATM    6  C2    D T 502       3.726   0.886  -4.170  1.00 35.81     0.060 A 
HETATM    7  C3    D T 502       3.672   0.373  -5.530  1.00 39.03     0.014 A 
HETATM    8 CL14   D T 502       3.100  -0.096  -2.866  1.00 14.39    -0.082 Cl
HETATM    9  C4    D T 502       4.178   1.197  -6.562  1.00 45.32     0.028 A 
ENDBRANCH   1   2
BRANCH   1  10
HETATM   10  C8    D T 502       5.735   2.823  -8.546  1.00 43.73     0.107 A 
HETATM   11  C9    D T 502       7.150   2.391  -8.585  1.00 40.41     0.063 A 
HETATM   12  C10   D T 502       7.728   1.895  -9.797  1.00 39.25     0.078 A 
HETATM   13 CL16   D T 502       8.181   2.466  -7.167  1.00 15.54    -0.085 Cl
HETATM   14  C11   D T 502       6.904   1.817 -11.001  1.00 44.23     0.041 A 
HETATM   15  C12   D T 502       5.528   2.229 -10.989  1.00 45.82     0.009 A 
HETATM   16 CL15   D T 502       7.574   1.230 -12.459  1.00 27.02    -0.087 Cl
HETATM   17  C13   D T 502       4.961   2.727  -9.761  1.00 43.44     0.026 A 
ENDBRANCH   1  10
TORSDOF 2
ENDMDL
MODEL 8
REMARK VINA RESULT:    -7.192      8.855     10.776
REMARK INTER + INTRA:          -8.421
REMARK INTER:                  -7.938
REMARK INTRA:                  -0.483
REMARK UNBOUND:                -0.389
REMARK  2 active torsions:
REMARK  status: ('A' for Active; 'I' for Inactive)
REMARK    1  A    between atoms: C5_4  and  O7_13 
REMARK    2  A    between atoms: C8_10  and  O7_13 
ROOT
HETATM    1  O7    D T 502       4.070   1.746  -7.120  1.00 42.62    -0.304 OA
ENDROOT
BRANCH   1   2
HETATM    2  C5    D T 502       5.001   1.426  -8.116  1.00 45.64     0.125 A 
HETATM    3  C6    D T 502       5.310   2.448  -9.128  1.00 42.75     0.154 A 
HETATM    4  C1    D T 502       6.242   2.158 -10.144  1.00 37.90     0.041 A 
HETATM    5  O17   D T 502       4.719   3.634  -9.086  1.00 33.10    -0.188 OA
HETATM    6  C2    D T 502       6.863   0.875 -10.163  1.00 35.81     0.060 A 
HETATM    7  C3    D T 502       6.575  -0.157  -9.177  1.00 39.03     0.014 A 
HETATM    8 CL14   D T 502       8.025   0.542 -11.426  1.00 14.39    -0.082 Cl
HETATM    9  C4    D T 502       5.638   0.149  -8.163  1.00 45.32     0.028 A 
ENDBRANCH   1   2
BRANCH   1  10
HETATM   10  C8    D T 502       4.433   2.249  -5.810  1.00 43.73     0.107 A 
HETATM   11  C9    D T 502       4.373   1.295  -4.680  1.00 40.41     0.063 A 
HETATM   12  C10   D T 502       4.715   1.711  -3.354  1.00 39.25     0.078 A 
HETATM   13 CL16   D T 502       3.882  -0.376  -4.904  1.00 15.54    -0.085 Cl
HETATM   14  C11   D T 502       5.128   3.093  -3.125  1.00 44.23     0.041 A 
HETATM   15  C12   D T 502       5.196   4.039  -4.204  1.00 45.82     0.009 A 
HETATM   16 CL15   D T 502       5.539   3.613  -1.550  1.00 27.02    -0.087 Cl
HETATM   17  C13   D T 502       4.847   3.604  -5.534  1.00 43.44     0.026 A 
ENDBRANCH   1  10
TORSDOF 2
ENDMDL
MODEL 9
REMARK VINA RESULT:    -7.111      8.615     11.473
REMARK INTER + INTRA:          -8.331
REMARK INTER:                  -7.889
REMARK INTRA:                  -0.443
REMARK UNBOUND:                -0.389
REMARK  2 active torsions:
REMARK  status: ('A' for Active; 'I' for Inactive)
REMARK    1  A    between atoms: C5_4  and  O7_13 
REMARK    2  A    between atoms: C8_10  and  O7_13 
ROOT
HETATM    1  O7    D T 502       4.049   1.693  -6.932  1.00 42.62    -0.304 OA
ENDROOT
BRANCH   1   2
HETATM    2  C5    D T 502       4.423   2.184  -5.675  1.00 45.64     0.125 A 
HETATM    3  C6    D T 502       4.435   1.244  -4.542  1.00 42.75     0.154 A 
HETATM    4  C1    D T 502       4.805   1.705  -3.263  1.00 37.90     0.041 A 
HETATM    5  O17   D T 502       4.101  -0.026  -4.720  1.00 33.10    -0.188 OA
HETATM    6  C2    D T 502       5.161   3.077  -3.102  1.00 35.81     0.060 A 
HETATM    7  C3    D T 502       5.155   4.029  -4.202  1.00 39.03     0.014 A 
HETATM    8 CL14   D T 502       5.628   3.623  -1.508  1.00 14.39    -0.082 Cl
HETATM    9  C4    D T 502       4.782   3.552  -5.480  1.00 45.32     0.028 A 
ENDBRANCH   1   2
BRANCH   1  10
HETATM   10  C8    D T 502       4.995   1.355  -7.977  1.00 43.73     0.107 A 
HETATM   11  C9    D T 502       5.290   2.398  -8.985  1.00 40.41     0.063 A 
HETATM   12  C10   D T 502       6.211   2.143 -10.050  1.00 39.25     0.078 A 
HETATM   13 CL16   D T 502       4.532   3.980  -8.929  1.00 15.54    -0.085 Cl
HETATM   14  C11   D T 502       6.863   0.839 -10.134  1.00 44.23     0.041 A 
HETATM   15  C12   D T 502       6.595  -0.190  -9.168  1.00 45.82     0.009 A 
HETATM   16 CL15   D T 502       7.965   0.512 -11.398  1.00 27.02    -0.087 Cl
HETATM   17  C13   D T 502       5.664   0.081  -8.101  1.00 43.44     0.026 A 
ENDBRANCH   1  10
TORSDOF 2
ENDMDL
