MODEL 1
REMARK VINA RESULT:    -7.603      0.000      0.000
REMARK INTER + INTRA:          -8.907
REMARK INTER:                  -8.492
REMARK INTRA:                  -0.415
REMARK UNBOUND:                -0.415
REMARK  2 active torsions:
REMARK  status: ('A' for Active; 'I' for Inactive)
REMARK    1  A    between atoms: C5_4  and  O7_13 
REMARK    2  A    between atoms: C8_10  and  O7_13 
ROOT
HETATM    1  O7    D T 502       4.573   0.855  -7.731  1.00 42.62    -0.304 OA
ENDROOT
BRANCH   1   2
HETATM    2  C5    D T 502       3.756   1.653  -6.921  1.00 45.64     0.125 A 
HETATM    3  C6    D T 502       2.932   0.985  -5.901  1.00 42.75     0.154 A 
HETATM    4  C1    D T 502       2.099   1.758  -5.068  1.00 37.90     0.041 A 
HETATM    5  O17   D T 502       2.972  -0.333  -5.762  1.00 33.10    -0.188 OA
HETATM    6  C2    D T 502       2.077   3.174  -5.238  1.00 35.81     0.060 A 
HETATM    7  C3    D T 502       2.879   3.861  -6.240  1.00 39.03     0.014 A 
HETATM    8 CL14   D T 502       1.045   4.114  -4.187  1.00 14.39    -0.082 Cl
HETATM    9  C4    D T 502       3.711   3.071  -7.068  1.00 45.32     0.028 A 
ENDBRANCH   1   2
BRANCH   1  10
HETATM   10  C8    D T 502       4.898   1.174  -9.108  1.00 43.73     0.107 A 
HETATM   11  C9    D T 502       3.852   0.929 -10.123  1.00 40.41     0.063 A 
HETATM   12  C10   D T 502       4.094   1.217 -11.505  1.00 39.25     0.078 A 
HETATM   13 CL16   D T 502       2.278   0.282  -9.695  1.00 15.54    -0.085 Cl
HETATM   14  C11   D T 502       5.391   1.757 -11.905  1.00 44.23     0.041 A 
HETATM   15  C12   D T 502       6.424   2.004 -10.938  1.00 45.82     0.009 A 
HETATM   16 CL15   D T 502       5.702   2.105 -13.548  1.00 27.02    -0.087 Cl
HETATM   17  C13   D T 502       6.164   1.709  -9.550  1.00 43.44     0.026 A 
ENDBRANCH   1  10
TORSDOF 2
ENDMDL
MODEL 2
REMARK VINA RESULT:    -7.580      9.142     11.653
REMARK INTER + INTRA:          -8.882
REMARK INTER:                  -8.464
REMARK INTRA:                  -0.417
REMARK UNBOUND:                -0.415
REMARK  2 active torsions:
REMARK  status: ('A' for Active; 'I' for Inactive)
REMARK    1  A    between atoms: C5_4  and  O7_13 
REMARK    2  A    between atoms: C8_10  and  O7_13 
ROOT
HETATM    1  O7    D T 502       5.076   5.850   2.425  1.00 42.62    -0.304 OA
ENDROOT
BRANCH   1   2
HETATM    2  C5    D T 502       6.314   5.350   2.849  1.00 45.64     0.125 A 
HETATM    3  C6    D T 502       6.337   4.477   4.033  1.00 42.75     0.154 A 
HETATM    4  C1    D T 502       7.565   3.958   4.487  1.00 37.90     0.041 A 
HETATM    5  O17   D T 502       5.213   4.179   4.671  1.00 33.10    -0.188 OA
HETATM    6  C2    D T 502       8.759   4.294   3.783  1.00 35.81     0.060 A 
HETATM    7  C3    D T 502       8.765   5.158   2.610  1.00 39.03     0.014 A 
HETATM    8 CL14   D T 502      10.269   3.630   4.356  1.00 14.39    -0.082 Cl
HETATM    9  C4    D T 502       7.524   5.670   2.167  1.00 45.32     0.028 A 
ENDBRANCH   1   2
BRANCH   1  10
HETATM   10  C8    D T 502       4.790   6.236   1.057  1.00 43.73     0.107 A 
HETATM   11  C9    D T 502       4.906   7.672   0.724  1.00 40.41     0.063 A 
HETATM   12  C10   D T 502       4.639   8.137  -0.604  1.00 39.25     0.078 A 
HETATM   13 CL16   D T 502       5.370   8.868   1.922  1.00 15.54    -0.085 Cl
HETATM   14  C11   D T 502       4.250   7.175  -1.632  1.00 44.23     0.041 A 
HETATM   15  C12   D T 502       4.131   5.775  -1.334  1.00 45.82     0.009 A 
HETATM   16 CL15   D T 502       3.924   7.708  -3.222  1.00 27.02    -0.087 Cl
HETATM   17  C13   D T 502       4.402   5.323   0.009  1.00 43.44     0.026 A 
ENDBRANCH   1  10
TORSDOF 2
ENDMDL
MODEL 3
REMARK VINA RESULT:    -7.400      1.372      1.923
REMARK INTER + INTRA:          -8.681
REMARK INTER:                  -8.242
REMARK INTRA:                  -0.439
REMARK UNBOUND:                -0.415
REMARK  2 active torsions:
REMARK  status: ('A' for Active; 'I' for Inactive)
REMARK    1  A    between atoms: C5_4  and  O7_13 
REMARK    2  A    between atoms: C8_10  and  O7_13 
ROOT
HETATM    1  O7    D T 502       4.994   1.310  -7.538  1.00 42.62    -0.304 OA
ENDROOT
BRANCH   1   2
HETATM    2  C5    D T 502       4.063   2.002  -6.754  1.00 45.64     0.125 A 
HETATM    3  C6    D T 502       3.089   1.214  -5.983  1.00 42.75     0.154 A 
HETATM    4  C1    D T 502       2.137   1.878  -5.184  1.00 37.90     0.041 A 
HETATM    5  O17   D T 502       3.103  -0.111  -6.035  1.00 33.10    -0.188 OA
HETATM    6  C2    D T 502       2.145   3.304  -5.145  1.00 35.81     0.060 A 
HETATM    7  C3    D T 502       3.095   4.109  -5.900  1.00 39.03     0.014 A 
HETATM    8 CL14   D T 502       0.963   4.107  -4.138  1.00 14.39    -0.082 Cl
HETATM    9  C4    D T 502       4.044   3.426  -6.697  1.00 45.32     0.028 A 
ENDBRANCH   1   2
BRANCH   1  10
HETATM   10  C8    D T 502       5.098   1.452  -8.978  1.00 43.73     0.107 A 
HETATM   11  C9    D T 502       6.359   2.011  -9.511  1.00 40.41     0.063 A 
HETATM   12  C10   D T 502       6.541   2.184 -10.921  1.00 39.25     0.078 A 
HETATM   13 CL16   D T 502       7.682   2.485  -8.460  1.00 15.54    -0.085 Cl
HETATM   14  C11   D T 502       5.466   1.803 -11.832  1.00 44.23     0.041 A 
HETATM   15  C12   D T 502       4.231   1.257 -11.339  1.00 45.82     0.009 A 
HETATM   16 CL15   D T 502       5.661   2.003 -13.517  1.00 27.02    -0.087 Cl
HETATM   17  C13   D T 502       4.064   1.089  -9.917  1.00 43.44     0.026 A 
ENDBRANCH   1  10
TORSDOF 2
ENDMDL
MODEL 4
REMARK VINA RESULT:    -7.375      1.421      6.230
REMARK INTER + INTRA:          -8.653
REMARK INTER:                  -8.173
REMARK INTRA:                  -0.480
REMARK UNBOUND:                -0.415
REMARK  2 active torsions:
REMARK  status: ('A' for Active; 'I' for Inactive)
REMARK    1  A    between atoms: C5_4  and  O7_13 
REMARK    2  A    between atoms: C8_10  and  O7_13 
ROOT
HETATM    1  O7    D T 502       5.508   1.560  -7.609  1.00 42.62    -0.304 OA
ENDROOT
BRANCH   1   2
HETATM    2  C5    D T 502       5.553   1.662  -9.005  1.00 45.64     0.125 A 
HETATM    3  C6    D T 502       6.570   2.542  -9.600  1.00 42.75     0.154 A 
HETATM    4  C1    D T 502       6.643   2.668 -11.002  1.00 37.90     0.041 A 
HETATM    5  O17   D T 502       7.415   3.212  -8.829  1.00 33.10    -0.188 OA
HETATM    6  C2    D T 502       5.723   1.935 -11.808  1.00 35.81     0.060 A 
HETATM    7  C3    D T 502       4.704   1.060 -11.246  1.00 39.03     0.014 A 
HETATM    8 CL14   D T 502       5.838   2.097 -13.544  1.00 14.39    -0.082 Cl
HETATM    9  C4    D T 502       4.645   0.944  -9.837  1.00 45.32     0.028 A 
ENDBRANCH   1   2
BRANCH   1  10
HETATM   10  C8    D T 502       4.446   2.118  -6.794  1.00 43.73     0.107 A 
HETATM   11  C9    D T 502       3.436   1.176  -6.266  1.00 40.41     0.063 A 
HETATM   12  C10   D T 502       2.354   1.647  -5.454  1.00 39.25     0.078 A 
HETATM   13 CL16   D T 502       3.508  -0.545  -6.600  1.00 15.54    -0.085 Cl
HETATM   14  C11   D T 502       2.256   3.072  -5.151  1.00 44.23     0.041 A 
HETATM   15  C12   D T 502       3.225   4.007  -5.652  1.00 45.82     0.009 A 
HETATM   16 CL15   D T 502       0.973   3.656  -4.187  1.00 27.02    -0.087 Cl
HETATM   17  C13   D T 502       4.309   3.517  -6.468  1.00 43.44     0.026 A 
ENDBRANCH   1  10
TORSDOF 2
ENDMDL
MODEL 5
REMARK VINA RESULT:    -7.278      9.338     11.781
REMARK INTER + INTRA:          -8.544
REMARK INTER:                  -8.090
REMARK INTRA:                  -0.454
REMARK UNBOUND:                -0.415
REMARK  2 active torsions:
REMARK  status: ('A' for Active; 'I' for Inactive)
REMARK    1  A    between atoms: C5_4  and  O7_13 
REMARK    2  A    between atoms: C8_10  and  O7_13 
ROOT
HETATM    1  O7    D T 502       7.126   6.622   2.141  1.00 42.62    -0.304 OA
ENDROOT
BRANCH   1   2
HETATM    2  C5    D T 502       7.402   5.413   2.793  1.00 45.64     0.125 A 
HETATM    3  C6    D T 502       8.805   4.978   2.872  1.00 42.75     0.154 A 
HETATM    4  C1    D T 502       9.119   3.767   3.520  1.00 37.90     0.041 A 
HETATM    5  O17   D T 502       9.770   5.716   2.341  1.00 33.10    -0.188 OA
HETATM    6  C2    D T 502       8.062   2.992   4.084  1.00 35.81     0.060 A 
HETATM    7  C3    D T 502       6.666   3.398   4.017  1.00 39.03     0.014 A 
HETATM    8 CL14   D T 502       8.476   1.500   4.893  1.00 14.39    -0.082 Cl
HETATM    9  C4    D T 502       6.367   4.617   3.364  1.00 45.32     0.028 A 
ENDBRANCH   1   2
BRANCH   1  10
HETATM   10  C8    D T 502       6.292   6.727   0.959  1.00 43.73     0.107 A 
HETATM   11  C9    D T 502       4.917   7.239   1.147  1.00 40.41     0.063 A 
HETATM   12  C10   D T 502       4.030   7.372   0.031  1.00 39.25     0.078 A 
HETATM   13 CL16   D T 502       4.308   7.706   2.725  1.00 15.54    -0.085 Cl
HETATM   14  C11   D T 502       4.496   6.996  -1.301  1.00 44.23     0.041 A 
HETATM   15  C12   D T 502       5.827   6.495  -1.509  1.00 45.82     0.009 A 
HETATM   16 CL15   D T 502       3.454   7.144  -2.646  1.00 27.02    -0.087 Cl
HETATM   17  C13   D T 502       6.708   6.367  -0.375  1.00 43.44     0.026 A 
ENDBRANCH   1  10
TORSDOF 2
ENDMDL
MODEL 6
REMARK VINA RESULT:    -7.252      2.399      3.021
REMARK INTER + INTRA:          -8.515
REMARK INTER:                  -8.082
REMARK INTRA:                  -0.433
REMARK UNBOUND:                -0.415
REMARK  2 active torsions:
REMARK  status: ('A' for Active; 'I' for Inactive)
REMARK    1  A    between atoms: C5_4  and  O7_13 
REMARK    2  A    between atoms: C8_10  and  O7_13 
ROOT
HETATM    1  O7    D T 502       4.579   3.602  -7.727  1.00 42.62    -0.304 OA
ENDROOT
BRANCH   1   2
HETATM    2  C5    D T 502       4.188   2.735  -6.699  1.00 45.64     0.125 A 
HETATM    3  C6    D T 502       3.051   3.134  -5.855  1.00 42.75     0.154 A 
HETATM    4  C1    D T 502       2.631   2.285  -4.811  1.00 37.90     0.041 A 
HETATM    5  O17   D T 502       2.423   4.281  -6.071  1.00 33.10    -0.188 OA
HETATM    6  C2    D T 502       3.324   1.056  -4.601  1.00 35.81     0.060 A 
HETATM    7  C3    D T 502       4.454   0.638  -5.419  1.00 39.03     0.014 A 
HETATM    8 CL14   D T 502       2.779   0.014  -3.309  1.00 14.39    -0.082 Cl
HETATM    9  C4    D T 502       4.862   1.501  -6.463  1.00 45.32     0.028 A 
ENDBRANCH   1   2
BRANCH   1  10
HETATM   10  C8    D T 502       4.787   3.181  -9.099  1.00 43.73     0.107 A 
HETATM   11  C9    D T 502       6.184   2.988  -9.542  1.00 40.41     0.063 A 
HETATM   12  C10   D T 502       6.475   2.575 -10.882  1.00 39.25     0.078 A 
HETATM   13 CL16   D T 502       7.543   3.251  -8.463  1.00 15.54    -0.085 Cl
HETATM   14  C11   D T 502       5.373   2.345 -11.812  1.00 44.23     0.041 A 
HETATM   15  C12   D T 502       4.006   2.525 -11.407  1.00 45.82     0.009 A 
HETATM   16 CL15   D T 502       5.697   1.854 -13.416  1.00 27.02    -0.087 Cl
HETATM   17  C13   D T 502       3.731   2.941 -10.054  1.00 43.44     0.026 A 
ENDBRANCH   1  10
TORSDOF 2
ENDMDL
MODEL 7
REMARK VINA RESULT:    -7.207      2.170      6.302
REMARK INTER + INTRA:          -8.465
REMARK INTER:                  -8.031
REMARK INTRA:                  -0.434
REMARK UNBOUND:                -0.415
REMARK  2 active torsions:
REMARK  status: ('A' for Active; 'I' for Inactive)
REMARK    1  A    between atoms: C5_4  and  O7_13 
REMARK    2  A    between atoms: C8_10  and  O7_13 
ROOT
HETATM    1  O7    D T 502       4.729   3.459  -7.806  1.00 42.62    -0.304 OA
ENDROOT
BRANCH   1   2
HETATM    2  C5    D T 502       4.912   3.066  -9.138  1.00 45.64     0.125 A 
HETATM    3  C6    D T 502       6.290   2.878  -9.619  1.00 42.75     0.154 A 
HETATM    4  C1    D T 502       6.510   2.484 -10.954  1.00 37.90     0.041 A 
HETATM    5  O17   D T 502       7.319   3.076  -8.807  1.00 33.10    -0.188 OA
HETATM    6  C2    D T 502       5.385   2.277 -11.806  1.00 35.81     0.060 A 
HETATM    7  C3    D T 502       4.012   2.459 -11.357  1.00 39.03     0.014 A 
HETATM    8 CL14   D T 502       5.681   1.778 -13.454  1.00 14.39    -0.082 Cl
HETATM    9  C4    D T 502       3.808   2.854 -10.014  1.00 45.32     0.028 A 
ENDBRANCH   1   2
BRANCH   1  10
HETATM   10  C8    D T 502       4.320   2.554  -6.749  1.00 43.73     0.107 A 
HETATM   11  C9    D T 502       3.166   2.963  -5.920  1.00 40.41     0.063 A 
HETATM   12  C10   D T 502       2.700   2.127  -4.856  1.00 39.25     0.078 A 
HETATM   13 CL16   D T 502       2.318   4.475  -6.193  1.00 15.54    -0.085 Cl
HETATM   14  C11   D T 502       3.377   0.859  -4.594  1.00 44.23     0.041 A 
HETATM   15  C12   D T 502       4.500   0.439  -5.386  1.00 45.82     0.009 A 
HETATM   16 CL15   D T 502       2.839  -0.153  -3.328  1.00 27.02    -0.087 Cl
HETATM   17  C13   D T 502       4.957   1.293  -6.454  1.00 43.44     0.026 A 
ENDBRANCH   1  10
TORSDOF 2
ENDMDL
MODEL 8
REMARK VINA RESULT:    -7.141      2.382      6.392
REMARK INTER + INTRA:          -8.391
REMARK INTER:                  -7.901
REMARK INTRA:                  -0.490
REMARK UNBOUND:                -0.415
REMARK  2 active torsions:
REMARK  status: ('A' for Active; 'I' for Inactive)
REMARK    1  A    between atoms: C5_4  and  O7_13 
REMARK    2  A    between atoms: C8_10  and  O7_13 
ROOT
HETATM    1  O7    D T 502       2.757   2.070  -7.286  1.00 42.62    -0.304 OA
ENDROOT
BRANCH   1   2
HETATM    2  C5    D T 502       3.613   1.831  -8.368  1.00 45.64     0.125 A 
HETATM    3  C6    D T 502       3.646   2.822  -9.455  1.00 42.75     0.154 A 
HETATM    4  C1    D T 502       4.496   2.613 -10.558  1.00 37.90     0.041 A 
HETATM    5  O17   D T 502       2.884   3.906  -9.400  1.00 33.10    -0.188 OA
HETATM    6  C2    D T 502       5.306   1.439 -10.592  1.00 35.81     0.060 A 
HETATM    7  C3    D T 502       5.292   0.441  -9.532  1.00 39.03     0.014 A 
HETATM    8 CL14   D T 502       6.362   1.205 -11.964  1.00 14.39    -0.082 Cl
HETATM    9  C4    D T 502       4.433   0.667  -8.431  1.00 45.32     0.028 A 
ENDBRANCH   1   2
BRANCH   1  10
HETATM   10  C8    D T 502       3.188   2.659  -6.033  1.00 43.73     0.107 A 
HETATM   11  C9    D T 502       3.405   1.739  -4.896  1.00 40.41     0.063 A 
HETATM   12  C10   D T 502       3.830   2.240  -3.623  1.00 39.25     0.078 A 
HETATM   13 CL16   D T 502       3.158   0.008  -5.042  1.00 15.54    -0.085 Cl
HETATM   14  C11   D T 502       4.048   3.675  -3.458  1.00 44.23     0.041 A 
HETATM   15  C12   D T 502       3.843   4.589  -4.547  1.00 45.82     0.009 A 
HETATM   16 CL15   D T 502       4.552   4.295  -1.948  1.00 27.02    -0.087 Cl
HETATM   17  C13   D T 502       3.415   4.068  -5.822  1.00 43.44     0.026 A 
ENDBRANCH   1  10
TORSDOF 2
ENDMDL
MODEL 9
REMARK VINA RESULT:    -6.990      2.091      2.221
REMARK INTER + INTRA:          -8.223
REMARK INTER:                  -7.800
REMARK INTRA:                  -0.423
REMARK UNBOUND:                -0.415
REMARK  2 active torsions:
REMARK  status: ('A' for Active; 'I' for Inactive)
REMARK    1  A    between atoms: C5_4  and  O7_13 
REMARK    2  A    between atoms: C8_10  and  O7_13 
ROOT
HETATM    1  O7    D T 502       2.824   1.959  -7.340  1.00 42.62    -0.304 OA
ENDROOT
BRANCH   1   2
HETATM    2  C5    D T 502       3.270   2.569  -6.161  1.00 45.64     0.125 A 
HETATM    3  C6    D T 502       3.841   1.709  -5.113  1.00 42.75     0.154 A 
HETATM    4  C1    D T 502       4.300   2.289  -3.914  1.00 37.90     0.041 A 
HETATM    5  O17   D T 502       3.926   0.398  -5.291  1.00 33.10    -0.188 OA
HETATM    6  C2    D T 502       4.197   3.703  -3.749  1.00 35.81     0.060 A 
HETATM    7  C3    D T 502       3.634   4.577  -4.768  1.00 39.03     0.014 A 
HETATM    8 CL14   D T 502       4.783   4.403  -2.259  1.00 14.39    -0.082 Cl
HETATM    9  C4    D T 502       3.179   3.978  -5.966  1.00 45.32     0.028 A 
ENDBRANCH   1   2
BRANCH   1  10
HETATM   10  C8    D T 502       3.651   1.780  -8.517  1.00 43.73     0.107 A 
HETATM   11  C9    D T 502       3.600   2.841  -9.546  1.00 40.41     0.063 A 
HETATM   12  C10   D T 502       4.386   2.739 -10.738  1.00 39.25     0.078 A 
HETATM   13 CL16   D T 502       2.587   4.262  -9.363  1.00 15.54    -0.085 Cl
HETATM   14  C11   D T 502       5.244   1.573 -10.931  1.00 44.23     0.041 A 
HETATM   15  C12   D T 502       5.311   0.528  -9.947  1.00 45.82     0.009 A 
HETATM   16 CL15   D T 502       6.188   1.430 -12.348  1.00 27.02    -0.087 Cl
HETATM   17  C13   D T 502       4.513   0.646  -8.751  1.00 43.44     0.026 A 
ENDBRANCH   1  10
TORSDOF 2
ENDMDL
