MODEL 1
REMARK VINA RESULT:    -8.793      0.000      0.000
REMARK INTER + INTRA:         -10.078
REMARK INTER:                  -9.821
REMARK INTRA:                  -0.257
REMARK UNBOUND:                -0.257
REMARK  2 active torsions:
REMARK  status: ('A' for Active; 'I' for Inactive)
REMARK    1  A    between atoms: CBF_31  and  CBG_32 
REMARK    2  A    between atoms: CBG_32  and  NBH_33 
ROOT
HETATM    1  CBD   D T1374       8.442   1.470  -2.975  1.00 18.24     0.056 C 
HETATM    2  CBB   D T1374       8.220   2.381  -1.792  1.00 13.77     0.109 C 
HETATM    3  NAW   D T1374       9.245   2.406  -0.736  1.00 11.00    -0.326 N 
HETATM    4  CAV   D T1374       9.788   1.280  -0.147  1.00  9.70     0.076 A 
HETATM    5  CAX   D T1374       9.624   3.440  -0.014  1.00 10.89     0.060 A 
HETATM    6  CAY   D T1374       9.296   4.807  -0.122  1.00 13.31     0.017 A 
HETATM    7  CAZ   D T1374       9.876   5.724   0.784  1.00 12.88     0.002 A 
HETATM    8  CAP   D T1374      10.782   5.331   1.773  1.00 12.85     0.000 A 
HETATM    9  CAO   D T1374      11.100   3.955   1.893  1.00 12.21     0.002 A 
HETATM   10  CAN   D T1374      10.502   3.009   0.993  1.00 11.16     0.017 A 
HETATM   11  CAM   D T1374      10.638   1.629   0.856  1.00 10.47     0.023 A 
HETATM   12  CAH   D T1374      11.271   0.633   1.689  1.00 11.61     0.064 A 
HETATM   13  CAE   D T1374      11.249   0.659   3.124  1.00 11.67     0.282 A 
HETATM   14  OAF   D T1374      10.795   1.559   3.859  1.00 12.38    -0.265 OA
HETATM   15  NAD   D T1374      11.819  -0.466   3.640  1.00 11.58    -0.169 NA
HETATM   16  CAC   D T1374      12.173  -1.223   2.621  1.00 11.36     0.282 A 
HETATM   17  OAB   D T1374      12.665  -2.352   2.773  1.00 13.28    -0.265 OA
HETATM   18  CAG   D T1374      11.898  -0.615   1.363  1.00 10.54     0.064 A 
HETATM   19  CAL   D T1374      12.083  -1.138   0.041  1.00 12.92     0.023 A 
HETATM   20  CAU   D T1374      12.264  -0.334  -1.043  1.00 12.44     0.076 A 
HETATM   21  CAK   D T1374      12.039  -2.459  -0.468  1.00 12.61     0.017 A 
HETATM   22  CAJ   D T1374      11.871  -3.747   0.134  1.00 13.95     0.002 A 
HETATM   23  CAI   D T1374      11.860  -4.869  -0.704  1.00 15.63     0.000 A 
HETATM   24  CAQ   D T1374      12.004  -4.762  -2.097  1.00 14.37     0.002 A 
HETATM   25  CAR   D T1374      12.156  -3.504  -2.682  1.00 13.26     0.017 A 
HETATM   26  CAS   D T1374      12.169  -2.361  -1.856  1.00 11.92     0.060 A 
HETATM   27  NAT   D T1374      12.311  -1.073  -2.170  1.00 12.89    -0.324 N 
HETATM   28  CBA   D T1374      12.440  -0.443  -3.514  1.00 13.69     0.138 C 
HETATM   29  CBC   D T1374      11.012  -0.091  -3.955  1.00 16.12     0.167 C 
HETATM   30  OBE   D T1374      10.799   1.223  -3.383  1.00 16.41    -0.352 OA
HETATM   31  CBF   D T1374       9.627   1.919  -3.833  1.00 19.48     0.151 C 
ENDROOT
BRANCH  31  32
HETATM   32  CBG   D T1374      10.037   3.394  -3.612  1.00 23.41     0.280 C 
BRANCH  32  33
HETATM   33  NBH   D T1374      10.017   4.216  -4.868  1.00 26.24     0.144 N 
HETATM   34  CBI   D T1374       8.778   3.940  -5.616  1.00 27.90     0.286 C 
HETATM   35  CBJ   D T1374       9.930   5.669  -4.566  1.00 27.31     0.286 C 
ENDBRANCH  32  33
ENDBRANCH  31  32
TORSDOF 2
ENDMDL
MODEL 2
REMARK VINA RESULT:    -7.568      1.490      2.257
REMARK INTER + INTRA:          -8.710
REMARK INTER:                  -8.606
REMARK INTRA:                  -0.104
REMARK UNBOUND:                -0.257
REMARK  2 active torsions:
REMARK  status: ('A' for Active; 'I' for Inactive)
REMARK    1  A    between atoms: CBF_31  and  CBG_32 
REMARK    2  A    between atoms: CBG_32  and  NBH_33 
ROOT
HETATM    1  CBD   D T1374       7.773   2.174  -2.531  1.00 18.24     0.056 C 
HETATM    2  CBB   D T1374       7.554   3.421  -1.709  1.00 13.77     0.109 C 
HETATM    3  NAW   D T1374       8.631   3.850  -0.801  1.00 11.00    -0.326 N 
HETATM    4  CAV   D T1374       9.280   3.017   0.090  1.00  9.70     0.076 A 
HETATM    5  CAX   D T1374       8.978   5.084  -0.498  1.00 10.89     0.060 A 
HETATM    6  CAY   D T1374       8.552   6.316  -1.034  1.00 13.31     0.017 A 
HETATM    7  CAZ   D T1374       9.117   7.512  -0.534  1.00 12.88     0.002 A 
HETATM    8  CAP   D T1374      10.099   7.519   0.459  1.00 12.85     0.000 A 
HETATM    9  CAO   D T1374      10.516   6.282   1.011  1.00 12.21     0.002 A 
HETATM   10  CAN   D T1374       9.935   5.060   0.527  1.00 11.16     0.017 A 
HETATM   11  CAM   D T1374      10.157   3.724   0.852  1.00 10.47     0.023 A 
HETATM   12  CAH   D T1374      10.900   3.099   1.922  1.00 11.61     0.064 A 
HETATM   13  CAE   D T1374      10.953   3.610   3.262  1.00 11.67     0.282 A 
HETATM   14  OAF   D T1374      10.480   4.685   3.684  1.00 12.38    -0.265 OA
HETATM   15  NAD   D T1374      11.625   2.754   4.083  1.00 11.58    -0.169 NA
HETATM   16  CAC   D T1374      11.974   1.713   3.355  1.00 11.36     0.282 A 
HETATM   17  OAB   D T1374      12.550   0.726   3.839  1.00 13.28    -0.265 OA
HETATM   18  CAG   D T1374      11.591   1.845   1.989  1.00 10.54     0.064 A 
HETATM   19  CAL   D T1374      11.740   0.914   0.909  1.00 12.92     0.023 A 
HETATM   20  CAU   D T1374      11.808   1.309  -0.391  1.00 12.44     0.076 A 
HETATM   21  CAK   D T1374      11.758  -0.503   0.879  1.00 12.61     0.017 A 
HETATM   22  CAJ   D T1374      11.710  -1.516   1.888  1.00 13.95     0.002 A 
HETATM   23  CAI   D T1374      11.730  -2.855   1.479  1.00 15.63     0.000 A 
HETATM   24  CAQ   D T1374      11.791  -3.221   0.124  1.00 14.37     0.002 A 
HETATM   25  CAR   D T1374      11.827  -2.231  -0.859  1.00 13.26     0.017 A 
HETATM   26  CAS   D T1374      11.807  -0.876  -0.467  1.00 11.92     0.060 A 
HETATM   27  NAT   D T1374      11.844   0.234  -1.205  1.00 12.89    -0.324 N 
HETATM   28  CBA   D T1374      11.857   0.376  -2.689  1.00 13.69     0.138 C 
HETATM   29  CBC   D T1374      10.387   0.491  -3.116  1.00 16.12     0.167 C 
HETATM   30  OBE   D T1374      10.117   1.910  -3.005  1.00 16.41    -0.352 OA
HETATM   31  CBF   D T1374       8.877   2.358  -3.575  1.00 19.48     0.151 C 
ENDROOT
BRANCH  31  32
HETATM   32  CBG   D T1374       9.198   3.838  -3.892  1.00 23.41     0.280 C 
BRANCH  32  33
HETATM   33  NBH   D T1374       8.474   4.362  -5.099  1.00 26.24     0.144 N 
HETATM   34  CBI   D T1374       9.422   4.503  -6.217  1.00 27.90     0.286 C 
HETATM   35  CBJ   D T1374       7.477   3.382  -5.602  1.00 27.31     0.286 C 
ENDBRANCH  32  33
ENDBRANCH  31  32
TORSDOF 2
ENDMDL
MODEL 3
REMARK VINA RESULT:    -7.353      3.386      8.269
REMARK INTER + INTRA:          -8.470
REMARK INTER:                  -8.141
REMARK INTRA:                  -0.328
REMARK UNBOUND:                -0.257
REMARK  2 active torsions:
REMARK  status: ('A' for Active; 'I' for Inactive)
REMARK    1  A    between atoms: CBF_31  and  CBG_32 
REMARK    2  A    between atoms: CBG_32  and  NBH_33 
ROOT
HETATM    1  CBD   D T1374       8.943   5.033  -1.127  1.00 18.24     0.056 C 
HETATM    2  CBB   D T1374       9.224   3.578  -0.842  1.00 13.77     0.109 C 
HETATM    3  NAW   D T1374       9.508   2.690  -1.982  1.00 11.00    -0.326 N 
HETATM    4  CAV   D T1374       8.742   2.626  -3.130  1.00  9.70     0.076 A 
HETATM    5  CAX   D T1374      10.337   1.668  -2.013  1.00 10.89     0.060 A 
HETATM    6  CAY   D T1374      11.278   1.218  -1.065  1.00 13.31     0.017 A 
HETATM    7  CAZ   D T1374      12.072   0.090  -1.371  1.00 12.88     0.002 A 
HETATM    8  CAP   D T1374      11.976  -0.587  -2.589  1.00 12.85     0.000 A 
HETATM    9  CAO   D T1374      11.019  -0.146  -3.537  1.00 12.21     0.002 A 
HETATM   10  CAN   D T1374      10.191   0.987  -3.231  1.00 11.16     0.017 A 
HETATM   11  CAM   D T1374       9.203   1.648  -3.957  1.00 10.47     0.023 A 
HETATM   12  CAH   D T1374       8.522   1.319  -5.188  1.00 11.61     0.064 A 
HETATM   13  CAE   D T1374       8.137  -0.014  -5.556  1.00 11.67     0.282 A 
HETATM   14  OAF   D T1374       8.407  -1.075  -4.956  1.00 12.38    -0.265 OA
HETATM   15  NAD   D T1374       7.407  -0.010  -6.706  1.00 11.58    -0.169 NA
HETATM   16  CAC   D T1374       7.274   1.248  -7.076  1.00 11.36     0.282 A 
HETATM   17  OAB   D T1374       6.600   1.583  -8.062  1.00 13.28    -0.265 OA
HETATM   18  CAG   D T1374       7.956   2.150  -6.209  1.00 10.54     0.064 A 
HETATM   19  CAL   D T1374       8.002   3.583  -6.243  1.00 12.92     0.023 A 
HETATM   20  CAU   D T1374       9.037   4.292  -5.715  1.00 12.44     0.076 A 
HETATM   21  CAK   D T1374       7.066   4.549  -6.687  1.00 12.61     0.017 A 
HETATM   22  CAJ   D T1374       5.785   4.469  -7.319  1.00 13.95     0.002 A 
HETATM   23  CAI   D T1374       5.115   5.664  -7.606  1.00 15.63     0.000 A 
HETATM   24  CAQ   D T1374       5.660   6.920  -7.289  1.00 14.37     0.002 A 
HETATM   25  CAR   D T1374       6.905   6.995  -6.661  1.00 13.26     0.017 A 
HETATM   26  CAS   D T1374       7.595   5.801  -6.364  1.00 11.92     0.060 A 
HETATM   27  NAT   D T1374       8.783   5.615  -5.788  1.00 12.89    -0.324 N 
HETATM   28  CBA   D T1374       9.724   6.624  -5.226  1.00 13.69     0.138 C 
HETATM   29  CBC   D T1374       9.354   6.765  -3.742  1.00 16.12     0.167 C 
HETATM   30  OBE   D T1374      10.130   5.720  -3.104  1.00 16.41    -0.352 OA
HETATM   31  CBF   D T1374      10.175   5.762  -1.670  1.00 19.48     0.151 C 
ENDROOT
BRANCH  31  32
HETATM   32  CBG   D T1374      11.511   5.036  -1.380  1.00 23.41     0.280 C 
BRANCH  32  33
HETATM   33  NBH   D T1374      12.418   5.798  -0.458  1.00 26.24     0.144 N 
HETATM   34  CBI   D T1374      12.569   7.178  -0.948  1.00 27.90     0.286 C 
HETATM   35  CBJ   D T1374      11.811   5.965   0.888  1.00 27.31     0.286 C 
ENDBRANCH  32  33
ENDBRANCH  31  32
TORSDOF 2
ENDMDL
MODEL 4
REMARK VINA RESULT:    -7.227      7.867     12.103
REMARK INTER + INTRA:          -8.329
REMARK INTER:                  -7.967
REMARK INTRA:                  -0.363
REMARK UNBOUND:                -0.257
REMARK  2 active torsions:
REMARK  status: ('A' for Active; 'I' for Inactive)
REMARK    1  A    between atoms: CBF_31  and  CBG_32 
REMARK    2  A    between atoms: CBG_32  and  NBH_33 
ROOT
HETATM    1  CBD   D T1374      12.525   8.211   2.334  1.00 18.24     0.056 C 
HETATM    2  CBB   D T1374      11.134   8.782   2.202  1.00 13.77     0.109 C 
HETATM    3  NAW   D T1374      10.924   9.877   1.239  1.00 11.00    -0.326 N 
HETATM    4  CAV   D T1374      11.718  11.004   1.153  1.00  9.70     0.076 A 
HETATM    5  CAX   D T1374       9.855  10.101   0.504  1.00 10.89     0.060 A 
HETATM    6  CAY   D T1374       8.698   9.321   0.302  1.00 13.31     0.017 A 
HETATM    7  CAZ   D T1374       7.698   9.795  -0.577  1.00 12.88     0.002 A 
HETATM    8  CAP   D T1374       7.820  11.000  -1.273  1.00 12.85     0.000 A 
HETATM    9  CAO   D T1374       8.975  11.793  -1.058  1.00 12.21     0.002 A 
HETATM   10  CAN   D T1374       9.990  11.334  -0.152  1.00 11.16     0.017 A 
HETATM   11  CAM   D T1374      11.216  11.872   0.233  1.00 10.47     0.023 A 
HETATM   12  CAH   D T1374      11.815  13.168   0.015  1.00 11.61     0.064 A 
HETATM   13  CAE   D T1374      11.078  14.401   0.025  1.00 11.67     0.282 A 
HETATM   14  OAF   D T1374       9.842  14.545   0.113  1.00 12.38    -0.265 OA
HETATM   15  NAD   D T1374      11.917  15.469  -0.087  1.00 11.58    -0.169 NA
HETATM   16  CAC   D T1374      13.145  14.995  -0.135  1.00 11.36     0.282 A 
HETATM   17  OAB   D T1374      14.141  15.733  -0.174  1.00 13.28    -0.265 OA
HETATM   18  CAG   D T1374      13.185  13.571  -0.104  1.00 10.54     0.064 A 
HETATM   19  CAL   D T1374      14.320  12.694  -0.082  1.00 12.92     0.023 A 
HETATM   20  CAU   D T1374      14.263  11.417  -0.548  1.00 12.44     0.076 A 
HETATM   21  CAK   D T1374      15.624  12.849   0.449  1.00 12.61     0.017 A 
HETATM   22  CAJ   D T1374      16.313  13.931   1.083  1.00 13.95     0.002 A 
HETATM   23  CAI   D T1374      17.629  13.715   1.509  1.00 15.63     0.000 A 
HETATM   24  CAQ   D T1374      18.277  12.480   1.336  1.00 14.37     0.002 A 
HETATM   25  CAR   D T1374      17.598  11.423   0.728  1.00 13.26     0.017 A 
HETATM   26  CAS   D T1374      16.271  11.621   0.292  1.00 11.92     0.060 A 
HETATM   27  NAT   D T1374      15.431  10.783  -0.317  1.00 12.89    -0.324 N 
HETATM   28  CBA   D T1374      15.626   9.348  -0.670  1.00 13.69     0.138 C 
HETATM   29  CBC   D T1374      15.099   8.543   0.526  1.00 16.12     0.167 C 
HETATM   30  OBE   D T1374      13.687   8.399   0.236  1.00 16.41    -0.352 OA
HETATM   31  CBF   D T1374      12.968   7.475   1.067  1.00 19.48     0.151 C 
ENDROOT
BRANCH  31  32
HETATM   32  CBG   D T1374      11.799   7.067   0.139  1.00 23.41     0.280 C 
BRANCH  32  33
HETATM   33  NBH   D T1374      11.649   5.581  -0.016  1.00 26.24     0.144 N 
HETATM   34  CBI   D T1374      12.980   4.952  -0.038  1.00 27.90     0.286 C 
HETATM   35  CBJ   D T1374      10.992   4.975   1.171  1.00 27.31     0.286 C 
ENDBRANCH  32  33
ENDBRANCH  31  32
TORSDOF 2
ENDMDL
MODEL 5
REMARK VINA RESULT:    -6.945      3.846      7.902
REMARK INTER + INTRA:          -8.014
REMARK INTER:                  -7.679
REMARK INTRA:                  -0.336
REMARK UNBOUND:                -0.257
REMARK  2 active torsions:
REMARK  status: ('A' for Active; 'I' for Inactive)
REMARK    1  A    between atoms: CBF_31  and  CBG_32 
REMARK    2  A    between atoms: CBG_32  and  NBH_33 
ROOT
HETATM    1  CBD   D T1374      12.086   8.214   2.052  1.00 18.24     0.056 C 
HETATM    2  CBB   D T1374      11.937   9.094   0.836  1.00 13.77     0.109 C 
HETATM    3  NAW   D T1374      11.001   8.666  -0.218  1.00 11.00    -0.326 N 
HETATM    4  CAV   D T1374      10.967   7.397  -0.763  1.00  9.70     0.076 A 
HETATM    5  CAX   D T1374      10.246   9.433  -0.978  1.00 10.89     0.060 A 
HETATM    6  CAY   D T1374       9.994  10.818  -0.922  1.00 13.31     0.017 A 
HETATM    7  CAZ   D T1374       9.105  11.391  -1.860  1.00 12.88     0.002 A 
HETATM    8  CAP   D T1374       8.447  10.631  -2.830  1.00 12.85     0.000 A 
HETATM    9  CAO   D T1374       8.713   9.240  -2.898  1.00 12.21     0.002 A 
HETATM   10  CAN   D T1374       9.630   8.649  -1.965  1.00 11.16     0.017 A 
HETATM   11  CAM   D T1374      10.060   7.337  -1.777  1.00 10.47     0.023 A 
HETATM   12  CAH   D T1374       9.894   6.141  -2.569  1.00 11.61     0.064 A 
HETATM   13  CAE   D T1374       9.922   6.124  -4.004  1.00 11.67     0.282 A 
HETATM   14  OAF   D T1374       9.984   7.104  -4.774  1.00 12.38    -0.265 OA
HETATM   15  NAD   D T1374       9.861   4.847  -4.477  1.00 11.58    -0.169 NA
HETATM   16  CAC   D T1374       9.830   4.047  -3.430  1.00 11.36     0.282 A 
HETATM   17  OAB   D T1374       9.837   2.812  -3.537  1.00 13.28    -0.265 OA
HETATM   18  CAG   D T1374       9.820   4.760  -2.196  1.00 10.54     0.064 A 
HETATM   19  CAL   D T1374       9.845   4.253  -0.854  1.00 12.92     0.023 A 
HETATM   20  CAU   D T1374       9.341   4.953   0.199  1.00 12.44     0.076 A 
HETATM   21  CAK   D T1374      10.412   3.081  -0.297  1.00 12.61     0.017 A 
HETATM   22  CAJ   D T1374      11.093   1.951  -0.850  1.00 13.95     0.002 A 
HETATM   23  CAI   D T1374      11.545   0.959   0.029  1.00 15.63     0.000 A 
HETATM   24  CAQ   D T1374      11.353   1.047   1.418  1.00 14.37     0.002 A 
HETATM   25  CAR   D T1374      10.698   2.156   1.956  1.00 13.26     0.017 A 
HETATM   26  CAS   D T1374      10.236   3.167   1.087  1.00 11.92     0.060 A 
HETATM   27  NAT   D T1374       9.582   4.298   1.353  1.00 12.89    -0.324 N 
HETATM   28  CBA   D T1374       9.193   4.870   2.673  1.00 13.69     0.138 C 
HETATM   29  CBC   D T1374      10.352   5.783   3.097  1.00 16.12     0.167 C 
HETATM   30  OBE   D T1374      10.023   7.051   2.476  1.00 16.41    -0.352 OA
HETATM   31  CBF   D T1374      10.810   8.176   2.896  1.00 19.48     0.151 C 
ENDROOT
BRANCH  31  32
HETATM   32  CBG   D T1374       9.841   9.351   2.621  1.00 23.41     0.280 C 
BRANCH  32  33
HETATM   33  NBH   D T1374       9.683  10.282   3.788  1.00 26.24     0.144 N 
HETATM   34  CBI   D T1374      10.425   9.751   4.944  1.00 27.90     0.286 C 
HETATM   35  CBJ   D T1374      10.327  11.596   3.528  1.00 27.31     0.286 C 
ENDBRANCH  32  33
ENDBRANCH  31  32
TORSDOF 2
ENDMDL
MODEL 6
REMARK VINA RESULT:    -6.736      2.934      7.073
REMARK INTER + INTRA:          -7.781
REMARK INTER:                  -7.498
REMARK INTRA:                  -0.283
REMARK UNBOUND:                -0.257
REMARK  2 active torsions:
REMARK  status: ('A' for Active; 'I' for Inactive)
REMARK    1  A    between atoms: CBF_31  and  CBG_32 
REMARK    2  A    between atoms: CBG_32  and  NBH_33 
ROOT
HETATM    1  CBD   D T1374       8.682   1.544  -0.806  1.00 18.24     0.056 C 
HETATM    2  CBB   D T1374       8.256   2.537  -1.860  1.00 13.77     0.109 C 
HETATM    3  NAW   D T1374       8.856   3.882  -1.827  1.00 11.00    -0.326 N 
HETATM    4  CAV   D T1374       8.945   4.669  -0.695  1.00  9.70     0.076 A 
HETATM    5  CAX   D T1374       9.162   4.647  -2.854  1.00 10.89     0.060 A 
HETATM    6  CAY   D T1374       9.156   4.374  -4.237  1.00 13.31     0.017 A 
HETATM    7  CAZ   D T1374       9.565   5.386  -5.136  1.00 12.88     0.002 A 
HETATM    8  CAP   D T1374       9.996   6.643  -4.705  1.00 12.85     0.000 A 
HETATM    9  CAO   D T1374       9.987   6.924  -3.316  1.00 12.21     0.002 A 
HETATM   10  CAN   D T1374       9.555   5.912  -2.392  1.00 11.16     0.017 A 
HETATM   11  CAM   D T1374       9.462   5.890  -1.002  1.00 10.47     0.023 A 
HETATM   12  CAH   D T1374       9.578   6.931  -0.008  1.00 11.61     0.064 A 
HETATM   13  CAE   D T1374       9.084   8.266  -0.188  1.00 11.67     0.282 A 
HETATM   14  OAF   D T1374       8.592   8.760  -1.223  1.00 12.38    -0.265 OA
HETATM   15  NAD   D T1374       9.223   8.995   0.955  1.00 11.58    -0.169 NA
HETATM   16  CAC   D T1374       9.745   8.196   1.863  1.00 11.36     0.282 A 
HETATM   17  OAB   D T1374       9.934   8.556   3.035  1.00 13.28    -0.265 OA
HETATM   18  CAG   D T1374      10.027   6.896   1.353  1.00 10.54     0.064 A 
HETATM   19  CAL   D T1374      10.539   5.743   2.035  1.00 12.92     0.023 A 
HETATM   20  CAU   D T1374      11.222   4.758   1.391  1.00 12.44     0.076 A 
HETATM   21  CAK   D T1374      10.416   5.307   3.377  1.00 12.61     0.017 A 
HETATM   22  CAJ   D T1374       9.814   5.866   4.549  1.00 13.95     0.002 A 
HETATM   23  CAI   D T1374       9.869   5.125   5.736  1.00 15.63     0.000 A 
HETATM   24  CAQ   D T1374      10.487   3.865   5.801  1.00 14.37     0.002 A 
HETATM   25  CAR   D T1374      11.063   3.317   4.654  1.00 13.26     0.017 A 
HETATM   26  CAS   D T1374      11.018   4.048   3.449  1.00 11.92     0.060 A 
HETATM   27  NAT   D T1374      11.500   3.748   2.241  1.00 12.89    -0.324 N 
HETATM   28  CBA   D T1374      12.188   2.508   1.786  1.00 13.69     0.138 C 
HETATM   29  CBC   D T1374      11.083   1.584   1.252  1.00 16.12     0.167 C 
HETATM   30  OBE   D T1374      10.947   1.991  -0.132  1.00 16.41    -0.352 OA
HETATM   31  CBF   D T1374      10.148   1.133  -0.960  1.00 19.48     0.151 C 
ENDROOT
BRANCH  31  32
HETATM   32  CBG   D T1374      10.735   1.421  -2.363  1.00 23.41     0.280 C 
BRANCH  32  33
HETATM   33  NBH   D T1374      10.832   0.201  -3.233  1.00 26.24     0.144 N 
HETATM   34  CBI   D T1374      11.012   0.612  -4.636  1.00 27.90     0.286 C 
HETATM   35  CBJ   D T1374      12.059  -0.583  -2.936  1.00 27.31     0.286 C 
ENDBRANCH  32  33
ENDBRANCH  31  32
TORSDOF 2
ENDMDL
MODEL 7
REMARK VINA RESULT:    -6.514      4.955      9.745
REMARK INTER + INTRA:          -7.533
REMARK INTER:                  -7.028
REMARK INTRA:                  -0.505
REMARK UNBOUND:                -0.257
REMARK  2 active torsions:
REMARK  status: ('A' for Active; 'I' for Inactive)
REMARK    1  A    between atoms: CBF_31  and  CBG_32 
REMARK    2  A    between atoms: CBG_32  and  NBH_33 
ROOT
HETATM    1  CBD   D T1374      13.135   8.215  -0.869  1.00 18.24     0.056 C 
HETATM    2  CBB   D T1374      13.246   6.913  -0.114  1.00 13.77     0.109 C 
HETATM    3  NAW   D T1374      12.150   6.545   0.798  1.00 11.00    -0.326 N 
HETATM    4  CAV   D T1374      11.604   7.392   1.743  1.00  9.70     0.076 A 
HETATM    5  CAX   D T1374      11.690   5.337   1.050  1.00 10.89     0.060 A 
HETATM    6  CAY   D T1374      11.982   4.098   0.445  1.00 13.31     0.017 A 
HETATM    7  CAZ   D T1374      11.312   2.939   0.901  1.00 12.88     0.002 A 
HETATM    8  CAP   D T1374      10.353   2.977   1.916  1.00 12.85     0.000 A 
HETATM    9  CAO   D T1374      10.071   4.220   2.537  1.00 12.21     0.002 A 
HETATM   10  CAN   D T1374      10.759   5.402   2.098  1.00 11.16     0.017 A 
HETATM   11  CAM   D T1374      10.675   6.736   2.492  1.00 10.47     0.023 A 
HETATM   12  CAH   D T1374      10.019   7.376   3.608  1.00 11.61     0.064 A 
HETATM   13  CAE   D T1374       9.941   6.805   4.923  1.00 11.67     0.282 A 
HETATM   14  OAF   D T1374      10.315   5.670   5.282  1.00 12.38    -0.265 OA
HETATM   15  NAD   D T1374       9.372   7.680   5.800  1.00 11.58    -0.169 NA
HETATM   16  CAC   D T1374       9.113   8.786   5.131  1.00 11.36     0.282 A 
HETATM   17  OAB   D T1374       8.647   9.798   5.676  1.00 13.28    -0.265 OA
HETATM   18  CAG   D T1374       9.455   8.686   3.752  1.00 10.54     0.064 A 
HETATM   19  CAL   D T1374       9.378   9.680   2.722  1.00 12.92     0.023 A 
HETATM   20  CAU   D T1374       9.246   9.359   1.406  1.00 12.44     0.076 A 
HETATM   21  CAK   D T1374       9.498  11.092   2.760  1.00 12.61     0.017 A 
HETATM   22  CAJ   D T1374       9.665  12.043   3.815  1.00 13.95     0.002 A 
HETATM   23  CAI   D T1374       9.769  13.397   3.472  1.00 15.63     0.000 A 
HETATM   24  CAQ   D T1374       9.718  13.835   2.138  1.00 14.37     0.002 A 
HETATM   25  CAR   D T1374       9.566  12.903   1.109  1.00 13.26     0.017 A 
HETATM   26  CAS   D T1374       9.461  11.535   1.435  1.00 11.92     0.060 A 
HETATM   27  NAT   D T1374       9.300  10.472   0.645  1.00 12.89    -0.324 N 
HETATM   28  CBA   D T1374       9.244  10.406  -0.842  1.00 13.69     0.138 C 
HETATM   29  CBC   D T1374      10.688  10.170  -1.309  1.00 16.12     0.167 C 
HETATM   30  OBE   D T1374      10.820   8.728  -1.273  1.00 16.41    -0.352 OA
HETATM   31  CBF   D T1374      11.998   8.191  -1.893  1.00 19.48     0.151 C 
ENDROOT
BRANCH  31  32
HETATM   32  CBG   D T1374      11.527   6.767  -2.274  1.00 23.41     0.280 C 
BRANCH  32  33
HETATM   33  NBH   D T1374      10.073   6.695  -2.639  1.00 26.24     0.144 N 
HETATM   34  CBI   D T1374       9.941   6.358  -4.067  1.00 27.90     0.286 C 
HETATM   35  CBJ   D T1374       9.393   5.568  -1.947  1.00 27.31     0.286 C 
ENDBRANCH  32  33
ENDBRANCH  31  32
TORSDOF 2
ENDMDL
MODEL 8
REMARK VINA RESULT:    -6.470      5.219      7.737
REMARK INTER + INTRA:          -7.484
REMARK INTER:                  -7.221
REMARK INTRA:                  -0.263
REMARK UNBOUND:                -0.257
REMARK  2 active torsions:
REMARK  status: ('A' for Active; 'I' for Inactive)
REMARK    1  A    between atoms: CBF_31  and  CBG_32 
REMARK    2  A    between atoms: CBG_32  and  NBH_33 
ROOT
HETATM    1  CBD   D T1374       8.505   8.976   1.526  1.00 18.24     0.056 C 
HETATM    2  CBB   D T1374       9.561   9.927   2.034  1.00 13.77     0.109 C 
HETATM    3  NAW   D T1374      10.936   9.767   1.530  1.00 11.00    -0.326 N 
HETATM    4  CAV   D T1374      11.615   8.565   1.483  1.00  9.70     0.076 A 
HETATM    5  CAX   D T1374      11.816  10.717   1.291  1.00 10.89     0.060 A 
HETATM    6  CAY   D T1374      11.677  12.120   1.294  1.00 13.31     0.017 A 
HETATM    7  CAZ   D T1374      12.797  12.919   0.969  1.00 12.88     0.002 A 
HETATM    8  CAP   D T1374      14.035  12.371   0.622  1.00 12.85     0.000 A 
HETATM    9  CAO   D T1374      14.180  10.961   0.635  1.00 12.21     0.002 A 
HETATM   10  CAN   D T1374      13.056  10.137   0.983  1.00 11.16     0.017 A 
HETATM   11  CAM   D T1374      12.894   8.756   1.058  1.00 10.47     0.023 A 
HETATM   12  CAH   D T1374      13.840   7.666   1.004  1.00 11.61     0.064 A 
HETATM   13  CAE   D T1374      15.148   7.714   1.593  1.00 11.67     0.282 A 
HETATM   14  OAF   D T1374      15.702   8.694   2.131  1.00 12.38    -0.265 OA
HETATM   15  NAD   D T1374      15.772   6.507   1.492  1.00 11.58    -0.169 NA
HETATM   16  CAC   D T1374      14.929   5.682   0.904  1.00 11.36     0.282 A 
HETATM   17  OAB   D T1374      15.187   4.482   0.728  1.00 13.28    -0.265 OA
HETATM   18  CAG   D T1374      13.707   6.317   0.537  1.00 10.54     0.064 A 
HETATM   19  CAL   D T1374      12.534   5.752  -0.063  1.00 12.92     0.023 A 
HETATM   20  CAU   D T1374      11.666   6.491  -0.806  1.00 12.44     0.076 A 
HETATM   21  CAK   D T1374      11.963   4.457   0.014  1.00 12.61     0.017 A 
HETATM   22  CAJ   D T1374      12.362   3.234   0.640  1.00 13.95     0.002 A 
HETATM   23  CAI   D T1374      11.517   2.125   0.518  1.00 15.63     0.000 A 
HETATM   24  CAQ   D T1374      10.304   2.184  -0.188  1.00 14.37     0.002 A 
HETATM   25  CAR   D T1374       9.911   3.382  -0.788  1.00 13.26     0.017 A 
HETATM   26  CAS   D T1374      10.749   4.511  -0.677  1.00 11.92     0.060 A 
HETATM   27  NAT   D T1374      10.602   5.744  -1.164  1.00 12.89    -0.324 N 
HETATM   28  CBA   D T1374       9.463   6.320  -1.933  1.00 13.69     0.138 C 
HETATM   29  CBC   D T1374       8.518   6.935  -0.890  1.00 16.12     0.167 C 
HETATM   30  OBE   D T1374       9.045   8.273  -0.710  1.00 16.41    -0.352 OA
HETATM   31  CBF   D T1374       8.216   9.176   0.037  1.00 19.48     0.151 C 
ENDROOT
BRANCH  31  32
HETATM   32  CBG   D T1374       8.678  10.548  -0.512  1.00 23.41     0.280 C 
BRANCH  32  33
HETATM   33  NBH   D T1374       7.651  11.226  -1.372  1.00 26.24     0.144 N 
HETATM   34  CBI   D T1374       7.665  12.674  -1.103  1.00 27.90     0.286 C 
HETATM   35  CBJ   D T1374       8.000  11.131  -2.813  1.00 27.31     0.286 C 
ENDBRANCH  32  33
ENDBRANCH  31  32
TORSDOF 2
ENDMDL
MODEL 9
REMARK VINA RESULT:    -6.427      6.305     10.949
REMARK INTER + INTRA:          -7.436
REMARK INTER:                  -7.204
REMARK INTRA:                  -0.232
REMARK UNBOUND:                -0.257
REMARK  2 active torsions:
REMARK  status: ('A' for Active; 'I' for Inactive)
REMARK    1  A    between atoms: CBF_31  and  CBG_32 
REMARK    2  A    between atoms: CBG_32  and  NBH_33 
ROOT
HETATM    1  CBD   D T1374       9.745   7.608  -1.891  1.00 18.24     0.056 C 
HETATM    2  CBB   D T1374      11.104   6.962  -2.000  1.00 13.77     0.109 C 
HETATM    3  NAW   D T1374      12.144   7.370  -1.041  1.00 11.00    -0.326 N 
HETATM    4  CAV   D T1374      12.461   8.682  -0.745  1.00  9.70     0.076 A 
HETATM    5  CAX   D T1374      13.087   6.617  -0.515  1.00 10.89     0.060 A 
HETATM    6  CAY   D T1374      13.295   5.225  -0.581  1.00 13.31     0.017 A 
HETATM    7  CAZ   D T1374      14.392   4.662   0.112  1.00 12.88     0.002 A 
HETATM    8  CAP   D T1374      15.269   5.433   0.880  1.00 12.85     0.000 A 
HETATM    9  CAO   D T1374      15.071   6.835   0.933  1.00 12.21     0.002 A 
HETATM   10  CAN   D T1374      13.973   7.423   0.217  1.00 11.16     0.017 A 
HETATM   11  CAM   D T1374      13.523   8.736   0.104  1.00 10.47     0.023 A 
HETATM   12  CAH   D T1374      14.107   9.996   0.501  1.00 11.61     0.064 A 
HETATM   13  CAE   D T1374      15.510  10.290   0.412  1.00 11.67     0.282 A 
HETATM   14  OAF   D T1374      16.430   9.509   0.096  1.00 12.38    -0.265 OA
HETATM   15  NAD   D T1374      15.756  11.590   0.740  1.00 11.58    -0.169 NA
HETATM   16  CAC   D T1374      14.593  12.152   0.999  1.00 11.36     0.282 A 
HETATM   17  OAB   D T1374      14.483  13.358   1.267  1.00 13.28    -0.265 OA
HETATM   18  CAG   D T1374      13.507  11.234   0.903  1.00 10.54     0.064 A 
HETATM   19  CAL   D T1374      12.101  11.472   1.055  1.00 12.92     0.023 A 
HETATM   20  CAU   D T1374      11.233  10.495   1.434  1.00 12.44     0.076 A 
HETATM   21  CAK   D T1374      11.301  12.612   0.794  1.00 12.61     0.017 A 
HETATM   22  CAJ   D T1374      11.589  13.945   0.362  1.00 13.95     0.002 A 
HETATM   23  CAI   D T1374      10.515  14.827   0.187  1.00 15.63     0.000 A 
HETATM   24  CAQ   D T1374       9.185  14.439   0.417  1.00 14.37     0.002 A 
HETATM   25  CAR   D T1374       8.906  13.134   0.827  1.00 13.26     0.017 A 
HETATM   26  CAS   D T1374       9.974  12.231   1.009  1.00 11.92     0.060 A 
HETATM   27  NAT   D T1374       9.966  10.956   1.400  1.00 12.89    -0.324 N 
HETATM   28  CBA   D T1374       8.804  10.076   1.710  1.00 13.69     0.138 C 
HETATM   29  CBC   D T1374       8.447   9.369   0.394  1.00 16.12     0.167 C 
HETATM   30  OBE   D T1374       9.305   8.201   0.398  1.00 16.41    -0.352 OA
HETATM   31  CBF   D T1374       9.020   7.212  -0.602  1.00 19.48     0.151 C 
ENDROOT
BRANCH  31  32
HETATM   32  CBG   D T1374       9.578   5.930   0.061  1.00 23.41     0.280 C 
BRANCH  32  33
HETATM   33  NBH   D T1374       8.787   4.695  -0.264  1.00 26.24     0.144 N 
HETATM   34  CBI   D T1374       9.466   3.944  -1.333  1.00 27.90     0.286 C 
HETATM   35  CBJ   D T1374       8.770   3.745   0.878  1.00 27.31     0.286 C 
ENDBRANCH  32  33
ENDBRANCH  31  32
TORSDOF 2
ENDMDL
