MODEL 1
REMARK VINA RESULT:   -10.427      0.000      0.000
REMARK INTER + INTRA:         -11.942
REMARK INTER:                 -11.647
REMARK INTRA:                  -0.296
REMARK UNBOUND:                -0.296
REMARK  2 active torsions:
REMARK  status: ('A' for Active; 'I' for Inactive)
REMARK    1  A    between atoms: CBF_31  and  CBG_32 
REMARK    2  A    between atoms: CBG_32  and  NBH_33 
ROOT
HETATM    1  CBD   D T1374     -16.183   4.399   0.085  1.00 18.24     0.056 C 
HETATM    2  CBB   D T1374     -15.131   5.364   0.573  1.00 13.77     0.109 C 
HETATM    3  NAW   D T1374     -14.247   5.989  -0.426  1.00 11.00    -0.326 N 
HETATM    4  CAV   D T1374     -13.580   5.297  -1.418  1.00  9.70     0.076 A 
HETATM    5  CAX   D T1374     -13.751   7.208  -0.404  1.00 10.89     0.060 A 
HETATM    6  CAY   D T1374     -14.016   8.293   0.456  1.00 13.31     0.017 A 
HETATM    7  CAZ   D T1374     -13.351   9.520   0.237  1.00 12.88     0.002 A 
HETATM    8  CAP   D T1374     -12.454   9.707  -0.818  1.00 12.85     0.000 A 
HETATM    9  CAO   D T1374     -12.174   8.615  -1.674  1.00 12.21     0.002 A 
HETATM   10  CAN   D T1374     -12.827   7.355  -1.449  1.00 11.16     0.017 A 
HETATM   11  CAM   D T1374     -12.771   6.137  -2.123  1.00 10.47     0.023 A 
HETATM   12  CAH   D T1374     -11.898   5.645  -3.163  1.00 11.61     0.064 A 
HETATM   13  CAE   D T1374     -10.495   5.940  -3.233  1.00 11.67     0.282 A 
HETATM   14  OAF   D T1374      -9.847   6.720  -2.506  1.00 12.38    -0.265 OA
HETATM   15  NAD   D T1374      -9.902   5.245  -4.244  1.00 11.58    -0.169 NA
HETATM   16  CAC   D T1374     -10.835   4.502  -4.803  1.00 11.36     0.282 A 
HETATM   17  OAB   D T1374     -10.588   3.703  -5.720  1.00 13.28    -0.265 OA
HETATM   18  CAG   D T1374     -12.119   4.698  -4.215  1.00 10.54     0.064 A 
HETATM   19  CAL   D T1374     -13.359   4.041  -4.504  1.00 12.92     0.023 A 
HETATM   20  CAU   D T1374     -14.566   4.624  -4.267  1.00 12.44     0.076 A 
HETATM   21  CAK   D T1374     -13.652   2.732  -4.963  1.00 12.61     0.017 A 
HETATM   22  CAJ   D T1374     -12.845   1.623  -5.375  1.00 13.95     0.002 A 
HETATM   23  CAI   D T1374     -13.494   0.445  -5.760  1.00 15.63     0.000 A 
HETATM   24  CAQ   D T1374     -14.893   0.324  -5.750  1.00 14.37     0.002 A 
HETATM   25  CAR   D T1374     -15.678   1.403  -5.338  1.00 13.26     0.017 A 
HETATM   26  CAS   D T1374     -15.042   2.600  -4.945  1.00 11.92     0.060 A 
HETATM   27  NAT   D T1374     -15.565   3.755  -4.529  1.00 12.89    -0.324 N 
HETATM   28  CBA   D T1374     -16.993   4.112  -4.297  1.00 13.69     0.138 C 
HETATM   29  CBC   D T1374     -17.273   3.791  -2.822  1.00 16.12     0.167 C 
HETATM   30  OBE   D T1374     -16.882   5.006  -2.135  1.00 16.41    -0.352 OA
HETATM   31  CBF   D T1374     -17.259   5.092  -0.752  1.00 19.48     0.151 C 
ENDROOT
BRANCH  31  32
HETATM   32  CBG   D T1374     -17.323   6.624  -0.545  1.00 23.41     0.280 C 
BRANCH  32  33
HETATM   33  NBH   D T1374     -18.520   7.074   0.242  1.00 26.24     0.144 N 
HETATM   34  CBI   D T1374     -18.126   7.319   1.640  1.00 27.90     0.286 C 
HETATM   35  CBJ   D T1374     -19.012   8.396  -0.223  1.00 27.31     0.286 C 
ENDBRANCH  32  33
ENDBRANCH  31  32
TORSDOF 2
ENDMDL
MODEL 2
REMARK VINA RESULT:   -10.096      1.548      2.161
REMARK INTER + INTRA:         -11.572
REMARK INTER:                 -11.205
REMARK INTRA:                  -0.367
REMARK UNBOUND:                -0.296
REMARK  2 active torsions:
REMARK  status: ('A' for Active; 'I' for Inactive)
REMARK    1  A    between atoms: CBF_31  and  CBG_32 
REMARK    2  A    between atoms: CBG_32  and  NBH_33 
ROOT
HETATM    1  CBD   D T1374     -15.635   3.341  -0.829  1.00 18.24     0.056 C 
HETATM    2  CBB   D T1374     -14.421   4.204  -0.590  1.00 13.77     0.109 C 
HETATM    3  NAW   D T1374     -13.665   4.676  -1.763  1.00 11.00    -0.326 N 
HETATM    4  CAV   D T1374     -13.255   3.865  -2.804  1.00  9.70     0.076 A 
HETATM    5  CAX   D T1374     -13.049   5.830  -1.907  1.00 10.89     0.060 A 
HETATM    6  CAY   D T1374     -13.048   6.979  -1.091  1.00 13.31     0.017 A 
HETATM    7  CAZ   D T1374     -12.308   8.111  -1.501  1.00 12.88     0.002 A 
HETATM    8  CAP   D T1374     -11.594   8.143  -2.702  1.00 12.85     0.000 A 
HETATM    9  CAO   D T1374     -11.581   6.985  -3.516  1.00 12.21     0.002 A 
HETATM   10  CAN   D T1374     -12.311   5.819  -3.101  1.00 11.16     0.017 A 
HETATM   11  CAM   D T1374     -12.499   4.571  -3.690  1.00 10.47     0.023 A 
HETATM   12  CAH   D T1374     -11.875   3.933  -4.825  1.00 11.61     0.064 A 
HETATM   13  CAE   D T1374     -10.483   4.064  -5.149  1.00 11.67     0.282 A 
HETATM   14  OAF   D T1374      -9.641   4.801  -4.595  1.00 12.38    -0.265 OA
HETATM   15  NAD   D T1374     -10.149   3.258  -6.196  1.00 11.58    -0.169 NA
HETATM   16  CAC   D T1374     -11.236   2.598  -6.539  1.00 11.36     0.282 A 
HETATM   17  OAB   D T1374     -11.236   1.733  -7.428  1.00 13.28    -0.265 OA
HETATM   18  CAG   D T1374     -12.371   2.967  -5.759  1.00 10.54     0.064 A 
HETATM   19  CAL   D T1374     -13.704   2.441  -5.791  1.00 12.92     0.023 A 
HETATM   20  CAU   D T1374     -14.785   3.168  -5.395  1.00 12.44     0.076 A 
HETATM   21  CAK   D T1374     -14.206   1.152  -6.105  1.00 12.61     0.017 A 
HETATM   22  CAJ   D T1374     -13.601  -0.060  -6.570  1.00 13.95     0.002 A 
HETATM   23  CAI   D T1374     -14.425  -1.174  -6.760  1.00 15.63     0.000 A 
HETATM   24  CAQ   D T1374     -15.805  -1.135  -6.507  1.00 14.37     0.002 A 
HETATM   25  CAR   D T1374     -16.391   0.045  -6.044  1.00 13.26     0.017 A 
HETATM   26  CAS   D T1374     -15.578   1.180  -5.845  1.00 11.92     0.060 A 
HETATM   27  NAT   D T1374     -15.898   2.406  -5.427  1.00 12.89    -0.324 N 
HETATM   28  CBA   D T1374     -17.220   2.932  -4.984  1.00 13.69     0.138 C 
HETATM   29  CBC   D T1374     -17.271   2.718  -3.464  1.00 16.12     0.167 C 
HETATM   30  OBE   D T1374     -16.643   3.913  -2.937  1.00 16.41    -0.352 OA
HETATM   31  CBF   D T1374     -16.764   4.110  -1.519  1.00 19.48     0.151 C 
ENDROOT
BRANCH  31  32
HETATM   32  CBG   D T1374     -16.632   5.647  -1.409  1.00 23.41     0.280 C 
BRANCH  32  33
HETATM   33  NBH   D T1374     -17.687   6.279  -0.546  1.00 26.24     0.144 N 
HETATM   34  CBI   D T1374     -18.916   5.470  -0.600  1.00 27.90     0.286 C 
HETATM   35  CBJ   D T1374     -17.306   6.248   0.890  1.00 27.31     0.286 C 
ENDBRANCH  32  33
ENDBRANCH  31  32
TORSDOF 2
ENDMDL
MODEL 3
REMARK VINA RESULT:    -9.318      4.062      8.736
REMARK INTER + INTRA:         -10.703
REMARK INTER:                 -10.171
REMARK INTRA:                  -0.532
REMARK UNBOUND:                -0.296
REMARK  2 active torsions:
REMARK  status: ('A' for Active; 'I' for Inactive)
REMARK    1  A    between atoms: CBF_31  and  CBG_32 
REMARK    2  A    between atoms: CBG_32  and  NBH_33 
ROOT
HETATM    1  CBD   D T1374     -13.721  -2.390  -6.250  1.00 18.24     0.056 C 
HETATM    2  CBB   D T1374     -15.122  -2.170  -5.735  1.00 13.77     0.109 C 
HETATM    3  NAW   D T1374     -15.708  -0.826  -5.872  1.00 11.00    -0.326 N 
HETATM    4  CAV   D T1374     -15.069   0.344  -5.508  1.00  9.70     0.076 A 
HETATM    5  CAX   D T1374     -16.967  -0.522  -6.106  1.00 10.89     0.060 A 
HETATM    6  CAY   D T1374     -18.065  -1.343  -6.434  1.00 13.31     0.017 A 
HETATM    7  CAZ   D T1374     -19.324  -0.745  -6.664  1.00 12.88     0.002 A 
HETATM    8  CAP   D T1374     -19.518   0.638  -6.599  1.00 12.85     0.000 A 
HETATM    9  CAO   D T1374     -18.421   1.463  -6.255  1.00 12.21     0.002 A 
HETATM   10  CAN   D T1374     -17.140   0.866  -5.997  1.00 11.16     0.017 A 
HETATM   11  CAM   D T1374     -15.901   1.410  -5.668  1.00 10.47     0.023 A 
HETATM   12  CAH   D T1374     -15.502   2.742  -5.276  1.00 11.61     0.064 A 
HETATM   13  CAE   D T1374     -16.291   3.596  -4.434  1.00 11.67     0.282 A 
HETATM   14  OAF   D T1374     -17.444   3.385  -4.007  1.00 12.38    -0.265 OA
HETATM   15  NAD   D T1374     -15.615   4.740  -4.131  1.00 11.58    -0.169 NA
HETATM   16  CAC   D T1374     -14.431   4.654  -4.704  1.00 11.36     0.282 A 
HETATM   17  OAB   D T1374     -13.558   5.522  -4.559  1.00 13.28    -0.265 OA
HETATM   18  CAG   D T1374     -14.274   3.456  -5.461  1.00 10.54     0.064 A 
HETATM   19  CAL   D T1374     -13.126   2.977  -6.174  1.00 12.92     0.023 A 
HETATM   20  CAU   D T1374     -13.227   2.127  -7.232  1.00 12.44     0.076 A 
HETATM   21  CAK   D T1374     -11.736   3.146  -5.952  1.00 12.61     0.017 A 
HETATM   22  CAJ   D T1374     -10.968   3.898  -5.006  1.00 13.95     0.002 A 
HETATM   23  CAI   D T1374      -9.573   3.811  -5.074  1.00 15.63     0.000 A 
HETATM   24  CAQ   D T1374      -8.920   3.015  -6.028  1.00 14.37     0.002 A 
HETATM   25  CAR   D T1374      -9.671   2.274  -6.943  1.00 13.26     0.017 A 
HETATM   26  CAS   D T1374     -11.078   2.348  -6.891  1.00 11.92     0.060 A 
HETATM   27  NAT   D T1374     -12.000   1.753  -7.651  1.00 12.89    -0.324 N 
HETATM   28  CBA   D T1374     -11.816   0.775  -8.759  1.00 13.69     0.138 C 
HETATM   29  CBC   D T1374     -11.877  -0.615  -8.110  1.00 16.12     0.167 C 
HETATM   30  OBE   D T1374     -13.293  -0.921  -8.106  1.00 16.41    -0.352 OA
HETATM   31  CBF   D T1374     -13.641  -2.274  -7.773  1.00 19.48     0.151 C 
ENDROOT
BRANCH  31  32
HETATM   32  CBG   D T1374     -15.007  -2.425  -8.485  1.00 23.41     0.280 C 
BRANCH  32  33
HETATM   33  NBH   D T1374     -15.177  -1.505  -9.658  1.00 26.24     0.144 N 
HETATM   34  CBI   D T1374     -14.875  -2.232 -10.902  1.00 27.90     0.286 C 
HETATM   35  CBJ   D T1374     -16.596  -1.093  -9.825  1.00 27.31     0.286 C 
ENDBRANCH  32  33
ENDBRANCH  31  32
TORSDOF 2
ENDMDL
MODEL 4
REMARK VINA RESULT:    -8.664      2.301      6.320
REMARK INTER + INTRA:          -9.973
REMARK INTER:                  -9.643
REMARK INTRA:                  -0.330
REMARK UNBOUND:                -0.296
REMARK  2 active torsions:
REMARK  status: ('A' for Active; 'I' for Inactive)
REMARK    1  A    between atoms: CBF_31  and  CBG_32 
REMARK    2  A    between atoms: CBG_32  and  NBH_33 
ROOT
HETATM    1  CBD   D T1374     -18.112   4.620  -3.578  1.00 18.24     0.056 C 
HETATM    2  CBB   D T1374     -18.235   3.635  -4.714  1.00 13.77     0.109 C 
HETATM    3  NAW   D T1374     -17.099   2.735  -4.978  1.00 11.00    -0.326 N 
HETATM    4  CAV   D T1374     -15.785   3.149  -5.082  1.00  9.70     0.076 A 
HETATM    5  CAX   D T1374     -17.146   1.488  -5.397  1.00 10.89     0.060 A 
HETATM    6  CAY   D T1374     -18.241   0.617  -5.568  1.00 13.31     0.017 A 
HETATM    7  CAZ   D T1374     -18.004  -0.703  -6.014  1.00 12.88     0.002 A 
HETATM    8  CAP   D T1374     -16.718  -1.186  -6.270  1.00 12.85     0.000 A 
HETATM    9  CAO   D T1374     -15.618  -0.309  -6.113  1.00 12.21     0.002 A 
HETATM   10  CAN   D T1374     -15.847   1.042  -5.681  1.00 11.16     0.017 A 
HETATM   11  CAM   D T1374     -14.982   2.103  -5.422  1.00 10.47     0.023 A 
HETATM   12  CAH   D T1374     -13.572   2.287  -5.678  1.00 11.61     0.064 A 
HETATM   13  CAE   D T1374     -12.907   1.812  -6.858  1.00 11.67     0.282 A 
HETATM   14  OAF   D T1374     -13.386   1.101  -7.764  1.00 12.38    -0.265 OA
HETATM   15  NAD   D T1374     -11.612   2.234  -6.889  1.00 11.58    -0.169 NA
HETATM   16  CAC   D T1374     -11.419   2.975  -5.816  1.00 11.36     0.282 A 
HETATM   17  OAB   D T1374     -10.347   3.558  -5.595  1.00 13.28    -0.265 OA
HETATM   18  CAG   D T1374     -12.576   3.048  -4.986  1.00 10.54     0.064 A 
HETATM   19  CAL   D T1374     -12.779   3.792  -3.778  1.00 12.92     0.023 A 
HETATM   20  CAU   D T1374     -13.685   3.416  -2.833  1.00 12.44     0.076 A 
HETATM   21  CAK   D T1374     -12.243   5.023  -3.322  1.00 12.61     0.017 A 
HETATM   22  CAJ   D T1374     -11.266   5.931  -3.843  1.00 13.95     0.002 A 
HETATM   23  CAI   D T1374     -10.991   7.092  -3.112  1.00 15.63     0.000 A 
HETATM   24  CAQ   D T1374     -11.642   7.385  -1.903  1.00 14.37     0.002 A 
HETATM   25  CAR   D T1374     -12.603   6.504  -1.402  1.00 13.26     0.017 A 
HETATM   26  CAS   D T1374     -12.894   5.328  -2.125  1.00 11.92     0.060 A 
HETATM   27  NAT   D T1374     -13.749   4.340  -1.852  1.00 12.89    -0.324 N 
HETATM   28  CBA   D T1374     -14.707   4.212  -0.718  1.00 13.69     0.138 C 
HETATM   29  CBC   D T1374     -16.026   4.825  -1.208  1.00 16.12     0.167 C 
HETATM   30  OBE   D T1374     -16.688   3.715  -1.863  1.00 16.41    -0.352 OA
HETATM   31  CBF   D T1374     -18.065   3.926  -2.215  1.00 19.48     0.151 C 
ENDROOT
BRANCH  31  32
HETATM   32  CBG   D T1374     -18.605   2.477  -2.232  1.00 23.41     0.280 C 
BRANCH  32  33
HETATM   33  NBH   D T1374     -19.568   2.183  -1.118  1.00 26.24     0.144 N 
HETATM   34  CBI   D T1374     -19.004   1.144  -0.240  1.00 27.90     0.286 C 
HETATM   35  CBJ   D T1374     -19.734   3.354  -0.218  1.00 27.31     0.286 C 
ENDBRANCH  32  33
ENDBRANCH  31  32
TORSDOF 2
ENDMDL
MODEL 5
REMARK VINA RESULT:    -8.411      2.252      4.084
REMARK INTER + INTRA:          -9.691
REMARK INTER:                  -9.156
REMARK INTRA:                  -0.535
REMARK UNBOUND:                -0.296
REMARK  2 active torsions:
REMARK  status: ('A' for Active; 'I' for Inactive)
REMARK    1  A    between atoms: CBF_31  and  CBG_32 
REMARK    2  A    between atoms: CBG_32  and  NBH_33 
ROOT
HETATM    1  CBD   D T1374     -18.626   1.795  -1.425  1.00 18.24     0.056 C 
HETATM    2  CBB   D T1374     -18.618   2.789  -0.290  1.00 13.77     0.109 C 
HETATM    3  NAW   D T1374     -17.967   4.091  -0.513  1.00 11.00    -0.326 N 
HETATM    4  CAV   D T1374     -16.708   4.251  -1.059  1.00  9.70     0.076 A 
HETATM    5  CAX   D T1374     -18.328   5.260  -0.027  1.00 10.89     0.060 A 
HETATM    6  CAY   D T1374     -19.477   5.640   0.696  1.00 13.31     0.017 A 
HETATM    7  CAZ   D T1374     -19.631   6.990   1.081  1.00 12.88     0.002 A 
HETATM    8  CAP   D T1374     -18.694   7.973   0.750  1.00 12.85     0.000 A 
HETATM    9  CAO   D T1374     -17.532   7.592   0.037  1.00 12.21     0.002 A 
HETATM   10  CAN   D T1374     -17.352   6.218  -0.341  1.00 11.16     0.017 A 
HETATM   11  CAM   D T1374     -16.347   5.564  -1.051  1.00 10.47     0.023 A 
HETATM   12  CAH   D T1374     -15.038   5.989  -1.488  1.00 11.61     0.064 A 
HETATM   13  CAE   D T1374     -14.175   6.837  -0.717  1.00 11.67     0.282 A 
HETATM   14  OAF   D T1374     -14.439   7.410   0.359  1.00 12.38    -0.265 OA
HETATM   15  NAD   D T1374     -12.960   6.971  -1.320  1.00 11.58    -0.169 NA
HETATM   16  CAC   D T1374     -12.986   6.235  -2.412  1.00 11.36     0.282 A 
HETATM   17  OAB   D T1374     -11.995   6.102  -3.147  1.00 13.28    -0.265 OA
HETATM   18  CAG   D T1374     -14.246   5.602  -2.618  1.00 10.54     0.064 A 
HETATM   19  CAL   D T1374     -14.646   4.689  -3.648  1.00 12.92     0.023 A 
HETATM   20  CAU   D T1374     -15.943   4.550  -4.036  1.00 12.44     0.076 A 
HETATM   21  CAK   D T1374     -13.920   3.724  -4.391  1.00 12.61     0.017 A 
HETATM   22  CAJ   D T1374     -12.538   3.355  -4.451  1.00 13.95     0.002 A 
HETATM   23  CAI   D T1374     -12.172   2.314  -5.312  1.00 15.63     0.000 A 
HETATM   24  CAQ   D T1374     -13.111   1.632  -6.101  1.00 14.37     0.002 A 
HETATM   25  CAR   D T1374     -14.460   1.987  -6.034  1.00 13.26     0.017 A 
HETATM   26  CAS   D T1374     -14.850   3.034  -5.172  1.00 11.92     0.060 A 
HETATM   27  NAT   D T1374     -16.056   3.557  -4.943  1.00 12.89    -0.324 N 
HETATM   28  CBA   D T1374     -17.378   3.147  -5.494  1.00 13.69     0.138 C 
HETATM   29  CBC   D T1374     -17.953   2.129  -4.498  1.00 16.12     0.167 C 
HETATM   30  OBE   D T1374     -18.640   2.961  -3.530  1.00 16.41    -0.352 OA
HETATM   31  CBF   D T1374     -19.486   2.268  -2.599  1.00 19.48     0.151 C 
ENDROOT
BRANCH  31  32
HETATM   32  CBG   D T1374     -20.503   3.373  -2.225  1.00 23.41     0.280 C 
BRANCH  32  33
HETATM   33  NBH   D T1374     -20.656   4.429  -3.281  1.00 26.24     0.144 N 
HETATM   34  CBI   D T1374     -21.873   4.168  -4.067  1.00 27.90     0.286 C 
HETATM   35  CBJ   D T1374     -20.903   5.767  -2.681  1.00 27.31     0.286 C 
ENDBRANCH  32  33
ENDBRANCH  31  32
TORSDOF 2
ENDMDL
