MODEL 1
REMARK VINA RESULT:    -8.544      0.000      0.000
REMARK INTER + INTRA:          -9.985
REMARK INTER:                  -9.543
REMARK INTRA:                  -0.442
REMARK UNBOUND:                -0.442
REMARK  2 active torsions:
REMARK  status: ('A' for Active; 'I' for Inactive)
REMARK    1  A    between atoms: CBF_31  and  CBG_32 
REMARK    2  A    between atoms: CBG_32  and  NBH_33 
ROOT
HETATM    1  CBD   D T1374      -9.816  -3.520  -4.759  1.00 18.24     0.056 C 
HETATM    2  CBB   D T1374      -8.486  -2.927  -4.363  1.00 13.77     0.109 C 
HETATM    3  NAW   D T1374      -7.288  -3.353  -5.106  1.00 11.00    -0.326 N 
HETATM    4  CAV   D T1374      -6.961  -4.670  -5.370  1.00  9.70     0.076 A 
HETATM    5  CAX   D T1374      -6.236  -2.624  -5.414  1.00 10.89     0.060 A 
HETATM    6  CAY   D T1374      -6.001  -1.242  -5.270  1.00 13.31     0.017 A 
HETATM    7  CAZ   D T1374      -4.772  -0.706  -5.714  1.00 12.88     0.002 A 
HETATM    8  CAP   D T1374      -3.784  -1.491  -6.313  1.00 12.85     0.000 A 
HETATM    9  CAO   D T1374      -4.011  -2.884  -6.444  1.00 12.21     0.002 A 
HETATM   10  CAN   D T1374      -5.248  -3.446  -5.978  1.00 11.16     0.017 A 
HETATM   11  CAM   D T1374      -5.753  -4.745  -5.993  1.00 10.47     0.023 A 
HETATM   12  CAH   D T1374      -5.141  -6.017  -6.301  1.00 11.61     0.064 A 
HETATM   13  CAE   D T1374      -3.795  -6.363  -5.944  1.00 11.67     0.282 A 
HETATM   14  OAF   D T1374      -2.932  -5.622  -5.428  1.00 12.38    -0.265 OA
HETATM   15  NAD   D T1374      -3.529  -7.664  -6.251  1.00 11.58    -0.169 NA
HETATM   16  CAC   D T1374      -4.633  -8.177  -6.753  1.00 11.36     0.282 A 
HETATM   17  OAB   D T1374      -4.727  -9.372  -7.070  1.00 13.28    -0.265 OA
HETATM   18  CAG   D T1374      -5.688  -7.223  -6.848  1.00 10.54     0.064 A 
HETATM   19  CAL   D T1374      -7.042  -7.405  -7.284  1.00 12.92     0.023 A 
HETATM   20  CAU   D T1374      -7.785  -6.390  -7.800  1.00 12.44     0.076 A 
HETATM   21  CAK   D T1374      -7.913  -8.521  -7.218  1.00 12.61     0.017 A 
HETATM   22  CAJ   D T1374      -7.760  -9.873  -6.775  1.00 13.95     0.002 A 
HETATM   23  CAI   D T1374      -8.874 -10.719  -6.843  1.00 15.63     0.000 A 
HETATM   24  CAQ   D T1374     -10.118 -10.277  -7.321  1.00 14.37     0.002 A 
HETATM   25  CAR   D T1374     -10.268  -8.954  -7.742  1.00 13.26     0.017 A 
HETATM   26  CAS   D T1374      -9.158  -8.087  -7.683  1.00 11.92     0.060 A 
HETATM   27  NAT   D T1374      -9.048  -6.805  -8.032  1.00 12.89    -0.324 N 
HETATM   28  CBA   D T1374     -10.096  -5.876  -8.542  1.00 13.69     0.138 C 
HETATM   29  CBC   D T1374     -10.686  -5.185  -7.304  1.00 16.12     0.167 C 
HETATM   30  OBE   D T1374      -9.809  -4.049  -7.106  1.00 16.41    -0.352 OA
HETATM   31  CBF   D T1374     -10.256  -3.071  -6.153  1.00 19.48     0.151 C 
ENDROOT
BRANCH  31  32
HETATM   32  CBG   D T1374      -9.536  -1.798  -6.657  1.00 23.41     0.280 C 
BRANCH  32  33
HETATM   33  NBH   D T1374      -9.042  -1.908  -8.069  1.00 26.24     0.144 N 
HETATM   34  CBI   D T1374     -10.090  -1.447  -8.996  1.00 27.90     0.286 C 
HETATM   35  CBJ   D T1374      -7.911  -0.977  -8.325  1.00 27.31     0.286 C 
ENDBRANCH  32  33
ENDBRANCH  31  32
TORSDOF 2
ENDMDL
MODEL 2
REMARK VINA RESULT:    -8.465      1.805      2.776
REMARK INTER + INTRA:          -9.897
REMARK INTER:                  -9.362
REMARK INTRA:                  -0.534
REMARK UNBOUND:                -0.442
REMARK  2 active torsions:
REMARK  status: ('A' for Active; 'I' for Inactive)
REMARK    1  A    between atoms: CBF_31  and  CBG_32 
REMARK    2  A    between atoms: CBG_32  and  NBH_33 
ROOT
HETATM    1  CBD   D T1374      -9.608  -1.952  -4.483  1.00 18.24     0.056 C 
HETATM    2  CBB   D T1374      -8.196  -2.300  -4.079  1.00 13.77     0.109 C 
HETATM    3  NAW   D T1374      -7.405  -3.150  -4.984  1.00 11.00    -0.326 N 
HETATM    4  CAV   D T1374      -7.858  -4.334  -5.538  1.00  9.70     0.076 A 
HETATM    5  CAX   D T1374      -6.111  -3.086  -5.217  1.00 10.89     0.060 A 
HETATM    6  CAY   D T1374      -5.151  -2.137  -4.810  1.00 13.31     0.017 A 
HETATM    7  CAZ   D T1374      -3.811  -2.296  -5.230  1.00 12.88     0.002 A 
HETATM    8  CAP   D T1374      -3.403  -3.349  -6.052  1.00 12.85     0.000 A 
HETATM    9  CAO   D T1374      -4.363  -4.312  -6.448  1.00 12.21     0.002 A 
HETATM   10  CAN   D T1374      -5.725  -4.175  -6.013  1.00 11.16     0.017 A 
HETATM   11  CAM   D T1374      -6.868  -4.934  -6.255  1.00 10.47     0.023 A 
HETATM   12  CAH   D T1374      -7.058  -6.230  -6.863  1.00 11.61     0.064 A 
HETATM   13  CAE   D T1374      -6.157  -7.333  -6.691  1.00 11.67     0.282 A 
HETATM   14  OAF   D T1374      -5.056  -7.329  -6.102  1.00 12.38    -0.265 OA
HETATM   15  NAD   D T1374      -6.649  -8.461  -7.278  1.00 11.58    -0.169 NA
HETATM   16  CAC   D T1374      -7.824  -8.151  -7.787  1.00 11.36     0.282 A 
HETATM   17  OAB   D T1374      -8.553  -8.991  -8.335  1.00 13.28    -0.265 OA
HETATM   18  CAG   D T1374      -8.157  -6.777  -7.603  1.00 10.54     0.064 A 
HETATM   19  CAL   D T1374      -9.356  -6.077  -7.959  1.00 12.92     0.023 A 
HETATM   20  CAU   D T1374      -9.376  -4.738  -8.197  1.00 12.44     0.076 A 
HETATM   21  CAK   D T1374     -10.705  -6.502  -8.057  1.00 12.61     0.017 A 
HETATM   22  CAJ   D T1374     -11.358  -7.768  -7.914  1.00 13.95     0.002 A 
HETATM   23  CAI   D T1374     -12.749  -7.812  -8.067  1.00 15.63     0.000 A 
HETATM   24  CAQ   D T1374     -13.506  -6.663  -8.346  1.00 14.37     0.002 A 
HETATM   25  CAR   D T1374     -12.868  -5.428  -8.474  1.00 13.26     0.017 A 
HETATM   26  CAS   D T1374     -11.468  -5.362  -8.324  1.00 11.92     0.060 A 
HETATM   27  NAT   D T1374     -10.641  -4.319  -8.411  1.00 12.89    -0.324 N 
HETATM   28  CBA   D T1374     -10.961  -2.881  -8.636  1.00 13.69     0.138 C 
HETATM   29  CBC   D T1374     -11.127  -2.262  -7.240  1.00 16.12     0.167 C 
HETATM   30  OBE   D T1374      -9.776  -1.880  -6.882  1.00 16.41    -0.352 OA
HETATM   31  CBF   D T1374      -9.648  -1.050  -5.717  1.00 19.48     0.151 C 
ENDROOT
BRANCH  31  32
HETATM   32  CBG   D T1374      -8.314  -0.320  -6.003  1.00 23.41     0.280 C 
BRANCH  32  33
HETATM   33  NBH   D T1374      -8.010  -0.179  -7.466  1.00 26.24     0.144 N 
HETATM   34  CBI   D T1374      -8.287   1.203  -7.895  1.00 27.90     0.286 C 
HETATM   35  CBJ   D T1374      -6.559  -0.349  -7.740  1.00 27.31     0.286 C 
ENDBRANCH  32  33
ENDBRANCH  31  32
TORSDOF 2
ENDMDL
MODEL 3
REMARK VINA RESULT:    -8.357      2.158      5.829
REMARK INTER + INTRA:          -9.776
REMARK INTER:                  -9.478
REMARK INTRA:                  -0.298
REMARK UNBOUND:                -0.442
REMARK  2 active torsions:
REMARK  status: ('A' for Active; 'I' for Inactive)
REMARK    1  A    between atoms: CBF_31  and  CBG_32 
REMARK    2  A    between atoms: CBG_32  and  NBH_33 
ROOT
HETATM    1  CBD   D T1374      -7.079  -0.290  -8.719  1.00 18.24     0.056 C 
HETATM    2  CBB   D T1374      -8.281  -0.948  -9.351  1.00 13.77     0.109 C 
HETATM    3  NAW   D T1374      -8.840  -2.144  -8.699  1.00 11.00    -0.326 N 
HETATM    4  CAV   D T1374      -8.090  -3.229  -8.283  1.00  9.70     0.076 A 
HETATM    5  CAX   D T1374     -10.105  -2.500  -8.628  1.00 10.89     0.060 A 
HETATM    6  CAY   D T1374     -11.276  -1.809  -9.003  1.00 13.31     0.017 A 
HETATM    7  CAZ   D T1374     -12.530  -2.424  -8.790  1.00 12.88     0.002 A 
HETATM    8  CAP   D T1374     -12.658  -3.685  -8.201  1.00 12.85     0.000 A 
HETATM    9  CAO   D T1374     -11.482  -4.386  -7.839  1.00 12.21     0.002 A 
HETATM   10  CAN   D T1374     -10.199  -3.783  -8.069  1.00 11.16     0.017 A 
HETATM   11  CAM   D T1374      -8.899  -4.212  -7.802  1.00 10.47     0.023 A 
HETATM   12  CAH   D T1374      -8.369  -5.488  -7.383  1.00 11.61     0.064 A 
HETATM   13  CAE   D T1374      -8.872  -6.752  -7.840  1.00 11.67     0.282 A 
HETATM   14  OAF   D T1374      -9.873  -6.954  -8.558  1.00 12.38    -0.265 OA
HETATM   15  NAD   D T1374      -8.105  -7.778  -7.377  1.00 11.58    -0.169 NA
HETATM   16  CAC   D T1374      -7.124  -7.244  -6.679  1.00 11.36     0.282 A 
HETATM   17  OAB   D T1374      -6.216  -7.925  -6.179  1.00 13.28    -0.265 OA
HETATM   18  CAG   D T1374      -7.215  -5.823  -6.602  1.00 10.54     0.064 A 
HETATM   19  CAL   D T1374      -6.319  -4.887  -5.989  1.00 12.92     0.023 A 
HETATM   20  CAU   D T1374      -6.729  -3.668  -5.545  1.00 12.44     0.076 A 
HETATM   21  CAK   D T1374      -4.917  -4.915  -5.786  1.00 12.61     0.017 A 
HETATM   22  CAJ   D T1374      -3.898  -5.888  -6.038  1.00 13.95     0.002 A 
HETATM   23  CAI   D T1374      -2.576  -5.558  -5.715  1.00 15.63     0.000 A 
HETATM   24  CAQ   D T1374      -2.231  -4.313  -5.165  1.00 14.37     0.002 A 
HETATM   25  CAR   D T1374      -3.225  -3.360  -4.930  1.00 13.26     0.017 A 
HETATM   26  CAS   D T1374      -4.563  -3.675  -5.247  1.00 11.92     0.060 A 
HETATM   27  NAT   D T1374      -5.674  -2.950  -5.107  1.00 12.89    -0.324 N 
HETATM   28  CBA   D T1374      -5.828  -1.550  -4.621  1.00 13.69     0.138 C 
HETATM   29  CBC   D T1374      -5.753  -0.659  -5.870  1.00 16.12     0.167 C 
HETATM   30  OBE   D T1374      -7.125  -0.623  -6.336  1.00 16.41    -0.352 OA
HETATM   31  CBF   D T1374      -7.412   0.338  -7.364  1.00 19.48     0.151 C 
ENDROOT
BRANCH  31  32
HETATM   32  CBG   D T1374      -8.923   0.585  -7.143  1.00 23.41     0.280 C 
BRANCH  32  33
HETATM   33  NBH   D T1374      -9.225   1.890  -6.465  1.00 26.24     0.144 N 
HETATM   34  CBI   D T1374      -8.113   2.830  -6.691  1.00 27.90     0.286 C 
HETATM   35  CBJ   D T1374     -10.392   2.569  -7.086  1.00 27.31     0.286 C 
ENDBRANCH  32  33
ENDBRANCH  31  32
TORSDOF 2
ENDMDL
MODEL 4
REMARK VINA RESULT:    -8.065      1.935      5.842
REMARK INTER + INTRA:          -9.450
REMARK INTER:                  -8.915
REMARK INTRA:                  -0.535
REMARK UNBOUND:                -0.442
REMARK  2 active torsions:
REMARK  status: ('A' for Active; 'I' for Inactive)
REMARK    1  A    between atoms: CBF_31  and  CBG_32 
REMARK    2  A    between atoms: CBG_32  and  NBH_33 
ROOT
HETATM    1  CBD   D T1374      -8.831  -0.953  -8.567  1.00 18.24     0.056 C 
HETATM    2  CBB   D T1374      -9.749  -1.963  -9.211  1.00 13.77     0.109 C 
HETATM    3  NAW   D T1374      -9.857  -3.295  -8.592  1.00 11.00    -0.326 N 
HETATM    4  CAV   D T1374      -8.776  -4.071  -8.214  1.00  9.70     0.076 A 
HETATM    5  CAX   D T1374     -10.925  -4.062  -8.524  1.00 10.89     0.060 A 
HETATM    6  CAY   D T1374     -12.267  -3.801  -8.870  1.00 13.31     0.017 A 
HETATM    7  CAZ   D T1374     -13.234  -4.810  -8.668  1.00 12.88     0.002 A 
HETATM    8  CAP   D T1374     -12.916  -6.055  -8.117  1.00 12.85     0.000 A 
HETATM    9  CAO   D T1374     -11.566  -6.324  -7.784  1.00 12.21     0.002 A 
HETATM   10  CAN   D T1374     -10.568  -5.314  -8.003  1.00 11.16     0.017 A 
HETATM   11  CAM   D T1374      -9.196  -5.283  -7.758  1.00 10.47     0.023 A 
HETATM   12  CAH   D T1374      -8.257  -6.313  -7.382  1.00 11.61     0.064 A 
HETATM   13  CAE   D T1374      -8.308  -7.660  -7.874  1.00 11.67     0.282 A 
HETATM   14  OAF   D T1374      -9.193  -8.172  -8.591  1.00 12.38    -0.265 OA
HETATM   15  NAD   D T1374      -7.230  -8.377  -7.448  1.00 11.58    -0.169 NA
HETATM   16  CAC   D T1374      -6.478  -7.559  -6.740  1.00 11.36     0.282 A 
HETATM   17  OAB   D T1374      -5.385  -7.904  -6.267  1.00 13.28    -0.265 OA
HETATM   18  CAG   D T1374      -7.045  -6.256  -6.620  1.00 10.54     0.064 A 
HETATM   19  CAL   D T1374      -6.509  -5.088  -5.984  1.00 12.92     0.023 A 
HETATM   20  CAU   D T1374      -7.302  -4.093  -5.500  1.00 12.44     0.076 A 
HETATM   21  CAK   D T1374      -5.178  -4.644  -5.791  1.00 12.61     0.017 A 
HETATM   22  CAJ   D T1374      -3.894  -5.205  -6.079  1.00 13.95     0.002 A 
HETATM   23  CAI   D T1374      -2.758  -4.454  -5.755  1.00 15.63     0.000 A 
HETATM   24  CAQ   D T1374      -2.847  -3.181  -5.169  1.00 14.37     0.002 A 
HETATM   25  CAR   D T1374      -4.101  -2.630  -4.899  1.00 13.26     0.017 A 
HETATM   26  CAS   D T1374      -5.258  -3.372  -5.217  1.00 11.92     0.060 A 
HETATM   27  NAT   D T1374      -6.546  -3.071  -5.048  1.00 12.89    -0.324 N 
HETATM   28  CBA   D T1374      -7.159  -1.820  -4.518  1.00 13.69     0.138 C 
HETATM   29  CBC   D T1374      -7.412  -0.924  -5.740  1.00 16.12     0.167 C 
HETATM   30  OBE   D T1374      -8.721  -1.345  -6.196  1.00 16.41    -0.352 OA
HETATM   31  CBF   D T1374      -9.335  -0.511  -7.192  1.00 19.48     0.151 C 
ENDROOT
BRANCH  31  32
HETATM   32  CBG   D T1374     -10.837  -0.799  -6.953  1.00 23.41     0.280 C 
BRANCH  32  33
HETATM   33  NBH   D T1374     -11.145  -1.253  -5.557  1.00 26.24     0.144 N 
HETATM   34  CBI   D T1374     -11.664  -0.119  -4.773  1.00 27.90     0.286 C 
HETATM   35  CBJ   D T1374     -12.261  -2.235  -5.537  1.00 27.31     0.286 C 
ENDBRANCH  32  33
ENDBRANCH  31  32
TORSDOF 2
ENDMDL
MODEL 5
REMARK VINA RESULT:    -7.983      2.281      3.859
REMARK INTER + INTRA:          -9.359
REMARK INTER:                  -8.862
REMARK INTRA:                  -0.497
REMARK UNBOUND:                -0.442
REMARK  2 active torsions:
REMARK  status: ('A' for Active; 'I' for Inactive)
REMARK    1  A    between atoms: CBF_31  and  CBG_32 
REMARK    2  A    between atoms: CBG_32  and  NBH_33 
ROOT
HETATM    1  CBD   D T1374     -11.456  -3.430  -4.663  1.00 18.24     0.056 C 
HETATM    2  CBB   D T1374     -10.941  -2.047  -4.346  1.00 13.77     0.109 C 
HETATM    3  NAW   D T1374      -9.787  -1.545  -5.110  1.00 11.00    -0.326 N 
HETATM    4  CAV   D T1374      -8.620  -2.257  -5.320  1.00  9.70     0.076 A 
HETATM    5  CAX   D T1374      -9.557  -0.306  -5.491  1.00 10.89     0.060 A 
HETATM    6  CAY   D T1374     -10.372   0.842  -5.424  1.00 13.31     0.017 A 
HETATM    7  CAZ   D T1374      -9.880   2.062  -5.938  1.00 12.88     0.002 A 
HETATM    8  CAP   D T1374      -8.620   2.172  -6.533  1.00 12.85     0.000 A 
HETATM    9  CAO   D T1374      -7.793   1.023  -6.587  1.00 12.21     0.002 A 
HETATM   10  CAN   D T1374      -8.273  -0.220  -6.049  1.00 11.16     0.017 A 
HETATM   11  CAM   D T1374      -7.708  -1.493  -5.982  1.00 10.47     0.023 A 
HETATM   12  CAH   D T1374      -6.373  -1.974  -6.248  1.00 11.61     0.064 A 
HETATM   13  CAE   D T1374      -5.181  -1.244  -5.923  1.00 11.67     0.282 A 
HETATM   14  OAF   D T1374      -5.101  -0.081  -5.476  1.00 12.38    -0.265 OA
HETATM   15  NAD   D T1374      -4.069  -1.991  -6.175  1.00 11.58    -0.169 NA
HETATM   16  CAC   D T1374      -4.480  -3.164  -6.610  1.00 11.36     0.282 A 
HETATM   17  OAB   D T1374      -3.697  -4.091  -6.865  1.00 13.28    -0.265 OA
HETATM   18  CAG   D T1374      -5.900  -3.244  -6.715  1.00 10.54     0.064 A 
HETATM   19  CAL   D T1374      -6.722  -4.356  -7.091  1.00 12.92     0.023 A 
HETATM   20  CAU   D T1374      -7.961  -4.198  -7.630  1.00 12.44     0.076 A 
HETATM   21  CAK   D T1374      -6.548  -5.754  -6.939  1.00 12.61     0.017 A 
HETATM   22  CAJ   D T1374      -5.486  -6.572  -6.436  1.00 13.95     0.002 A 
HETATM   23  CAI   D T1374      -5.673  -7.959  -6.421  1.00 15.63     0.000 A 
HETATM   24  CAQ   D T1374      -6.859  -8.558  -6.876  1.00 14.37     0.002 A 
HETATM   25  CAR   D T1374      -7.898  -7.757  -7.356  1.00 13.26     0.017 A 
HETATM   26  CAS   D T1374      -7.729  -6.358  -7.380  1.00 11.92     0.060 A 
HETATM   27  NAT   D T1374      -8.557  -5.398  -7.796  1.00 12.89    -0.324 N 
HETATM   28  CBA   D T1374      -9.949  -5.515  -8.313  1.00 13.69     0.138 C 
HETATM   29  CBC   D T1374     -10.867  -5.372  -7.090  1.00 16.12     0.167 C 
HETATM   30  OBE   D T1374     -11.054  -3.939  -6.979  1.00 16.41    -0.352 OA
HETATM   31  CBF   D T1374     -12.071  -3.509  -6.061  1.00 19.48     0.151 C 
ENDROOT
BRANCH  31  32
HETATM   32  CBG   D T1374     -12.460  -2.134  -6.653  1.00 23.41     0.280 C 
BRANCH  32  33
HETATM   33  NBH   D T1374     -12.254  -2.040  -8.136  1.00 26.24     0.144 N 
HETATM   34  CBI   D T1374     -13.546  -1.790  -8.799  1.00 27.90     0.286 C 
HETATM   35  CBJ   D T1374     -11.437  -0.852  -8.498  1.00 27.31     0.286 C 
ENDBRANCH  32  33
ENDBRANCH  31  32
TORSDOF 2
ENDMDL
MODEL 6
REMARK VINA RESULT:    -7.315      5.721      9.419
REMARK INTER + INTRA:          -8.612
REMARK INTER:                  -8.323
REMARK INTRA:                  -0.289
REMARK UNBOUND:                -0.442
REMARK  2 active torsions:
REMARK  status: ('A' for Active; 'I' for Inactive)
REMARK    1  A    between atoms: CBF_31  and  CBG_32 
REMARK    2  A    between atoms: CBG_32  and  NBH_33 
ROOT
HETATM    1  CBD   D T1374      -9.456   4.154  -8.332  1.00 18.24     0.056 C 
HETATM    2  CBB   D T1374     -10.605   4.862  -7.656  1.00 13.77     0.109 C 
HETATM    3  NAW   D T1374     -11.237   4.208  -6.497  1.00 11.00    -0.326 N 
HETATM    4  CAV   D T1374     -11.643   2.886  -6.472  1.00  9.70     0.076 A 
HETATM    5  CAX   D T1374     -11.739   4.787  -5.427  1.00 10.89     0.060 A 
HETATM    6  CAY   D T1374     -11.698   6.131  -5.005  1.00 13.31     0.017 A 
HETATM    7  CAZ   D T1374     -12.308   6.483  -3.780  1.00 12.88     0.002 A 
HETATM    8  CAP   D T1374     -12.934   5.543  -2.956  1.00 12.85     0.000 A 
HETATM    9  CAO   D T1374     -12.990   4.194  -3.387  1.00 12.21     0.002 A 
HETATM   10  CAN   D T1374     -12.392   3.826  -4.640  1.00 11.16     0.017 A 
HETATM   11  CAM   D T1374     -12.272   2.603  -5.299  1.00 10.47     0.023 A 
HETATM   12  CAH   D T1374     -12.870   1.311  -5.056  1.00 11.61     0.064 A 
HETATM   13  CAE   D T1374     -14.220   1.128  -4.606  1.00 11.67     0.282 A 
HETATM   14  OAF   D T1374     -15.032   2.012  -4.261  1.00 12.38    -0.265 OA
HETATM   15  NAD   D T1374     -14.550  -0.194  -4.581  1.00 11.58    -0.169 NA
HETATM   16  CAC   D T1374     -13.503  -0.863  -5.019  1.00 11.36     0.282 A 
HETATM   17  OAB   D T1374     -13.517  -2.093  -5.174  1.00 13.28    -0.265 OA
HETATM   18  CAG   D T1374     -12.396  -0.015  -5.318  1.00 10.54     0.064 A 
HETATM   19  CAL   D T1374     -11.114  -0.354  -5.863  1.00 12.92     0.023 A 
HETATM   20  CAU   D T1374     -10.005   0.403  -5.643  1.00 12.44     0.076 A 
HETATM   21  CAK   D T1374     -10.706  -1.379  -6.752  1.00 12.61     0.017 A 
HETATM   22  CAJ   D T1374     -11.378  -2.481  -7.369  1.00 13.95     0.002 A 
HETATM   23  CAI   D T1374     -10.642  -3.304  -8.230  1.00 15.63     0.000 A 
HETATM   24  CAQ   D T1374      -9.284  -3.075  -8.502  1.00 14.37     0.002 A 
HETATM   25  CAR   D T1374      -8.632  -1.992  -7.907  1.00 13.26     0.017 A 
HETATM   26  CAS   D T1374      -9.357  -1.152  -7.036  1.00 11.92     0.060 A 
HETATM   27  NAT   D T1374      -8.961  -0.079  -6.350  1.00 12.89    -0.324 N 
HETATM   28  CBA   D T1374      -7.633   0.597  -6.342  1.00 13.69     0.138 C 
HETATM   29  CBC   D T1374      -7.704   1.680  -7.428  1.00 16.12     0.167 C 
HETATM   30  OBE   D T1374      -8.261   2.819  -6.727  1.00 16.41    -0.352 OA
HETATM   31  CBF   D T1374      -8.222   4.070  -7.433  1.00 19.48     0.151 C 
ENDROOT
BRANCH  31  32
HETATM   32  CBG   D T1374      -8.228   5.084  -6.264  1.00 23.41     0.280 C 
BRANCH  32  33
HETATM   33  NBH   D T1374      -7.169   6.141  -6.383  1.00 26.24     0.144 N 
HETATM   34  CBI   D T1374      -6.515   6.036  -7.699  1.00 27.90     0.286 C 
HETATM   35  CBJ   D T1374      -7.760   7.505  -6.391  1.00 27.31     0.286 C 
ENDBRANCH  32  33
ENDBRANCH  31  32
TORSDOF 2
ENDMDL
MODEL 7
REMARK VINA RESULT:    -7.169      2.633      6.814
REMARK INTER + INTRA:          -8.449
REMARK INTER:                  -8.151
REMARK INTRA:                  -0.298
REMARK UNBOUND:                -0.442
REMARK  2 active torsions:
REMARK  status: ('A' for Active; 'I' for Inactive)
REMARK    1  A    between atoms: CBF_31  and  CBG_32 
REMARK    2  A    between atoms: CBG_32  and  NBH_33 
ROOT
HETATM    1  CBD   D T1374     -11.883  -4.135  -8.502  1.00 18.24     0.056 C 
HETATM    2  CBB   D T1374     -10.798  -5.117  -8.869  1.00 13.77     0.109 C 
HETATM    3  NAW   D T1374      -9.537  -5.074  -8.108  1.00 11.00    -0.326 N 
HETATM    4  CAV   D T1374      -8.821  -3.919  -7.849  1.00  9.70     0.076 A 
HETATM    5  CAX   D T1374      -8.767  -6.088  -7.776  1.00 10.89     0.060 A 
HETATM    6  CAY   D T1374      -8.971  -7.477  -7.905  1.00 13.31     0.017 A 
HETATM    7  CAZ   D T1374      -7.976  -8.362  -7.434  1.00 12.88     0.002 A 
HETATM    8  CAP   D T1374      -6.801  -7.913  -6.824  1.00 12.85     0.000 A 
HETATM    9  CAO   D T1374      -6.587  -6.518  -6.709  1.00 12.21     0.002 A 
HETATM   10  CAN   D T1374      -7.582  -5.606  -7.201  1.00 11.16     0.017 A 
HETATM   11  CAM   D T1374      -7.659  -4.214  -7.206  1.00 10.47     0.023 A 
HETATM   12  CAH   D T1374      -6.687  -3.191  -6.898  1.00 11.61     0.064 A 
HETATM   13  CAE   D T1374      -5.295  -3.284  -7.234  1.00 11.67     0.282 A 
HETATM   14  OAF   D T1374      -4.697  -4.262  -7.728  1.00 12.38    -0.265 OA
HETATM   15  NAD   D T1374      -4.643  -2.125  -6.933  1.00 11.58    -0.169 NA
HETATM   16  CAC   D T1374      -5.541  -1.288  -6.455  1.00 11.36     0.282 A 
HETATM   17  OAB   D T1374      -5.263  -0.119  -6.149  1.00 13.28    -0.265 OA
HETATM   18  CAG   D T1374      -6.841  -1.868  -6.370  1.00 10.54     0.064 A 
HETATM   19  CAL   D T1374      -8.077  -1.269  -5.960  1.00 12.92     0.023 A 
HETATM   20  CAU   D T1374      -9.107  -1.997  -5.449  1.00 12.44     0.076 A 
HETATM   21  CAK   D T1374      -8.559   0.061  -6.050  1.00 12.61     0.017 A 
HETATM   22  CAJ   D T1374      -7.988   1.294  -6.501  1.00 13.95     0.002 A 
HETATM   23  CAI   D T1374      -8.785   2.443  -6.461  1.00 15.63     0.000 A 
HETATM   24  CAQ   D T1374     -10.112   2.416  -6.001  1.00 14.37     0.002 A 
HETATM   25  CAR   D T1374     -10.671   1.210  -5.572  1.00 13.26     0.017 A 
HETATM   26  CAS   D T1374      -9.883   0.041  -5.604  1.00 11.92     0.060 A 
HETATM   27  NAT   D T1374     -10.182  -1.208  -5.242  1.00 12.89    -0.324 N 
HETATM   28  CBA   D T1374     -11.473  -1.759  -4.743  1.00 13.69     0.138 C 
HETATM   29  CBC   D T1374     -12.231  -2.249  -5.986  1.00 16.12     0.167 C 
HETATM   30  OBE   D T1374     -11.746  -3.604  -6.160  1.00 16.41    -0.352 OA
HETATM   31  CBF   D T1374     -12.461  -4.407  -7.112  1.00 19.48     0.151 C 
ENDROOT
BRANCH  31  32
HETATM   32  CBG   D T1374     -12.179  -5.835  -6.585  1.00 23.41     0.280 C 
BRANCH  32  33
HETATM   33  NBH   D T1374     -13.316  -6.419  -5.800  1.00 26.24     0.144 N 
HETATM   34  CBI   D T1374     -14.576  -5.769  -6.200  1.00 27.90     0.286 C 
HETATM   35  CBJ   D T1374     -13.534  -7.849  -6.139  1.00 27.31     0.286 C 
ENDBRANCH  32  33
ENDBRANCH  31  32
TORSDOF 2
ENDMDL
MODEL 8
REMARK VINA RESULT:    -7.146      7.845     12.111
REMARK INTER + INTRA:          -8.423
REMARK INTER:                  -8.221
REMARK INTRA:                  -0.202
REMARK UNBOUND:                -0.442
REMARK  2 active torsions:
REMARK  status: ('A' for Active; 'I' for Inactive)
REMARK    1  A    between atoms: CBF_31  and  CBG_32 
REMARK    2  A    between atoms: CBG_32  and  NBH_33 
ROOT
HETATM    1  CBD   D T1374      -8.942   5.957  -4.165  1.00 18.24     0.056 C 
HETATM    2  CBB   D T1374      -8.540   4.546  -4.522  1.00 13.77     0.109 C 
HETATM    3  NAW   D T1374      -9.563   3.657  -5.097  1.00 11.00    -0.326 N 
HETATM    4  CAV   D T1374     -10.831   3.483  -4.571  1.00  9.70     0.076 A 
HETATM    5  CAX   D T1374      -9.392   2.724  -6.009  1.00 10.89     0.060 A 
HETATM    6  CAY   D T1374      -8.264   2.400  -6.791  1.00 13.31     0.017 A 
HETATM    7  CAZ   D T1374      -8.362   1.349  -7.730  1.00 12.88     0.002 A 
HETATM    8  CAP   D T1374      -9.543   0.629  -7.930  1.00 12.85     0.000 A 
HETATM    9  CAO   D T1374     -10.672   0.943  -7.134  1.00 12.21     0.002 A 
HETATM   10  CAN   D T1374     -10.581   1.995  -6.161  1.00 11.16     0.017 A 
HETATM   11  CAM   D T1374     -11.510   2.532  -5.270  1.00 10.47     0.023 A 
HETATM   12  CAH   D T1374     -12.828   2.099  -4.869  1.00 11.61     0.064 A 
HETATM   13  CAE   D T1374     -13.196   0.724  -4.688  1.00 11.67     0.282 A 
HETATM   14  OAF   D T1374     -12.506  -0.285  -4.936  1.00 12.38    -0.265 OA
HETATM   15  NAD   D T1374     -14.461   0.621  -4.191  1.00 11.58    -0.169 NA
HETATM   16  CAC   D T1374     -14.910   1.847  -4.015  1.00 11.36     0.282 A 
HETATM   17  OAB   D T1374     -16.018   2.083  -3.511  1.00 13.28    -0.265 OA
HETATM   18  CAG   D T1374     -13.974   2.839  -4.432  1.00 10.54     0.064 A 
HETATM   19  CAL   D T1374     -14.069   4.267  -4.351  1.00 12.92     0.023 A 
HETATM   20  CAU   D T1374     -13.392   5.092  -5.195  1.00 12.44     0.076 A 
HETATM   21  CAK   D T1374     -14.724   5.120  -3.429  1.00 12.61     0.017 A 
HETATM   22  CAJ   D T1374     -15.580   4.893  -2.304  1.00 13.95     0.002 A 
HETATM   23  CAI   D T1374     -16.044   6.006  -1.593  1.00 15.63     0.000 A 
HETATM   24  CAQ   D T1374     -15.691   7.318  -1.948  1.00 14.37     0.002 A 
HETATM   25  CAR   D T1374     -14.847   7.537  -3.039  1.00 13.26     0.017 A 
HETATM   26  CAS   D T1374     -14.370   6.429  -3.768  1.00 11.92     0.060 A 
HETATM   27  NAT   D T1374     -13.575   6.380  -4.838  1.00 12.89    -0.324 N 
HETATM   28  CBA   D T1374     -12.897   7.495  -5.557  1.00 13.69     0.138 C 
HETATM   29  CBC   D T1374     -11.516   7.643  -4.901  1.00 16.12     0.167 C 
HETATM   30  OBE   D T1374     -10.695   6.701  -5.635  1.00 16.41    -0.352 OA
HETATM   31  CBF   D T1374      -9.281   6.790  -5.403  1.00 19.48     0.151 C 
ENDROOT
BRANCH  31  32
HETATM   32  CBG   D T1374      -8.715   6.210  -6.721  1.00 23.41     0.280 C 
BRANCH  32  33
HETATM   33  NBH   D T1374      -7.251   6.480  -6.914  1.00 26.24     0.144 N 
HETATM   34  CBI   D T1374      -6.847   6.056  -8.266  1.00 27.90     0.286 C 
HETATM   35  CBJ   D T1374      -6.960   7.937  -6.900  1.00 27.31     0.286 C 
ENDBRANCH  32  33
ENDBRANCH  31  32
TORSDOF 2
ENDMDL
MODEL 9
REMARK VINA RESULT:    -6.860      6.511      9.340
REMARK INTER + INTRA:          -8.104
REMARK INTER:                  -7.776
REMARK INTRA:                  -0.328
REMARK UNBOUND:                -0.442
REMARK  2 active torsions:
REMARK  status: ('A' for Active; 'I' for Inactive)
REMARK    1  A    between atoms: CBF_31  and  CBG_32 
REMARK    2  A    between atoms: CBG_32  and  NBH_33 
ROOT
HETATM    1  CBD   D T1374     -12.120   5.135  -3.027  1.00 18.24     0.056 C 
HETATM    2  CBB   D T1374     -10.697   5.318  -3.495  1.00 13.77     0.109 C 
HETATM    3  NAW   D T1374     -10.226   4.495  -4.622  1.00 11.00    -0.326 N 
HETATM    4  CAV   D T1374     -10.397   3.126  -4.714  1.00  9.70     0.076 A 
HETATM    5  CAX   D T1374      -9.379   4.843  -5.568  1.00 10.89     0.060 A 
HETATM    6  CAY   D T1374      -8.804   6.094  -5.872  1.00 13.31     0.017 A 
HETATM    7  CAZ   D T1374      -7.932   6.196  -6.979  1.00 12.88     0.002 A 
HETATM    8  CAP   D T1374      -7.633   5.106  -7.800  1.00 12.85     0.000 A 
HETATM    9  CAO   D T1374      -8.197   3.845  -7.487  1.00 12.21     0.002 A 
HETATM   10  CAN   D T1374      -9.069   3.722  -6.352  1.00 11.16     0.017 A 
HETATM   11  CAM   D T1374      -9.774   2.642  -5.824  1.00 10.47     0.023 A 
HETATM   12  CAH   D T1374      -9.729   1.226  -6.105  1.00 11.61     0.064 A 
HETATM   13  CAE   D T1374      -8.522   0.509  -6.404  1.00 11.67     0.282 A 
HETATM   14  OAF   D T1374      -7.379   0.983  -6.569  1.00 12.38    -0.265 OA
HETATM   15  NAD   D T1374      -8.762  -0.828  -6.505  1.00 11.58    -0.169 NA
HETATM   16  CAC   D T1374     -10.043  -1.012  -6.257  1.00 11.36     0.282 A 
HETATM   17  OAB   D T1374     -10.557  -2.139  -6.211  1.00 13.28    -0.265 OA
HETATM   18  CAG   D T1374     -10.737   0.212  -6.021  1.00 10.54     0.064 A 
HETATM   19  CAL   D T1374     -12.110   0.423  -5.666  1.00 12.92     0.023 A 
HETATM   20  CAU   D T1374     -12.767   1.580  -5.951  1.00 12.44     0.076 A 
HETATM   21  CAK   D T1374     -13.027  -0.364  -4.927  1.00 12.61     0.017 A 
HETATM   22  CAJ   D T1374     -12.963  -1.665  -4.333  1.00 13.95     0.002 A 
HETATM   23  CAI   D T1374     -14.089  -2.131  -3.644  1.00 15.63     0.000 A 
HETATM   24  CAQ   D T1374     -15.258  -1.364  -3.519  1.00 14.37     0.002 A 
HETATM   25  CAR   D T1374     -15.315  -0.090  -4.090  1.00 13.26     0.017 A 
HETATM   26  CAS   D T1374     -14.191   0.397  -4.789  1.00 11.92     0.060 A 
HETATM   27  NAT   D T1374     -14.008   1.557  -5.421  1.00 12.89    -0.324 N 
HETATM   28  CBA   D T1374     -14.926   2.725  -5.529  1.00 13.69     0.138 C 
HETATM   29  CBC   D T1374     -14.578   3.647  -4.351  1.00 16.12     0.167 C 
HETATM   30  OBE   D T1374     -13.507   4.470  -4.877  1.00 16.41    -0.352 OA
HETATM   31  CBF   D T1374     -13.135   5.600  -4.073  1.00 19.48     0.151 C 
ENDROOT
BRANCH  31  32
HETATM   32  CBG   D T1374     -12.543   6.554  -5.138  1.00 23.41     0.280 C 
BRANCH  32  33
HETATM   33  NBH   D T1374     -13.245   7.879  -5.212  1.00 26.24     0.144 N 
HETATM   34  CBI   D T1374     -13.728   8.104  -6.585  1.00 27.90     0.286 C 
HETATM   35  CBJ   D T1374     -14.487   7.883  -4.396  1.00 27.31     0.286 C 
ENDBRANCH  32  33
ENDBRANCH  31  32
TORSDOF 2
ENDMDL
