MODEL 1
REMARK VINA RESULT:    -9.705      0.000      0.000
REMARK INTER + INTRA:         -11.201
REMARK INTER:                 -10.840
REMARK INTRA:                  -0.361
REMARK UNBOUND:                -0.361
REMARK  2 active torsions:
REMARK  status: ('A' for Active; 'I' for Inactive)
REMARK    1  A    between atoms: CBF_31  and  CBG_32 
REMARK    2  A    between atoms: CBG_32  and  NBH_33 
ROOT
HETATM    1  CBD   D T1374       6.331   4.082   7.735  1.00 18.24     0.056 C 
HETATM    2  CBB   D T1374       7.085   5.127   6.950  1.00 13.77     0.109 C 
HETATM    3  NAW   D T1374       6.508   6.480   6.863  1.00 11.00    -0.326 N 
HETATM    4  CAV   D T1374       5.192   6.746   6.531  1.00  9.70     0.076 A 
HETATM    5  CAX   D T1374       7.154   7.626   6.832  1.00 10.89     0.060 A 
HETATM    6  CAY   D T1374       8.522   7.914   7.014  1.00 13.31     0.017 A 
HETATM    7  CAZ   D T1374       8.952   9.258   6.954  1.00 12.88     0.002 A 
HETATM    8  CAP   D T1374       8.068  10.319   6.742  1.00 12.85     0.000 A 
HETATM    9  CAO   D T1374       6.696  10.030   6.542  1.00 12.21     0.002 A 
HETATM   10  CAN   D T1374       6.248   8.666   6.580  1.00 11.16     0.017 A 
HETATM   11  CAM   D T1374       4.986   8.089   6.445  1.00 10.47     0.023 A 
HETATM   12  CAH   D T1374       3.715   8.631   6.026  1.00 11.61     0.064 A 
HETATM   13  CAE   D T1374       3.566   9.607   4.985  1.00 11.67     0.282 A 
HETATM   14  OAF   D T1374       4.473  10.202   4.368  1.00 12.38    -0.265 OA
HETATM   15  NAD   D T1374       2.249   9.841   4.722  1.00 11.58    -0.169 NA
HETATM   16  CAC   D T1374       1.550   9.052   5.512  1.00 11.36     0.282 A 
HETATM   17  OAB   D T1374       0.312   8.989   5.461  1.00 13.28    -0.265 OA
HETATM   18  CAG   D T1374       2.372   8.276   6.381  1.00 10.54     0.064 A 
HETATM   19  CAL   D T1374       1.994   7.273   7.332  1.00 12.92     0.023 A 
HETATM   20  CAU   D T1374       2.758   6.975   8.418  1.00 12.44     0.076 A 
HETATM   21  CAK   D T1374       0.914   6.357   7.361  1.00 12.61     0.017 A 
HETATM   22  CAJ   D T1374      -0.222   6.137   6.519  1.00 13.95     0.002 A 
HETATM   23  CAI   D T1374      -1.100   5.099   6.854  1.00 15.63     0.000 A 
HETATM   24  CAQ   D T1374      -0.895   4.281   7.977  1.00 14.37     0.002 A 
HETATM   25  CAR   D T1374       0.220   4.490   8.791  1.00 13.26     0.017 A 
HETATM   26  CAS   D T1374       1.116   5.531   8.470  1.00 11.92     0.060 A 
HETATM   27  NAT   D T1374       2.229   5.931   9.090  1.00 12.89    -0.324 N 
HETATM   28  CBA   D T1374       2.896   5.352  10.288  1.00 13.69     0.138 C 
HETATM   29  CBC   D T1374       3.911   4.330   9.755  1.00 16.12     0.167 C 
HETATM   30  OBE   D T1374       5.093   5.130   9.511  1.00 16.41    -0.352 OA
HETATM   31  CBF   D T1374       6.297   4.398   9.231  1.00 19.48     0.151 C 
ENDROOT
BRANCH  31  32
HETATM   32  CBG   D T1374       7.383   5.403   9.684  1.00 23.41     0.280 C 
BRANCH  32  33
HETATM   33  NBH   D T1374       8.350   4.833  10.680  1.00 26.24     0.144 N 
HETATM   34  CBI   D T1374       7.763   3.636  11.305  1.00 27.90     0.286 C 
HETATM   35  CBJ   D T1374       9.576   4.319  10.015  1.00 27.31     0.286 C 
ENDBRANCH  32  33
ENDBRANCH  31  32
TORSDOF 2
ENDMDL
MODEL 2
REMARK VINA RESULT:    -8.371      2.108      6.567
REMARK INTER + INTRA:          -9.711
REMARK INTER:                  -9.340
REMARK INTRA:                  -0.370
REMARK UNBOUND:                -0.361
REMARK  2 active torsions:
REMARK  status: ('A' for Active; 'I' for Inactive)
REMARK    1  A    between atoms: CBF_31  and  CBG_32 
REMARK    2  A    between atoms: CBG_32  and  NBH_33 
ROOT
HETATM    1  CBD   D T1374       2.950   7.163   9.227  1.00 18.24     0.056 C 
HETATM    2  CBB   D T1374       3.298   8.117   8.112  1.00 13.77     0.109 C 
HETATM    3  NAW   D T1374       4.467   7.804   7.271  1.00 11.00    -0.326 N 
HETATM    4  CAV   D T1374       5.710   7.452   7.763  1.00  9.70     0.076 A 
HETATM    5  CAX   D T1374       4.612   8.037   5.984  1.00 10.89     0.060 A 
HETATM    6  CAY   D T1374       3.689   8.499   5.024  1.00 13.31     0.017 A 
HETATM    7  CAZ   D T1374       4.109   8.639   3.682  1.00 12.88     0.002 A 
HETATM    8  CAP   D T1374       5.403   8.317   3.264  1.00 12.85     0.000 A 
HETATM    9  CAO   D T1374       6.337   7.870   4.231  1.00 12.21     0.002 A 
HETATM   10  CAN   D T1374       5.929   7.742   5.602  1.00 11.16     0.017 A 
HETATM   11  CAM   D T1374       6.604   7.315   6.746  1.00 10.47     0.023 A 
HETATM   12  CAH   D T1374       7.997   7.036   6.999  1.00 11.61     0.064 A 
HETATM   13  CAE   D T1374       9.079   7.796   6.440  1.00 11.67     0.282 A 
HETATM   14  OAF   D T1374       9.005   8.714   5.598  1.00 12.38    -0.265 OA
HETATM   15  NAD   D T1374      10.275   7.385   6.947  1.00 11.58    -0.169 NA
HETATM   16  CAC   D T1374      10.020   6.430   7.818  1.00 11.36     0.282 A 
HETATM   17  OAB   D T1374      10.909   5.896   8.499  1.00 13.28    -0.265 OA
HETATM   18  CAG   D T1374       8.630   6.122   7.904  1.00 10.54     0.064 A 
HETATM   19  CAL   D T1374       7.957   5.196   8.765  1.00 12.92     0.023 A 
HETATM   20  CAU   D T1374       6.765   4.628   8.436  1.00 12.44     0.076 A 
HETATM   21  CAK   D T1374       8.248   4.739  10.074  1.00 12.61     0.017 A 
HETATM   22  CAJ   D T1374       9.331   4.962  10.984  1.00 13.95     0.002 A 
HETATM   23  CAI   D T1374       9.276   4.343  12.238  1.00 15.63     0.000 A 
HETATM   24  CAQ   D T1374       8.200   3.525  12.621  1.00 14.37     0.002 A 
HETATM   25  CAR   D T1374       7.139   3.317  11.737  1.00 13.26     0.017 A 
HETATM   26  CAS   D T1374       7.177   3.933  10.467  1.00 11.92     0.060 A 
HETATM   27  NAT   D T1374       6.304   3.880   9.459  1.00 12.89    -0.324 N 
HETATM   28  CBA   D T1374       4.985   3.192   9.393  1.00 13.69     0.138 C 
HETATM   29  CBC   D T1374       3.946   4.227   9.851  1.00 16.12     0.167 C 
HETATM   30  OBE   D T1374       3.614   4.930   8.629  1.00 16.41    -0.352 OA
HETATM   31  CBF   D T1374       2.479   5.806   8.699  1.00 19.48     0.151 C 
ENDROOT
BRANCH  31  32
HETATM   32  CBG   D T1374       2.018   5.834   7.223  1.00 23.41     0.280 C 
BRANCH  32  33
HETATM   33  NBH   D T1374       0.538   5.649   7.053  1.00 26.24     0.144 N 
HETATM   34  CBI   D T1374      -0.022   5.028   8.266  1.00 27.90     0.286 C 
HETATM   35  CBJ   D T1374      -0.167   6.954   6.967  1.00 27.31     0.286 C 
ENDBRANCH  32  33
ENDBRANCH  31  32
TORSDOF 2
ENDMDL
MODEL 3
REMARK VINA RESULT:    -8.355      2.015      8.195
REMARK INTER + INTRA:          -9.693
REMARK INTER:                  -9.406
REMARK INTRA:                  -0.286
REMARK UNBOUND:                -0.361
REMARK  2 active torsions:
REMARK  status: ('A' for Active; 'I' for Inactive)
REMARK    1  A    between atoms: CBF_31  and  CBG_32 
REMARK    2  A    between atoms: CBG_32  and  NBH_33 
ROOT
HETATM    1  CBD   D T1374       5.580   7.565   5.038  1.00 18.24     0.056 C 
HETATM    2  CBB   D T1374       4.548   6.586   5.542  1.00 13.77     0.109 C 
HETATM    3  NAW   D T1374       4.607   6.184   6.958  1.00 11.00    -0.326 N 
HETATM    4  CAV   D T1374       5.757   5.767   7.603  1.00  9.70     0.076 A 
HETATM    5  CAX   D T1374       3.597   5.914   7.756  1.00 10.89     0.060 A 
HETATM    6  CAY   D T1374       2.208   6.061   7.562  1.00 13.31     0.017 A 
HETATM    7  CAZ   D T1374       1.330   5.713   8.612  1.00 12.88     0.002 A 
HETATM    8  CAP   D T1374       1.786   5.246   9.848  1.00 12.85     0.000 A 
HETATM    9  CAO   D T1374       3.179   5.081  10.038  1.00 12.21     0.002 A 
HETATM   10  CAN   D T1374       4.083   5.412   8.972  1.00 11.16     0.017 A 
HETATM   11  CAM   D T1374       5.474   5.377   8.876  1.00 10.47     0.023 A 
HETATM   12  CAH   D T1374       6.488   4.815   9.736  1.00 11.61     0.064 A 
HETATM   13  CAE   D T1374       6.338   3.578  10.447  1.00 11.67     0.282 A 
HETATM   14  OAF   D T1374       5.316   2.867  10.524  1.00 12.38    -0.265 OA
HETATM   15  NAD   D T1374       7.496   3.236  11.079  1.00 11.58    -0.169 NA
HETATM   16  CAC   D T1374       8.385   4.164  10.788  1.00 11.36     0.282 A 
HETATM   17  OAB   D T1374       9.565   4.097  11.168  1.00 13.28    -0.265 OA
HETATM   18  CAG   D T1374       7.847   5.205   9.977  1.00 10.54     0.064 A 
HETATM   19  CAL   D T1374       8.503   6.347   9.411  1.00 12.92     0.023 A 
HETATM   20  CAU   D T1374       7.835   7.492   9.101  1.00 12.44     0.076 A 
HETATM   21  CAK   D T1374       9.836   6.553   8.978  1.00 12.61     0.017 A 
HETATM   22  CAJ   D T1374      11.022   5.752   9.005  1.00 13.95     0.002 A 
HETATM   23  CAI   D T1374      12.192   6.288   8.456  1.00 15.63     0.000 A 
HETATM   24  CAQ   D T1374      12.229   7.570   7.884  1.00 14.37     0.002 A 
HETATM   25  CAR   D T1374      11.069   8.346   7.848  1.00 13.26     0.017 A 
HETATM   26  CAS   D T1374       9.879   7.823   8.397  1.00 11.92     0.060 A 
HETATM   27  NAT   D T1374       8.663   8.366   8.492  1.00 12.89    -0.324 N 
HETATM   28  CBA   D T1374       8.179   9.681   7.988  1.00 13.69     0.138 C 
HETATM   29  CBC   D T1374       7.630   9.416   6.578  1.00 16.12     0.167 C 
HETATM   30  OBE   D T1374       6.256   9.030   6.822  1.00 16.41    -0.352 OA
HETATM   31  CBF   D T1374       5.412   8.951   5.663  1.00 19.48     0.151 C 
ENDROOT
BRANCH  31  32
HETATM   32  CBG   D T1374       4.014   9.196   6.280  1.00 23.41     0.280 C 
BRANCH  32  33
HETATM   33  NBH   D T1374       3.109  10.016   5.409  1.00 26.24     0.144 N 
HETATM   34  CBI   D T1374       3.840  10.442   4.203  1.00 27.90     0.286 C 
HETATM   35  CBJ   D T1374       1.987   9.203   4.872  1.00 27.31     0.286 C 
ENDBRANCH  32  33
ENDBRANCH  31  32
TORSDOF 2
ENDMDL
MODEL 4
REMARK VINA RESULT:    -8.202      2.390      5.897
REMARK INTER + INTRA:          -9.522
REMARK INTER:                  -9.213
REMARK INTRA:                  -0.309
REMARK UNBOUND:                -0.361
REMARK  2 active torsions:
REMARK  status: ('A' for Active; 'I' for Inactive)
REMARK    1  A    between atoms: CBF_31  and  CBG_32 
REMARK    2  A    between atoms: CBG_32  and  NBH_33 
ROOT
HETATM    1  CBD   D T1374       8.405  10.551   6.238  1.00 18.24     0.056 C 
HETATM    2  CBB   D T1374       8.982   9.557   7.215  1.00 13.77     0.109 C 
HETATM    3  NAW   D T1374       8.388   8.209   7.265  1.00 11.00    -0.326 N 
HETATM    4  CAV   D T1374       7.032   7.957   7.348  1.00  9.70     0.076 A 
HETATM    5  CAX   D T1374       9.008   7.070   7.489  1.00 10.89     0.060 A 
HETATM    6  CAY   D T1374      10.382   6.777   7.597  1.00 13.31     0.017 A 
HETATM    7  CAZ   D T1374      10.782   5.440   7.818  1.00 12.88     0.002 A 
HETATM    8  CAP   D T1374       9.866   4.390   7.914  1.00 12.85     0.000 A 
HETATM    9  CAO   D T1374       8.483   4.685   7.823  1.00 12.21     0.002 A 
HETATM   10  CAN   D T1374       8.062   6.042   7.619  1.00 11.16     0.017 A 
HETATM   11  CAM   D T1374       6.802   6.621   7.470  1.00 10.47     0.023 A 
HETATM   12  CAH   D T1374       5.469   6.099   7.662  1.00 11.61     0.064 A 
HETATM   13  CAE   D T1374       5.112   5.186   8.708  1.00 11.67     0.282 A 
HETATM   14  OAF   D T1374       5.875   4.631   9.525  1.00 12.38    -0.265 OA
HETATM   15  NAD   D T1374       3.768   4.962   8.721  1.00 11.58    -0.169 NA
HETATM   16  CAC   D T1374       3.242   5.701   7.765  1.00 11.36     0.282 A 
HETATM   17  OAB   D T1374       2.019   5.762   7.568  1.00 13.28    -0.265 OA
HETATM   18  CAG   D T1374       4.225   6.428   7.030  1.00 10.54     0.064 A 
HETATM   19  CAL   D T1374       4.049   7.372   5.967  1.00 12.92     0.023 A 
HETATM   20  CAU   D T1374       5.013   7.610   5.036  1.00 12.44     0.076 A 
HETATM   21  CAK   D T1374       3.002   8.280   5.673  1.00 12.61     0.017 A 
HETATM   22  CAJ   D T1374       1.725   8.545   6.262  1.00 13.95     0.002 A 
HETATM   23  CAI   D T1374       0.938   9.558   5.701  1.00 15.63     0.000 A 
HETATM   24  CAQ   D T1374       1.365  10.310   4.595  1.00 14.37     0.002 A 
HETATM   25  CAR   D T1374       2.616  10.058   4.028  1.00 13.26     0.017 A 
HETATM   26  CAS   D T1374       3.424   9.041   4.580  1.00 11.92     0.060 A 
HETATM   27  NAT   D T1374       4.634   8.610   4.215  1.00 12.89    -0.324 N 
HETATM   28  CBA   D T1374       5.528   9.120   3.138  1.00 13.69     0.138 C 
HETATM   29  CBC   D T1374       6.426  10.176   3.800  1.00 16.12     0.167 C 
HETATM   30  OBE   D T1374       7.531   9.396   4.317  1.00 16.41    -0.352 OA
HETATM   31  CBF   D T1374       8.662  10.148   4.785  1.00 19.48     0.151 C 
ENDROOT
BRANCH  31  32
HETATM   32  CBG   D T1374       9.808   9.122   4.613  1.00 23.41     0.280 C 
BRANCH  32  33
HETATM   33  NBH   D T1374      10.107   8.792   3.181  1.00 26.24     0.144 N 
HETATM   34  CBI   D T1374      10.416  10.030   2.444  1.00 27.90     0.286 C 
HETATM   35  CBJ   D T1374      11.351   7.988   3.055  1.00 27.31     0.286 C 
ENDBRANCH  32  33
ENDBRANCH  31  32
TORSDOF 2
ENDMDL
MODEL 5
REMARK VINA RESULT:    -8.155      2.320      6.167
REMARK INTER + INTRA:          -9.470
REMARK INTER:                  -9.159
REMARK INTRA:                  -0.311
REMARK UNBOUND:                -0.361
REMARK  2 active torsions:
REMARK  status: ('A' for Active; 'I' for Inactive)
REMARK    1  A    between atoms: CBF_31  and  CBG_32 
REMARK    2  A    between atoms: CBG_32  and  NBH_33 
ROOT
HETATM    1  CBD   D T1374       7.216   9.949   7.514  1.00 18.24     0.056 C 
HETATM    2  CBB   D T1374       8.525   9.605   8.180  1.00 13.77     0.109 C 
HETATM    3  NAW   D T1374       8.821   8.185   8.436  1.00 11.00    -0.326 N 
HETATM    4  CAV   D T1374       7.940   7.299   9.030  1.00  9.70     0.076 A 
HETATM    5  CAX   D T1374       9.994   7.590   8.389  1.00 10.89     0.060 A 
HETATM    6  CAY   D T1374      11.248   8.066   7.957  1.00 13.31     0.017 A 
HETATM    7  CAZ   D T1374      12.359   7.194   7.989  1.00 12.88     0.002 A 
HETATM    8  CAP   D T1374      12.259   5.867   8.415  1.00 12.85     0.000 A 
HETATM    9  CAO   D T1374      11.004   5.393   8.867  1.00 12.21     0.002 A 
HETATM   10  CAN   D T1374       9.869   6.274   8.858  1.00 11.16     0.017 A 
HETATM   11  CAM   D T1374       8.534   6.088   9.213  1.00 10.47     0.023 A 
HETATM   12  CAH   D T1374       7.855   5.011   9.895  1.00 11.61     0.064 A 
HETATM   13  CAE   D T1374       8.423   4.273  10.986  1.00 11.67     0.282 A 
HETATM   14  OAF   D T1374       9.583   4.360  11.438  1.00 12.38    -0.265 OA
HETATM   15  NAD   D T1374       7.514   3.403  11.510  1.00 11.58    -0.169 NA
HETATM   16  CAC   D T1374       6.392   3.564  10.840  1.00 11.36     0.282 A 
HETATM   17  OAB   D T1374       5.351   2.953  11.128  1.00 13.28    -0.265 OA
HETATM   18  CAG   D T1374       6.510   4.526   9.794  1.00 10.54     0.064 A 
HETATM   19  CAL   D T1374       5.509   5.016   8.893  1.00 12.92     0.023 A 
HETATM   20  CAU   D T1374       5.816   5.520   7.667  1.00 12.44     0.076 A 
HETATM   21  CAK   D T1374       4.110   5.185   9.036  1.00 12.61     0.017 A 
HETATM   22  CAJ   D T1374       3.174   4.874  10.074  1.00 13.95     0.002 A 
HETATM   23  CAI   D T1374       1.830   5.209   9.873  1.00 15.63     0.000 A 
HETATM   24  CAQ   D T1374       1.385   5.836   8.697  1.00 14.37     0.002 A 
HETATM   25  CAR   D T1374       2.300   6.149   7.690  1.00 13.26     0.017 A 
HETATM   26  CAS   D T1374       3.660   5.819   7.875  1.00 11.92     0.060 A 
HETATM   27  NAT   D T1374       4.707   6.001   7.067  1.00 12.89    -0.324 N 
HETATM   28  CBA   D T1374       4.763   6.668   5.737  1.00 13.69     0.138 C 
HETATM   29  CBC   D T1374       5.096   8.141   6.018  1.00 16.12     0.167 C 
HETATM   30  OBE   D T1374       6.543   8.155   6.060  1.00 16.41    -0.352 OA
HETATM   31  CBF   D T1374       7.157   9.452   6.068  1.00 19.48     0.151 C 
ENDROOT
BRANCH  31  32
HETATM   32  CBG   D T1374       8.544   9.143   5.455  1.00 23.41     0.280 C 
BRANCH  32  33
HETATM   33  NBH   D T1374       8.493   8.815   3.992  1.00 26.24     0.144 N 
HETATM   34  CBI   D T1374       7.797   9.894   3.270  1.00 27.90     0.286 C 
HETATM   35  CBJ   D T1374       9.851   8.806   3.388  1.00 27.31     0.286 C 
ENDBRANCH  32  33
ENDBRANCH  31  32
TORSDOF 2
ENDMDL
MODEL 6
REMARK VINA RESULT:    -8.155      2.140      5.884
REMARK INTER + INTRA:          -9.469
REMARK INTER:                  -9.103
REMARK INTRA:                  -0.366
REMARK UNBOUND:                -0.361
REMARK  2 active torsions:
REMARK  status: ('A' for Active; 'I' for Inactive)
REMARK    1  A    between atoms: CBF_31  and  CBG_32 
REMARK    2  A    between atoms: CBG_32  and  NBH_33 
ROOT
HETATM    1  CBD   D T1374       6.132   7.721   3.945  1.00 18.24     0.056 C 
HETATM    2  CBB   D T1374       4.809   8.239   3.437  1.00 13.77     0.109 C 
HETATM    3  NAW   D T1374       3.736   8.480   4.417  1.00 11.00    -0.326 N 
HETATM    4  CAV   D T1374       3.350   7.576   5.389  1.00  9.70     0.076 A 
HETATM    5  CAX   D T1374       2.826   9.431   4.390  1.00 10.89     0.060 A 
HETATM    6  CAY   D T1374       2.690  10.548   3.542  1.00 13.31     0.017 A 
HETATM    7  CAZ   D T1374       1.616  11.441   3.753  1.00 12.88     0.002 A 
HETATM    8  CAP   D T1374       0.691  11.270   4.786  1.00 12.85     0.000 A 
HETATM    9  CAO   D T1374       0.816  10.139   5.628  1.00 12.21     0.002 A 
HETATM   10  CAN   D T1374       1.892   9.212   5.413  1.00 11.16     0.017 A 
HETATM   11  CAM   D T1374       2.275   8.048   6.079  1.00 10.47     0.023 A 
HETATM   12  CAH   D T1374       1.622   7.255   7.093  1.00 11.61     0.064 A 
HETATM   13  CAE   D T1374       0.209   7.012   7.131  1.00 11.67     0.282 A 
HETATM   14  OAF   D T1374      -0.666   7.508   6.393  1.00 12.38    -0.265 OA
HETATM   15  NAD   D T1374      -0.107   6.133   8.124  1.00 11.58    -0.169 NA
HETATM   16  CAC   D T1374       1.022   5.777   8.701  1.00 11.36     0.282 A 
HETATM   17  OAB   D T1374       1.068   4.930   9.607  1.00 13.28    -0.265 OA
HETATM   18  CAG   D T1374       2.155   6.442   8.147  1.00 10.54     0.064 A 
HETATM   19  CAL   D T1374       3.544   6.283   8.461  1.00 12.92     0.023 A 
HETATM   20  CAU   D T1374       4.456   7.273   8.257  1.00 12.44     0.076 A 
HETATM   21  CAK   D T1374       4.288   5.168   8.920  1.00 12.61     0.017 A 
HETATM   22  CAJ   D T1374       3.940   3.835   9.306  1.00 13.95     0.002 A 
HETATM   23  CAI   D T1374       4.969   2.972   9.701  1.00 15.63     0.000 A 
HETATM   24  CAQ   D T1374       6.314   3.376   9.725  1.00 14.37     0.002 A 
HETATM   25  CAR   D T1374       6.654   4.674   9.338  1.00 13.26     0.017 A 
HETATM   26  CAS   D T1374       5.630   5.558   8.936  1.00 11.92     0.060 A 
HETATM   27  NAT   D T1374       5.699   6.831   8.539  1.00 12.89    -0.324 N 
HETATM   28  CBA   D T1374       6.898   7.691   8.344  1.00 13.69     0.138 C 
HETATM   29  CBC   D T1374       7.308   7.517   6.874  1.00 16.12     0.167 C 
HETATM   30  OBE   D T1374       6.512   8.511   6.185  1.00 16.41    -0.352 OA
HETATM   31  CBF   D T1374       6.859   8.751   4.813  1.00 19.48     0.151 C 
ENDROOT
BRANCH  31  32
HETATM   32  CBG   D T1374       6.358  10.202   4.615  1.00 23.41     0.280 C 
BRANCH  32  33
HETATM   33  NBH   D T1374       7.329  11.075   3.876  1.00 26.24     0.144 N 
HETATM   34  CBI   D T1374       8.674  10.479   3.939  1.00 27.90     0.286 C 
HETATM   35  CBJ   D T1374       7.028  11.114   2.422  1.00 27.31     0.286 C 
ENDBRANCH  32  33
ENDBRANCH  31  32
TORSDOF 2
ENDMDL
MODEL 7
REMARK VINA RESULT:    -7.077      3.263      9.345
REMARK INTER + INTRA:          -8.265
REMARK INTER:                  -7.955
REMARK INTRA:                  -0.310
REMARK UNBOUND:                -0.361
REMARK  2 active torsions:
REMARK  status: ('A' for Active; 'I' for Inactive)
REMARK    1  A    between atoms: CBF_31  and  CBG_32 
REMARK    2  A    between atoms: CBG_32  and  NBH_33 
ROOT
HETATM    1  CBD   D T1374       8.187   5.978   7.563  1.00 18.24     0.056 C 
HETATM    2  CBB   D T1374       7.210   4.881   7.908  1.00 13.77     0.109 C 
HETATM    3  NAW   D T1374       6.864   4.681   9.326  1.00 11.00    -0.326 N 
HETATM    4  CAV   D T1374       7.789   4.591  10.349  1.00  9.70     0.076 A 
HETATM    5  CAX   D T1374       5.702   4.314   9.822  1.00 10.89     0.060 A 
HETATM    6  CAY   D T1374       4.448   4.151   9.199  1.00 13.31     0.017 A 
HETATM    7  CAZ   D T1374       3.338   3.767   9.985  1.00 12.88     0.002 A 
HETATM    8  CAP   D T1374       3.431   3.561  11.364  1.00 12.85     0.000 A 
HETATM    9  CAO   D T1374       4.694   3.708  11.988  1.00 12.21     0.002 A 
HETATM   10  CAN   D T1374       5.835   4.078  11.198  1.00 11.16     0.017 A 
HETATM   11  CAM   D T1374       7.169   4.315  11.529  1.00 10.47     0.023 A 
HETATM   12  CAH   D T1374       7.920   4.083  12.740  1.00 11.61     0.064 A 
HETATM   13  CAE   D T1374       7.736   2.942  13.589  1.00 11.67     0.282 A 
HETATM   14  OAF   D T1374       6.866   2.053  13.487  1.00 12.38    -0.265 OA
HETATM   15  NAD   D T1374       8.663   2.924  14.588  1.00 11.58    -0.169 NA
HETATM   16  CAC   D T1374       9.445   3.969  14.411  1.00 11.36     0.282 A 
HETATM   17  OAB   D T1374      10.431   4.191  15.130  1.00 13.28    -0.265 OA
HETATM   18  CAG   D T1374       9.049   4.769  13.299  1.00 10.54     0.064 A 
HETATM   19  CAL   D T1374       9.671   5.939  12.754  1.00 12.92     0.023 A 
HETATM   20  CAU   D T1374       8.975   6.876  12.055  1.00 12.44     0.076 A 
HETATM   21  CAK   D T1374      11.024   6.355  12.708  1.00 12.61     0.017 A 
HETATM   22  CAJ   D T1374      12.244   5.822  13.234  1.00 13.95     0.002 A 
HETATM   23  CAI   D T1374      13.433   6.511  12.969  1.00 15.63     0.000 A 
HETATM   24  CAQ   D T1374      13.459   7.692  12.209  1.00 14.37     0.002 A 
HETATM   25  CAR   D T1374      12.270   8.205  11.687  1.00 13.26     0.017 A 
HETATM   26  CAS   D T1374      11.061   7.524  11.944  1.00 11.92     0.060 A 
HETATM   27  NAT   D T1374       9.813   7.817  11.570  1.00 12.89    -0.324 N 
HETATM   28  CBA   D T1374       9.325   8.931  10.712  1.00 13.69     0.138 C 
HETATM   29  CBC   D T1374       9.314   8.385   9.276  1.00 16.12     0.167 C 
HETATM   30  OBE   D T1374       8.011   7.762   9.167  1.00 16.41    -0.352 OA
HETATM   31  CBF   D T1374       7.615   7.369   7.844  1.00 19.48     0.151 C 
ENDROOT
BRANCH  31  32
HETATM   32  CBG   D T1374       6.072   7.400   7.961  1.00 23.41     0.280 C 
BRANCH  32  33
HETATM   33  NBH   D T1374       5.382   7.774   6.682  1.00 26.24     0.144 N 
HETATM   34  CBI   D T1374       4.096   7.060   6.590  1.00 27.90     0.286 C 
HETATM   35  CBJ   D T1374       4.990   9.207   6.674  1.00 27.31     0.286 C 
ENDBRANCH  32  33
ENDBRANCH  31  32
TORSDOF 2
ENDMDL
MODEL 8
REMARK VINA RESULT:    -7.008      4.581      8.842
REMARK INTER + INTRA:          -8.188
REMARK INTER:                  -7.834
REMARK INTRA:                  -0.354
REMARK UNBOUND:                -0.361
REMARK  2 active torsions:
REMARK  status: ('A' for Active; 'I' for Inactive)
REMARK    1  A    between atoms: CBF_31  and  CBG_32 
REMARK    2  A    between atoms: CBG_32  and  NBH_33 
ROOT
HETATM    1  CBD   D T1374       3.552   8.722   3.038  1.00 18.24     0.056 C 
HETATM    2  CBB   D T1374       4.446   7.763   3.783  1.00 13.77     0.109 C 
HETATM    3  NAW   D T1374       5.812   8.204   4.116  1.00 11.00    -0.326 N 
HETATM    4  CAV   D T1374       6.684   8.789   3.216  1.00  9.70     0.076 A 
HETATM    5  CAX   D T1374       6.508   7.908   5.193  1.00 10.89     0.060 A 
HETATM    6  CAY   D T1374       6.133   7.236   6.374  1.00 13.31     0.017 A 
HETATM    7  CAZ   D T1374       7.088   7.074   7.402  1.00 12.88     0.002 A 
HETATM    8  CAP   D T1374       8.389   7.574   7.303  1.00 12.85     0.000 A 
HETATM    9  CAO   D T1374       8.773   8.234   6.110  1.00 12.21     0.002 A 
HETATM   10  CAN   D T1374       7.818   8.389   5.048  1.00 11.16     0.017 A 
HETATM   11  CAM   D T1374       7.897   8.999   3.797  1.00 10.47     0.023 A 
HETATM   12  CAH   D T1374       9.013   9.520   3.044  1.00 11.61     0.064 A 
HETATM   13  CAE   D T1374      10.312   8.911   3.016  1.00 11.67     0.282 A 
HETATM   14  OAF   D T1374      10.708   7.937   3.688  1.00 12.38    -0.265 OA
HETATM   15  NAD   D T1374      11.128   9.547   2.129  1.00 11.58    -0.169 NA
HETATM   16  CAC   D T1374      10.420  10.505   1.568  1.00 11.36     0.282 A 
HETATM   17  OAB   D T1374      10.873  11.224   0.663  1.00 13.28    -0.265 OA
HETATM   18  CAG   D T1374       9.096  10.586   2.089  1.00 10.54     0.064 A 
HETATM   19  CAL   D T1374       8.018  11.447   1.701  1.00 12.92     0.023 A 
HETATM   20  CAU   D T1374       7.013  11.787   2.554  1.00 12.44     0.076 A 
HETATM   21  CAK   D T1374       7.679  12.036   0.458  1.00 12.61     0.017 A 
HETATM   22  CAJ   D T1374       8.301  12.058  -0.831  1.00 13.95     0.002 A 
HETATM   23  CAI   D T1374       7.654  12.745  -1.864  1.00 15.63     0.000 A 
HETATM   24  CAQ   D T1374       6.426  13.400  -1.671  1.00 14.37     0.002 A 
HETATM   25  CAR   D T1374       5.815  13.369  -0.416  1.00 13.26     0.017 A 
HETATM   26  CAS   D T1374       6.453  12.681   0.638  1.00 11.92     0.060 A 
HETATM   27  NAT   D T1374       6.080  12.520   1.910  1.00 12.89    -0.324 N 
HETATM   28  CBA   D T1374       4.836  12.975   2.590  1.00 13.69     0.138 C 
HETATM   29  CBC   D T1374       3.835  11.818   2.457  1.00 16.12     0.167 C 
HETATM   30  OBE   D T1374       4.131  10.987   3.605  1.00 16.41    -0.352 OA
HETATM   31  CBF   D T1374       3.185   9.943   3.883  1.00 19.48     0.151 C 
ENDROOT
BRANCH  31  32
HETATM   32  CBG   D T1374       3.388   9.737   5.403  1.00 23.41     0.280 C 
BRANCH  32  33
HETATM   33  NBH   D T1374       2.105   9.575   6.163  1.00 26.24     0.144 N 
HETATM   34  CBI   D T1374       1.014  10.245   5.435  1.00 27.90     0.286 C 
HETATM   35  CBJ   D T1374       1.676   8.153   6.211  1.00 27.31     0.286 C 
ENDBRANCH  32  33
ENDBRANCH  31  32
TORSDOF 2
ENDMDL
