MODEL 1
REMARK VINA RESULT:   -10.383      0.000      0.000
REMARK INTER + INTRA:         -12.124
REMARK INTER:                 -11.598
REMARK INTRA:                  -0.527
REMARK UNBOUND:                -0.527
REMARK  2 active torsions:
REMARK  status: ('A' for Active; 'I' for Inactive)
REMARK    1  A    between atoms: CBF_31  and  CBG_32 
REMARK    2  A    between atoms: CBG_32  and  NBH_33 
ROOT
HETATM    1  CBD   D T1374       0.153   3.173 -11.039  1.00 18.24     0.056 C 
HETATM    2  CBB   D T1374      -1.035   3.562 -11.883  1.00 13.77     0.109 C 
HETATM    3  NAW   D T1374      -2.216   2.681 -11.866  1.00 11.00    -0.326 N 
HETATM    4  CAV   D T1374      -2.170   1.310 -12.030  1.00  9.70     0.076 A 
HETATM    5  CAX   D T1374      -3.481   3.037 -11.946  1.00 10.89     0.060 A 
HETATM    6  CAY   D T1374      -4.080   4.312 -11.923  1.00 13.31     0.017 A 
HETATM    7  CAZ   D T1374      -5.488   4.410 -12.001  1.00 12.88     0.002 A 
HETATM    8  CAP   D T1374      -6.313   3.286 -12.080  1.00 12.85     0.000 A 
HETATM    9  CAO   D T1374      -5.713   2.003 -12.120  1.00 12.21     0.002 A 
HETATM   10  CAN   D T1374      -4.281   1.891 -12.062  1.00 11.16     0.017 A 
HETATM   11  CAM   D T1374      -3.427   0.790 -12.058  1.00 10.47     0.023 A 
HETATM   12  CAH   D T1374      -3.657  -0.614 -12.308  1.00 11.61     0.064 A 
HETATM   13  CAE   D T1374      -4.567  -1.111 -13.300  1.00 11.67     0.282 A 
HETATM   14  OAF   D T1374      -5.355  -0.449 -14.006  1.00 12.38    -0.265 OA
HETATM   15  NAD   D T1374      -4.488  -2.469 -13.396  1.00 11.58    -0.169 NA
HETATM   16  CAC   D T1374      -3.561  -2.864 -12.548  1.00 11.36     0.282 A 
HETATM   17  OAB   D T1374      -3.212  -4.050 -12.451  1.00 13.28    -0.265 OA
HETATM   18  CAG   D T1374      -3.001  -1.785 -11.804  1.00 10.54     0.064 A 
HETATM   19  CAL   D T1374      -1.941  -1.801 -10.838  1.00 12.92     0.023 A 
HETATM   20  CAU   D T1374      -1.832  -0.861  -9.860  1.00 12.44     0.076 A 
HETATM   21  CAK   D T1374      -0.799  -2.628 -10.701  1.00 12.61     0.017 A 
HETATM   22  CAJ   D T1374      -0.317  -3.777 -11.408  1.00 13.95     0.002 A 
HETATM   23  CAI   D T1374       0.895  -4.343 -10.995  1.00 15.63     0.000 A 
HETATM   24  CAQ   D T1374       1.639  -3.817  -9.927  1.00 14.37     0.002 A 
HETATM   25  CAR   D T1374       1.173  -2.691  -9.246  1.00 13.26     0.017 A 
HETATM   26  CAS   D T1374      -0.046  -2.105  -9.647  1.00 11.92     0.060 A 
HETATM   27  NAT   D T1374      -0.697  -1.049  -9.156  1.00 12.89    -0.324 N 
HETATM   28  CBA   D T1374      -0.293  -0.123  -8.060  1.00 13.69     0.138 C 
HETATM   29  CBC   D T1374       0.468   1.027  -8.737  1.00 16.12     0.167 C 
HETATM   30  OBE   D T1374      -0.585   1.954  -9.102  1.00 16.41    -0.352 OA
HETATM   31  CBF   D T1374      -0.152   3.250  -9.542  1.00 19.48     0.151 C 
ENDROOT
BRANCH  31  32
HETATM   32  CBG   D T1374      -1.384   4.121  -9.198  1.00 23.41     0.280 C 
BRANCH  32  33
HETATM   33  NBH   D T1374      -2.162   3.620  -8.017  1.00 26.24     0.144 N 
HETATM   34  CBI   D T1374      -2.016   4.563  -6.895  1.00 27.90     0.286 C 
HETATM   35  CBJ   D T1374      -3.623   3.617  -8.288  1.00 27.31     0.286 C 
ENDBRANCH  32  33
ENDBRANCH  31  32
TORSDOF 2
ENDMDL
MODEL 2
REMARK VINA RESULT:   -10.047      2.221      6.430
REMARK INTER + INTRA:         -11.748
REMARK INTER:                 -11.446
REMARK INTRA:                  -0.302
REMARK UNBOUND:                -0.527
REMARK  2 active torsions:
REMARK  status: ('A' for Active; 'I' for Inactive)
REMARK    1  A    between atoms: CBF_31  and  CBG_32 
REMARK    2  A    between atoms: CBG_32  and  NBH_33 
ROOT
HETATM    1  CBD   D T1374      -2.272   1.965  -9.853  1.00 18.24     0.056 C 
HETATM    2  CBB   D T1374      -1.676   0.584  -9.727  1.00 13.77     0.109 C 
HETATM    3  NAW   D T1374      -2.153  -0.463 -10.645  1.00 11.00    -0.326 N 
HETATM    4  CAV   D T1374      -3.484  -0.735 -10.896  1.00  9.70     0.076 A 
HETATM    5  CAX   D T1374      -1.453  -1.447 -11.169  1.00 10.89     0.060 A 
HETATM    6  CAY   D T1374      -0.068  -1.708 -11.139  1.00 13.31     0.017 A 
HETATM    7  CAZ   D T1374       0.431  -2.842 -11.819  1.00 12.88     0.002 A 
HETATM    8  CAP   D T1374      -0.395  -3.707 -12.540  1.00 12.85     0.000 A 
HETATM    9  CAO   D T1374      -1.790  -3.456 -12.559  1.00 12.21     0.002 A 
HETATM   10  CAN   D T1374      -2.313  -2.319 -11.854  1.00 11.16     0.017 A 
HETATM   11  CAM   D T1374      -3.605  -1.816 -11.715  1.00 10.47     0.023 A 
HETATM   12  CAH   D T1374      -4.898  -2.361 -12.059  1.00 11.61     0.064 A 
HETATM   13  CAE   D T1374      -5.242  -3.747 -11.925  1.00 11.67     0.282 A 
HETATM   14  OAF   D T1374      -4.487  -4.689 -11.607  1.00 12.38    -0.265 OA
HETATM   15  NAD   D T1374      -6.560  -3.951 -12.207  1.00 11.58    -0.169 NA
HETATM   16  CAC   D T1374      -7.084  -2.774 -12.481  1.00 11.36     0.282 A 
HETATM   17  OAB   D T1374      -8.292  -2.623 -12.716  1.00 13.28    -0.265 OA
HETATM   18  CAG   D T1374      -6.123  -1.722 -12.439  1.00 10.54     0.064 A 
HETATM   19  CAL   D T1374      -6.311  -0.312 -12.621  1.00 12.92     0.023 A 
HETATM   20  CAU   D T1374      -5.313   0.507 -13.051  1.00 12.44     0.076 A 
HETATM   21  CAK   D T1374      -7.411   0.538 -12.348  1.00 12.61     0.017 A 
HETATM   22  CAJ   D T1374      -8.742   0.314 -11.870  1.00 13.95     0.002 A 
HETATM   23  CAI   D T1374      -9.576   1.424 -11.697  1.00 15.63     0.000 A 
HETATM   24  CAQ   D T1374      -9.144   2.732 -11.973  1.00 14.37     0.002 A 
HETATM   25  CAR   D T1374      -7.842   2.950 -12.428  1.00 13.26     0.017 A 
HETATM   26  CAS   D T1374      -6.987   1.843 -12.609  1.00 11.92     0.060 A 
HETATM   27  NAT   D T1374      -5.724   1.792 -13.038  1.00 12.89    -0.324 N 
HETATM   28  CBA   D T1374      -4.810   2.910 -13.403  1.00 13.69     0.138 C 
HETATM   29  CBC   D T1374      -4.051   3.273 -12.118  1.00 16.12     0.167 C 
HETATM   30  OBE   D T1374      -2.917   2.370 -12.134  1.00 16.41    -0.352 OA
HETATM   31  CBF   D T1374      -1.888   2.641 -11.170  1.00 19.48     0.151 C 
ENDROOT
BRANCH  31  32
HETATM   32  CBG   D T1374      -0.650   2.017 -11.856  1.00 23.41     0.280 C 
BRANCH  32  33
HETATM   33  NBH   D T1374       0.189   3.014 -12.601  1.00 26.24     0.144 N 
HETATM   34  CBI   D T1374      -0.006   2.836 -14.050  1.00 27.90     0.286 C 
HETATM   35  CBJ   D T1374      -0.269   4.406 -12.352  1.00 27.31     0.286 C 
ENDBRANCH  32  33
ENDBRANCH  31  32
TORSDOF 2
ENDMDL
MODEL 3
REMARK VINA RESULT:    -9.776      1.786      2.375
REMARK INTER + INTRA:         -11.446
REMARK INTER:                 -10.913
REMARK INTRA:                  -0.533
REMARK UNBOUND:                -0.527
REMARK  2 active torsions:
REMARK  status: ('A' for Active; 'I' for Inactive)
REMARK    1  A    between atoms: CBF_31  and  CBG_32 
REMARK    2  A    between atoms: CBG_32  and  NBH_33 
ROOT
HETATM    1  CBD   D T1374      -2.147   2.644 -13.694  1.00 18.24     0.056 C 
HETATM    2  CBB   D T1374      -3.623   2.772 -13.977  1.00 13.77     0.109 C 
HETATM    3  NAW   D T1374      -4.550   1.906 -13.229  1.00 11.00    -0.326 N 
HETATM    4  CAV   D T1374      -4.393   0.542 -13.076  1.00  9.70     0.076 A 
HETATM    5  CAX   D T1374      -5.763   2.204 -12.811  1.00 10.89     0.060 A 
HETATM    6  CAY   D T1374      -6.461   3.428 -12.815  1.00 13.31     0.017 A 
HETATM    7  CAZ   D T1374      -7.765   3.475 -12.272  1.00 12.88     0.002 A 
HETATM    8  CAP   D T1374      -8.383   2.356 -11.709  1.00 12.85     0.000 A 
HETATM    9  CAO   D T1374      -7.689   1.120 -11.719  1.00 12.21     0.002 A 
HETATM   10  CAN   D T1374      -6.371   1.054 -12.287  1.00 11.16     0.017 A 
HETATM   11  CAM   D T1374      -5.457   0.010 -12.415  1.00 10.47     0.023 A 
HETATM   12  CAH   D T1374      -5.579  -1.414 -12.204  1.00 11.61     0.064 A 
HETATM   13  CAE   D T1374      -6.750  -2.174 -12.536  1.00 11.67     0.282 A 
HETATM   14  OAF   D T1374      -7.847  -1.739 -12.944  1.00 12.38    -0.265 OA
HETATM   15  NAD   D T1374      -6.536  -3.506 -12.342  1.00 11.58    -0.169 NA
HETATM   16  CAC   D T1374      -5.291  -3.644 -11.937  1.00 11.36     0.282 A 
HETATM   17  OAB   D T1374      -4.777  -4.755 -11.737  1.00 13.28    -0.265 OA
HETATM   18  CAG   D T1374      -4.618  -2.396 -11.795  1.00 10.54     0.064 A 
HETATM   19  CAL   D T1374      -3.255  -2.134 -11.435  1.00 12.92     0.023 A 
HETATM   20  CAU   D T1374      -2.865  -0.966 -10.856  1.00 12.44     0.076 A 
HETATM   21  CAK   D T1374      -2.064  -2.874 -11.640  1.00 12.61     0.017 A 
HETATM   22  CAJ   D T1374      -1.781  -4.160 -12.202  1.00 13.95     0.002 A 
HETATM   23  CAI   D T1374      -0.445  -4.574 -12.261  1.00 15.63     0.000 A 
HETATM   24  CAQ   D T1374       0.607  -3.769 -11.795  1.00 14.37     0.002 A 
HETATM   25  CAR   D T1374       0.330  -2.510 -11.257  1.00 13.26     0.017 A 
HETATM   26  CAS   D T1374      -1.010  -2.075 -11.188  1.00 11.92     0.060 A 
HETATM   27  NAT   D T1374      -1.524  -0.938 -10.715  1.00 12.89    -0.324 N 
HETATM   28  CBA   D T1374      -0.819   0.253 -10.164  1.00 13.69     0.138 C 
HETATM   29  CBC   D T1374      -0.586   1.195 -11.355  1.00 16.12     0.167 C 
HETATM   30  OBE   D T1374      -1.809   1.972 -11.410  1.00 16.41    -0.352 OA
HETATM   31  CBF   D T1374      -1.788   3.112 -12.283  1.00 19.48     0.151 C 
ENDROOT
BRANCH  31  32
HETATM   32  CBG   D T1374      -2.858   4.019 -11.632  1.00 23.41     0.280 C 
BRANCH  32  33
HETATM   33  NBH   D T1374      -3.018   3.796 -10.157  1.00 26.24     0.144 N 
HETATM   34  CBI   D T1374      -2.341   4.875  -9.419  1.00 27.90     0.286 C 
HETATM   35  CBJ   D T1374      -4.439   3.919  -9.739  1.00 27.31     0.286 C 
ENDBRANCH  32  33
ENDBRANCH  31  32
TORSDOF 2
ENDMDL
MODEL 4
REMARK VINA RESULT:    -9.452      2.216      6.569
REMARK INTER + INTRA:         -11.084
REMARK INTER:                 -10.784
REMARK INTRA:                  -0.300
REMARK UNBOUND:                -0.527
REMARK  2 active torsions:
REMARK  status: ('A' for Active; 'I' for Inactive)
REMARK    1  A    between atoms: CBF_31  and  CBG_32 
REMARK    2  A    between atoms: CBG_32  and  NBH_33 
ROOT
HETATM    1  CBD   D T1374      -4.999   0.456 -13.460  1.00 18.24     0.056 C 
HETATM    2  CBB   D T1374      -4.405  -0.825 -13.993  1.00 13.77     0.109 C 
HETATM    3  NAW   D T1374      -3.630  -1.668 -13.067  1.00 11.00    -0.326 N 
HETATM    4  CAV   D T1374      -2.631  -1.200 -12.234  1.00  9.70     0.076 A 
HETATM    5  CAX   D T1374      -3.566  -2.983 -13.045  1.00 10.89     0.060 A 
HETATM    6  CAY   D T1374      -4.296  -3.951 -13.764  1.00 13.31     0.017 A 
HETATM    7  CAZ   D T1374      -4.041  -5.319 -13.524  1.00 12.88     0.002 A 
HETATM    8  CAP   D T1374      -3.103  -5.753 -12.583  1.00 12.85     0.000 A 
HETATM    9  CAO   D T1374      -2.356  -4.782 -11.871  1.00 12.21     0.002 A 
HETATM   10  CAN   D T1374      -2.592  -3.387 -12.120  1.00 11.16     0.017 A 
HETATM   11  CAM   D T1374      -2.042  -2.231 -11.570  1.00 10.47     0.023 A 
HETATM   12  CAH   D T1374      -0.907  -2.018 -10.701  1.00 11.61     0.064 A 
HETATM   13  CAE   D T1374       0.317  -2.761 -10.788  1.00 11.67     0.282 A 
HETATM   14  OAF   D T1374       0.558  -3.742 -11.522  1.00 12.38    -0.265 OA
HETATM   15  NAD   D T1374       1.250  -2.264  -9.928  1.00 11.58    -0.169 NA
HETATM   16  CAC   D T1374       0.706  -1.229  -9.322  1.00 11.36     0.282 A 
HETATM   17  OAB   D T1374       1.336  -0.523  -8.520  1.00 13.28    -0.265 OA
HETATM   18  CAG   D T1374      -0.645  -1.010  -9.717  1.00 10.54     0.064 A 
HETATM   19  CAL   D T1374      -1.547   0.036  -9.328  1.00 12.92     0.023 A 
HETATM   20  CAU   D T1374      -2.898  -0.119  -9.354  1.00 12.44     0.076 A 
HETATM   21  CAK   D T1374      -1.325   1.385  -8.953  1.00 12.61     0.017 A 
HETATM   22  CAJ   D T1374      -0.149   2.176  -8.751  1.00 13.95     0.002 A 
HETATM   23  CAI   D T1374      -0.313   3.518  -8.390  1.00 15.63     0.000 A 
HETATM   24  CAQ   D T1374      -1.582   4.099  -8.229  1.00 14.37     0.002 A 
HETATM   25  CAR   D T1374      -2.728   3.328  -8.438  1.00 13.26     0.017 A 
HETATM   26  CAS   D T1374      -2.583   1.973  -8.801  1.00 11.92     0.060 A 
HETATM   27  NAT   D T1374      -3.509   1.042  -9.041  1.00 12.89    -0.324 N 
HETATM   28  CBA   D T1374      -4.993   1.174  -9.053  1.00 13.69     0.138 C 
HETATM   29  CBC   D T1374      -5.376   1.511 -10.502  1.00 16.12     0.167 C 
HETATM   30  OBE   D T1374      -5.509   0.208 -11.123  1.00 16.41    -0.352 OA
HETATM   31  CBF   D T1374      -6.101   0.196 -12.431  1.00 19.48     0.151 C 
ENDROOT
BRANCH  31  32
HETATM   32  CBG   D T1374      -6.689  -1.233 -12.492  1.00 23.41     0.280 C 
BRANCH  32  33
HETATM   33  NBH   D T1374      -8.127  -1.308 -12.069  1.00 26.24     0.144 N 
HETATM   34  CBI   D T1374      -8.781  -0.011 -12.314  1.00 27.90     0.286 C 
HETATM   35  CBJ   D T1374      -8.896  -2.256 -12.916  1.00 27.31     0.286 C 
ENDBRANCH  32  33
ENDBRANCH  31  32
TORSDOF 2
ENDMDL
MODEL 5
REMARK VINA RESULT:    -9.319      1.708      5.854
REMARK INTER + INTRA:         -10.935
REMARK INTER:                 -10.604
REMARK INTRA:                  -0.331
REMARK UNBOUND:                -0.527
REMARK  2 active torsions:
REMARK  status: ('A' for Active; 'I' for Inactive)
REMARK    1  A    between atoms: CBF_31  and  CBG_32 
REMARK    2  A    between atoms: CBG_32  and  NBH_33 
ROOT
HETATM    1  CBD   D T1374      -2.178   1.475  -8.347  1.00 18.24     0.056 C 
HETATM    2  CBB   D T1374      -1.360   0.236  -8.078  1.00 13.77     0.109 C 
HETATM    3  NAW   D T1374      -1.117  -0.691  -9.197  1.00 11.00    -0.326 N 
HETATM    4  CAV   D T1374      -2.098  -1.161 -10.049  1.00  9.70     0.076 A 
HETATM    5  CAX   D T1374      -0.035  -1.406  -9.423  1.00 10.89     0.060 A 
HETATM    6  CAY   D T1374       1.222  -1.397  -8.786  1.00 13.31     0.017 A 
HETATM    7  CAZ   D T1374       2.234  -2.265  -9.255  1.00 12.88     0.002 A 
HETATM    8  CAP   D T1374       2.043  -3.121 -10.343  1.00 12.85     0.000 A 
HETATM    9  CAO   D T1374       0.775  -3.143 -10.974  1.00 12.21     0.002 A 
HETATM   10  CAN   D T1374      -0.269  -2.280 -10.495  1.00 11.16     0.017 A 
HETATM   11  CAM   D T1374      -1.580  -2.070 -10.919  1.00 10.47     0.023 A 
HETATM   12  CAH   D T1374      -2.418  -2.777 -11.859  1.00 11.61     0.064 A 
HETATM   13  CAE   D T1374      -2.419  -4.204 -12.012  1.00 11.67     0.282 A 
HETATM   14  OAF   D T1374      -1.657  -5.027 -11.464  1.00 12.38    -0.265 OA
HETATM   15  NAD   D T1374      -3.393  -4.599 -12.880  1.00 11.58    -0.169 NA
HETATM   16  CAC   D T1374      -4.034  -3.514 -13.264  1.00 11.36     0.282 A 
HETATM   17  OAB   D T1374      -5.023  -3.556 -14.012  1.00 13.28    -0.265 OA
HETATM   18  CAG   D T1374      -3.485  -2.325 -12.702  1.00 10.54     0.064 A 
HETATM   19  CAL   D T1374      -3.932  -0.968 -12.832  1.00 12.92     0.023 A 
HETATM   20  CAU   D T1374      -3.093   0.093 -12.690  1.00 12.44     0.076 A 
HETATM   21  CAK   D T1374      -5.222  -0.412 -13.021  1.00 12.61     0.017 A 
HETATM   22  CAJ   D T1374      -6.523  -0.973 -13.223  1.00 13.95     0.002 A 
HETATM   23  CAI   D T1374      -7.605  -0.096 -13.359  1.00 15.63     0.000 A 
HETATM   24  CAQ   D T1374      -7.448   1.298 -13.297  1.00 14.37     0.002 A 
HETATM   25  CAR   D T1374      -6.179   1.843 -13.089  1.00 13.26     0.017 A 
HETATM   26  CAS   D T1374      -5.076   0.976 -12.951  1.00 11.92     0.060 A 
HETATM   27  NAT   D T1374      -3.784   1.249 -12.759  1.00 12.89    -0.324 N 
HETATM   28  CBA   D T1374      -3.121   2.570 -12.572  1.00 13.69     0.138 C 
HETATM   29  CBC   D T1374      -3.099   2.822 -11.057  1.00 16.12     0.167 C 
HETATM   30  OBE   D T1374      -1.875   2.173 -10.629  1.00 16.41    -0.352 OA
HETATM   31  CBF   D T1374      -1.459   2.449  -9.283  1.00 19.48     0.151 C 
ENDROOT
BRANCH  31  32
HETATM   32  CBG   D T1374       0.068   2.215  -9.378  1.00 23.41     0.280 C 
BRANCH  32  33
HETATM   33  NBH   D T1374       0.871   3.482  -9.362  1.00 26.24     0.144 N 
HETATM   34  CBI   D T1374       1.082   3.948 -10.743  1.00 27.90     0.286 C 
HETATM   35  CBJ   D T1374       0.119   4.596  -8.726  1.00 27.31     0.286 C 
ENDBRANCH  32  33
ENDBRANCH  31  32
TORSDOF 2
ENDMDL
MODEL 6
REMARK VINA RESULT:    -9.243      1.743      2.306
REMARK INTER + INTRA:         -10.851
REMARK INTER:                 -10.318
REMARK INTRA:                  -0.533
REMARK UNBOUND:                -0.527
REMARK  2 active torsions:
REMARK  status: ('A' for Active; 'I' for Inactive)
REMARK    1  A    between atoms: CBF_31  and  CBG_32 
REMARK    2  A    between atoms: CBG_32  and  NBH_33 
ROOT
HETATM    1  CBD   D T1374      -1.308   2.323 -12.963  1.00 18.24     0.056 C 
HETATM    2  CBB   D T1374      -2.657   2.961 -13.181  1.00 13.77     0.109 C 
HETATM    3  NAW   D T1374      -3.830   2.337 -12.545  1.00 11.00    -0.326 N 
HETATM    4  CAV   D T1374      -4.125   0.989 -12.604  1.00  9.70     0.076 A 
HETATM    5  CAX   D T1374      -4.890   2.943 -12.052  1.00 10.89     0.060 A 
HETATM    6  CAY   D T1374      -5.156   4.313 -11.851  1.00 13.31     0.017 A 
HETATM    7  CAZ   D T1374      -6.385   4.694 -11.269  1.00 12.88     0.002 A 
HETATM    8  CAP   D T1374      -7.344   3.762 -10.865  1.00 12.85     0.000 A 
HETATM    9  CAO   D T1374      -7.087   2.385 -11.081  1.00 12.21     0.002 A 
HETATM   10  CAN   D T1374      -5.849   1.985 -11.690  1.00 11.16     0.017 A 
HETATM   11  CAM   D T1374      -5.318   0.734 -12.000  1.00 10.47     0.023 A 
HETATM   12  CAH   D T1374      -5.898  -0.589 -12.003  1.00 11.61     0.064 A 
HETATM   13  CAE   D T1374      -7.244  -0.871 -12.413  1.00 11.67     0.282 A 
HETATM   14  OAF   D T1374      -8.132  -0.049 -12.718  1.00 12.38    -0.265 OA
HETATM   15  NAD   D T1374      -7.476  -2.214 -12.428  1.00 11.58    -0.169 NA
HETATM   16  CAC   D T1374      -6.351  -2.806 -12.085  1.00 11.36     0.282 A 
HETATM   17  OAB   D T1374      -6.227  -4.040 -12.069  1.00 13.28    -0.265 OA
HETATM   18  CAG   D T1374      -5.314  -1.878 -11.775  1.00 10.54     0.064 A 
HETATM   19  CAL   D T1374      -3.948  -2.128 -11.419  1.00 12.92     0.023 A 
HETATM   20  CAU   D T1374      -3.214  -1.250 -10.682  1.00 12.44     0.076 A 
HETATM   21  CAK   D T1374      -3.055  -3.172 -11.768  1.00 12.61     0.017 A 
HETATM   22  CAJ   D T1374      -3.191  -4.379 -12.525  1.00 13.95     0.002 A 
HETATM   23  CAI   D T1374      -2.059  -5.187 -12.685  1.00 15.63     0.000 A 
HETATM   24  CAQ   D T1374      -0.814  -4.845 -12.133  1.00 14.37     0.002 A 
HETATM   25  CAR   D T1374      -0.681  -3.661 -11.404  1.00 13.26     0.017 A 
HETATM   26  CAS   D T1374      -1.810  -2.834 -11.232  1.00 11.92     0.060 A 
HETATM   27  NAT   D T1374      -1.939  -1.678 -10.578  1.00 12.89    -0.324 N 
HETATM   28  CBA   D T1374      -0.900  -0.876  -9.874  1.00 13.69     0.138 C 
HETATM   29  CBC   D T1374      -0.350   0.111 -10.915  1.00 16.12     0.167 C 
HETATM   30  OBE   D T1374      -1.254   1.239 -10.817  1.00 16.41    -0.352 OA
HETATM   31  CBF   D T1374      -0.847   2.429 -11.508  1.00 19.48     0.151 C 
ENDROOT
BRANCH  31  32
HETATM   32  CBG   D T1374      -1.581   3.524 -10.697  1.00 23.41     0.280 C 
BRANCH  32  33
HETATM   33  NBH   D T1374      -1.847   3.137  -9.272  1.00 26.24     0.144 N 
HETATM   34  CBI   D T1374      -0.872   3.803  -8.392  1.00 27.90     0.286 C 
HETATM   35  CBJ   D T1374      -3.158   3.657  -8.802  1.00 27.31     0.286 C 
ENDBRANCH  32  33
ENDBRANCH  31  32
TORSDOF 2
ENDMDL
MODEL 7
REMARK VINA RESULT:    -8.792      1.947      6.340
REMARK INTER + INTRA:         -10.347
REMARK INTER:                 -10.105
REMARK INTRA:                  -0.242
REMARK UNBOUND:                -0.527
REMARK  2 active torsions:
REMARK  status: ('A' for Active; 'I' for Inactive)
REMARK    1  A    between atoms: CBF_31  and  CBG_32 
REMARK    2  A    between atoms: CBG_32  and  NBH_33 
ROOT
HETATM    1  CBD   D T1374      -1.108  -0.733  -9.021  1.00 18.24     0.056 C 
HETATM    2  CBB   D T1374      -1.999  -1.857  -9.489  1.00 13.77     0.109 C 
HETATM    3  NAW   D T1374      -2.767  -1.662 -10.731  1.00 11.00    -0.326 N 
HETATM    4  CAV   D T1374      -3.528  -0.544 -11.011  1.00  9.70     0.076 A 
HETATM    5  CAX   D T1374      -3.066  -2.569 -11.637  1.00 10.89     0.060 A 
HETATM    6  CAY   D T1374      -2.641  -3.906 -11.775  1.00 13.31     0.017 A 
HETATM    7  CAZ   D T1374      -3.103  -4.661 -12.876  1.00 12.88     0.002 A 
HETATM    8  CAP   D T1374      -3.952  -4.128 -13.848  1.00 12.85     0.000 A 
HETATM    9  CAO   D T1374      -4.395  -2.789 -13.703  1.00 12.21     0.002 A 
HETATM   10  CAN   D T1374      -3.948  -2.015 -12.577  1.00 11.16     0.017 A 
HETATM   11  CAM   D T1374      -4.190  -0.699 -12.190  1.00 10.47     0.023 A 
HETATM   12  CAH   D T1374      -5.123   0.295 -12.667  1.00 11.61     0.064 A 
HETATM   13  CAE   D T1374      -6.462  -0.005 -13.090  1.00 11.67     0.282 A 
HETATM   14  OAF   D T1374      -6.985  -1.131 -13.212  1.00 12.38    -0.265 OA
HETATM   15  NAD   D T1374      -7.150   1.138 -13.372  1.00 11.58    -0.169 NA
HETATM   16  CAC   D T1374      -6.341   2.148 -13.124  1.00 11.36     0.282 A 
HETATM   17  OAB   D T1374      -6.704   3.330 -13.225  1.00 13.28    -0.265 OA
HETATM   18  CAG   D T1374      -5.047   1.725 -12.704  1.00 10.54     0.064 A 
HETATM   19  CAL   D T1374      -3.922   2.514 -12.293  1.00 12.92     0.023 A 
HETATM   20  CAU   D T1374      -2.641   2.069 -12.399  1.00 12.44     0.076 A 
HETATM   21  CAK   D T1374      -3.835   3.775 -11.652  1.00 12.61     0.017 A 
HETATM   22  CAJ   D T1374      -4.803   4.749 -11.247  1.00 13.95     0.002 A 
HETATM   23  CAI   D T1374      -4.345   5.905 -10.605  1.00 15.63     0.000 A 
HETATM   24  CAQ   D T1374      -2.982   6.126 -10.348  1.00 14.37     0.002 A 
HETATM   25  CAR   D T1374      -2.040   5.169 -10.733  1.00 13.26     0.017 A 
HETATM   26  CAS   D T1374      -2.482   3.998 -11.383  1.00 11.92     0.060 A 
HETATM   27  NAT   D T1374      -1.789   2.959 -11.851  1.00 12.89    -0.324 N 
HETATM   28  CBA   D T1374      -0.324   2.695 -11.773  1.00 13.69     0.138 C 
HETATM   29  CBC   D T1374      -0.107   1.887 -10.486  1.00 16.12     0.167 C 
HETATM   30  OBE   D T1374      -0.308   0.517 -10.914  1.00 16.41    -0.352 OA
HETATM   31  CBF   D T1374       0.069  -0.497  -9.969  1.00 19.48     0.151 C 
ENDROOT
BRANCH  31  32
HETATM   32  CBG   D T1374       0.371  -1.693 -10.903  1.00 23.41     0.280 C 
BRANCH  32  33
HETATM   33  NBH   D T1374       1.565  -2.497 -10.479  1.00 26.24     0.144 N 
HETATM   34  CBI   D T1374       2.036  -2.025  -9.166  1.00 27.90     0.286 C 
HETATM   35  CBJ   D T1374       1.206  -3.918 -10.235  1.00 27.31     0.286 C 
ENDBRANCH  32  33
ENDBRANCH  31  32
TORSDOF 2
ENDMDL
MODEL 8
REMARK VINA RESULT:    -8.784      1.920      5.237
REMARK INTER + INTRA:         -10.337
REMARK INTER:                  -9.808
REMARK INTRA:                  -0.529
REMARK UNBOUND:                -0.527
REMARK  2 active torsions:
REMARK  status: ('A' for Active; 'I' for Inactive)
REMARK    1  A    between atoms: CBF_31  and  CBG_32 
REMARK    2  A    between atoms: CBG_32  and  NBH_33 
ROOT
HETATM    1  CBD   D T1374      -5.573   0.617  -9.690  1.00 18.24     0.056 C 
HETATM    2  CBB   D T1374      -4.530   1.249  -8.802  1.00 13.77     0.109 C 
HETATM    3  NAW   D T1374      -3.114   1.098  -9.177  1.00 11.00    -0.326 N 
HETATM    4  CAV   D T1374      -2.522  -0.102  -9.523  1.00  9.70     0.076 A 
HETATM    5  CAX   D T1374      -2.145   1.973  -9.013  1.00 10.89     0.060 A 
HETATM    6  CAY   D T1374      -2.181   3.316  -8.589  1.00 13.31     0.017 A 
HETATM    7  CAZ   D T1374      -0.975   4.049  -8.526  1.00 12.88     0.002 A 
HETATM    8  CAP   D T1374       0.256   3.497  -8.890  1.00 12.85     0.000 A 
HETATM    9  CAO   D T1374       0.298   2.142  -9.301  1.00 12.21     0.002 A 
HETATM   10  CAN   D T1374      -0.919   1.380  -9.350  1.00 11.16     0.017 A 
HETATM   11  CAM   D T1374      -1.187   0.066  -9.727  1.00 10.47     0.023 A 
HETATM   12  CAH   D T1374      -0.322  -1.055 -10.015  1.00 11.61     0.064 A 
HETATM   13  CAE   D T1374       0.893  -1.329  -9.303  1.00 11.67     0.282 A 
HETATM   14  OAF   D T1374       1.437  -0.623  -8.429  1.00 12.38    -0.265 OA
HETATM   15  NAD   D T1374       1.437  -2.513  -9.706  1.00 11.58    -0.169 NA
HETATM   16  CAC   D T1374       0.625  -3.024 -10.609  1.00 11.36     0.282 A 
HETATM   17  OAB   D T1374       0.818  -4.137 -11.121  1.00 13.28    -0.265 OA
HETATM   18  CAG   D T1374      -0.487  -2.178 -10.889  1.00 10.54     0.064 A 
HETATM   19  CAL   D T1374      -1.604  -2.405 -11.760  1.00 12.92     0.023 A 
HETATM   20  CAU   D T1374      -2.308  -1.386 -12.324  1.00 12.44     0.076 A 
HETATM   21  CAK   D T1374      -2.271  -3.592 -12.152  1.00 12.61     0.017 A 
HETATM   22  CAJ   D T1374      -2.049  -4.983 -11.899  1.00 13.95     0.002 A 
HETATM   23  CAI   D T1374      -2.947  -5.905 -12.450  1.00 15.63     0.000 A 
HETATM   24  CAQ   D T1374      -4.045  -5.504 -13.228  1.00 14.37     0.002 A 
HETATM   25  CAR   D T1374      -4.266  -4.145 -13.465  1.00 13.26     0.017 A 
HETATM   26  CAS   D T1374      -3.372  -3.201 -12.919  1.00 11.92     0.060 A 
HETATM   27  NAT   D T1374      -3.363  -1.870 -13.011  1.00 12.89    -0.324 N 
HETATM   28  CBA   D T1374      -4.342  -0.968 -13.680  1.00 13.69     0.138 C 
HETATM   29  CBC   D T1374      -5.375  -0.594 -12.606  1.00 16.12     0.167 C 
HETATM   30  OBE   D T1374      -4.784   0.562 -11.962  1.00 16.41    -0.352 OA
HETATM   31  CBF   D T1374      -5.641   1.285 -11.065  1.00 19.48     0.151 C 
ENDROOT
BRANCH  31  32
HETATM   32  CBG   D T1374      -5.011   2.697 -11.107  1.00 23.41     0.280 C 
BRANCH  32  33
HETATM   33  NBH   D T1374      -4.222   2.965 -12.355  1.00 26.24     0.144 N 
HETATM   34  CBI   D T1374      -5.041   3.749 -13.296  1.00 27.90     0.286 C 
HETATM   35  CBJ   D T1374      -3.056   3.846 -12.084  1.00 27.31     0.286 C 
ENDBRANCH  32  33
ENDBRANCH  31  32
TORSDOF 2
ENDMDL
MODEL 9
REMARK VINA RESULT:    -8.631      1.877      6.359
REMARK INTER + INTRA:         -10.167
REMARK INTER:                  -9.910
REMARK INTRA:                  -0.257
REMARK UNBOUND:                -0.527
REMARK  2 active torsions:
REMARK  status: ('A' for Active; 'I' for Inactive)
REMARK    1  A    between atoms: CBF_31  and  CBG_32 
REMARK    2  A    between atoms: CBG_32  and  NBH_33 
ROOT
HETATM    1  CBD   D T1374      -1.135  -0.188  -8.256  1.00 18.24     0.056 C 
HETATM    2  CBB   D T1374      -2.156  -1.105  -8.882  1.00 13.77     0.109 C 
HETATM    3  NAW   D T1374      -2.752  -0.703 -10.168  1.00 11.00    -0.326 N 
HETATM    4  CAV   D T1374      -3.276   0.548 -10.429  1.00  9.70     0.076 A 
HETATM    5  CAX   D T1374      -3.112  -1.487 -11.162  1.00 10.89     0.060 A 
HETATM    6  CAY   D T1374      -2.913  -2.868 -11.363  1.00 13.31     0.017 A 
HETATM    7  CAZ   D T1374      -3.388  -3.463 -12.554  1.00 12.88     0.002 A 
HETATM    8  CAP   D T1374      -4.032  -2.729 -13.553  1.00 12.85     0.000 A 
HETATM    9  CAO   D T1374      -4.248  -1.344 -13.347  1.00 12.21     0.002 A 
HETATM   10  CAN   D T1374      -3.788  -0.730 -12.132  1.00 11.16     0.017 A 
HETATM   11  CAM   D T1374      -3.835   0.583 -11.669  1.00 10.47     0.023 A 
HETATM   12  CAH   D T1374      -4.531   1.754 -12.150  1.00 11.61     0.064 A 
HETATM   13  CAE   D T1374      -5.852   1.725 -12.709  1.00 11.67     0.282 A 
HETATM   14  OAF   D T1374      -6.548   0.720 -12.961  1.00 12.38    -0.265 OA
HETATM   15  NAD   D T1374      -6.301   2.988 -12.963  1.00 11.58    -0.169 NA
HETATM   16  CAC   D T1374      -5.359   3.820 -12.570  1.00 11.36     0.282 A 
HETATM   17  OAB   D T1374      -5.500   5.051 -12.614  1.00 13.28    -0.265 OA
HETATM   18  CAG   D T1374      -4.205   3.148 -12.072  1.00 10.54     0.064 A 
HETATM   19  CAL   D T1374      -3.006   3.697 -11.507  1.00 12.92     0.023 A 
HETATM   20  CAU   D T1374      -1.818   3.036 -11.534  1.00 12.44     0.076 A 
HETATM   21  CAK   D T1374      -2.767   4.882 -10.768  1.00 12.61     0.017 A 
HETATM   22  CAJ   D T1374      -3.586   5.989 -10.377  1.00 13.95     0.002 A 
HETATM   23  CAI   D T1374      -3.001   7.004  -9.612  1.00 15.63     0.000 A 
HETATM   24  CAQ   D T1374      -1.653   6.961  -9.221  1.00 14.37     0.002 A 
HETATM   25  CAR   D T1374      -0.858   5.876  -9.594  1.00 13.26     0.017 A 
HETATM   26  CAS   D T1374      -1.429   4.842 -10.366  1.00 11.92     0.060 A 
HETATM   27  NAT   D T1374      -0.883   3.725 -10.848  1.00 12.89    -0.324 N 
HETATM   28  CBA   D T1374       0.499   3.199 -10.664  1.00 13.69     0.138 C 
HETATM   29  CBC   D T1374       0.444   2.290  -9.426  1.00 16.12     0.167 C 
HETATM   30  OBE   D T1374       0.053   1.006  -9.972  1.00 16.41    -0.352 OA
HETATM   31  CBF   D T1374       0.153  -0.112  -9.077  1.00 19.48     0.151 C 
ENDROOT
BRANCH  31  32
HETATM   32  CBG   D T1374       0.335  -1.286 -10.068  1.00 23.41     0.280 C 
BRANCH  32  33
HETATM   33  NBH   D T1374       0.973  -2.496  -9.452  1.00 26.24     0.144 N 
HETATM   34  CBI   D T1374       0.956  -3.607 -10.419  1.00 27.90     0.286 C 
HETATM   35  CBJ   D T1374       2.420  -2.277  -9.193  1.00 27.31     0.286 C 
ENDBRANCH  32  33
ENDBRANCH  31  32
TORSDOF 2
ENDMDL
