MODEL 1
REMARK VINA RESULT:    -8.562      0.000      0.000
REMARK INTER + INTRA:          -9.773
REMARK INTER:                  -9.564
REMARK INTRA:                  -0.209
REMARK UNBOUND:                -0.209
REMARK  2 active torsions:
REMARK  status: ('A' for Active; 'I' for Inactive)
REMARK    1  A    between atoms: CBF_31  and  CBG_32 
REMARK    2  A    between atoms: CBG_32  and  NBH_33 
ROOT
HETATM    1  CBD   D T1374       7.705  -2.667  -3.415  1.00 18.24     0.056 C 
HETATM    2  CBB   D T1374       8.033  -2.192  -2.021  1.00 13.77     0.109 C 
HETATM    3  NAW   D T1374       8.837  -3.075  -1.160  1.00 11.00    -0.326 N 
HETATM    4  CAV   D T1374       8.582  -4.419  -0.965  1.00  9.70     0.076 A 
HETATM    5  CAX   D T1374       9.735  -2.720  -0.265  1.00 10.89     0.060 A 
HETATM    6  CAY   D T1374      10.292  -1.457   0.027  1.00 13.31     0.017 A 
HETATM    7  CAZ   D T1374      11.275  -1.359   1.036  1.00 12.88     0.002 A 
HETATM    8  CAP   D T1374      11.736  -2.472   1.744  1.00 12.85     0.000 A 
HETATM    9  CAO   D T1374      11.166  -3.739   1.464  1.00 12.21     0.002 A 
HETATM   10  CAN   D T1374      10.151  -3.850   0.454  1.00 11.16     0.017 A 
HETATM   11  CAM   D T1374       9.441  -4.940  -0.045  1.00 10.47     0.023 A 
HETATM   12  CAH   D T1374       9.328  -6.308   0.402  1.00 11.61     0.064 A 
HETATM   13  CAE   D T1374       9.280  -6.696   1.782  1.00 11.67     0.282 A 
HETATM   14  OAF   D T1374       9.431  -5.963   2.781  1.00 12.38    -0.265 OA
HETATM   15  NAD   D T1374       9.050  -8.034   1.905  1.00 11.58    -0.169 NA
HETATM   16  CAC   D T1374       8.915  -8.517   0.687  1.00 11.36     0.282 A 
HETATM   17  OAB   D T1374       8.632  -9.705   0.470  1.00 13.28    -0.265 OA
HETATM   18  CAG   D T1374       9.096  -7.524  -0.321  1.00 10.54     0.064 A 
HETATM   19  CAL   D T1374       8.975  -7.642  -1.744  1.00 12.92     0.023 A 
HETATM   20  CAU   D T1374       9.634  -6.817  -2.603  1.00 12.44     0.076 A 
HETATM   21  CAK   D T1374       8.166  -8.474  -2.558  1.00 12.61     0.017 A 
HETATM   22  CAJ   D T1374       7.244  -9.534  -2.284  1.00 13.95     0.002 A 
HETATM   23  CAI   D T1374       6.593 -10.136  -3.366  1.00 15.63     0.000 A 
HETATM   24  CAQ   D T1374       6.815  -9.730  -4.693  1.00 14.37     0.002 A 
HETATM   25  CAR   D T1374       7.707  -8.689  -4.956  1.00 13.26     0.017 A 
HETATM   26  CAS   D T1374       8.373  -8.068  -3.879  1.00 11.92     0.060 A 
HETATM   27  NAT   D T1374       9.266  -7.077  -3.875  1.00 12.89    -0.324 N 
HETATM   28  CBA   D T1374       9.787  -6.277  -5.019  1.00 13.69     0.138 C 
HETATM   29  CBC   D T1374       8.865  -5.055  -5.135  1.00 16.12     0.167 C 
HETATM   30  OBE   D T1374       9.461  -4.098  -4.225  1.00 16.41    -0.352 OA
HETATM   31  CBF   D T1374       8.949  -2.759  -4.301  1.00 19.48     0.151 C 
ENDROOT
BRANCH  31  32
HETATM   32  CBG   D T1374      10.152  -1.938  -3.778  1.00 23.41     0.280 C 
BRANCH  32  33
HETATM   33  NBH   D T1374      10.535  -0.798  -4.676  1.00 26.24     0.144 N 
HETATM   34  CBI   D T1374       9.319  -0.148  -5.193  1.00 27.90     0.286 C 
HETATM   35  CBJ   D T1374      11.218   0.285  -3.920  1.00 27.31     0.286 C 
ENDBRANCH  32  33
ENDBRANCH  31  32
TORSDOF 2
ENDMDL
MODEL 2
REMARK VINA RESULT:    -7.166      2.830      7.343
REMARK INTER + INTRA:          -8.213
REMARK INTER:                  -7.909
REMARK INTRA:                  -0.304
REMARK UNBOUND:                -0.209
REMARK  2 active torsions:
REMARK  status: ('A' for Active; 'I' for Inactive)
REMARK    1  A    between atoms: CBF_31  and  CBG_32 
REMARK    2  A    between atoms: CBG_32  and  NBH_33 
ROOT
HETATM    1  CBD   D T1374      10.088  -8.005  -1.382  1.00 18.24     0.056 C 
HETATM    2  CBB   D T1374       9.971  -9.101  -0.351  1.00 13.77     0.109 C 
HETATM    3  NAW   D T1374       9.566  -8.727   1.014  1.00 11.00    -0.326 N 
HETATM    4  CAV   D T1374      10.128  -7.693   1.740  1.00  9.70     0.076 A 
HETATM    5  CAX   D T1374       8.823  -9.424   1.848  1.00 10.89     0.060 A 
HETATM    6  CAY   D T1374       8.094 -10.615   1.654  1.00 13.31     0.017 A 
HETATM    7  CAZ   D T1374       7.347 -11.145   2.729  1.00 12.88     0.002 A 
HETATM    8  CAP   D T1374       7.285 -10.520   3.978  1.00 12.85     0.000 A 
HETATM    9  CAO   D T1374       8.031  -9.332   4.181  1.00 12.21     0.002 A 
HETATM   10  CAN   D T1374       8.811  -8.794   3.102  1.00 11.16     0.017 A 
HETATM   11  CAM   D T1374       9.608  -7.655   2.998  1.00 10.47     0.023 A 
HETATM   12  CAH   D T1374      10.092  -6.720   3.986  1.00 11.61     0.064 A 
HETATM   13  CAE   D T1374      10.509  -7.097   5.306  1.00 11.67     0.282 A 
HETATM   14  OAF   D T1374      10.425  -8.224   5.835  1.00 12.38    -0.265 OA
HETATM   15  NAD   D T1374      11.030  -6.030   5.976  1.00 11.58    -0.169 NA
HETATM   16  CAC   D T1374      11.001  -5.004   5.151  1.00 11.36     0.282 A 
HETATM   17  OAB   D T1374      11.471  -3.895   5.451  1.00 13.28    -0.265 OA
HETATM   18  CAG   D T1374      10.411  -5.326   3.893  1.00 10.54     0.064 A 
HETATM   19  CAL   D T1374      10.250  -4.506   2.728  1.00 12.92     0.023 A 
HETATM   20  CAU   D T1374       9.270  -4.727   1.811  1.00 12.44     0.076 A 
HETATM   21  CAK   D T1374      11.023  -3.435   2.212  1.00 12.61     0.017 A 
HETATM   22  CAJ   D T1374      12.180  -2.733   2.678  1.00 13.95     0.002 A 
HETATM   23  CAI   D T1374      12.698  -1.711   1.875  1.00 15.63     0.000 A 
HETATM   24  CAQ   D T1374      12.121  -1.365   0.641  1.00 14.37     0.002 A 
HETATM   25  CAR   D T1374      10.999  -2.058   0.184  1.00 13.26     0.017 A 
HETATM   26  CAS   D T1374      10.463  -3.093   0.979  1.00 11.92     0.060 A 
HETATM   27  NAT   D T1374       9.406  -3.881   0.768  1.00 12.89    -0.324 N 
HETATM   28  CBA   D T1374       8.502  -3.944  -0.415  1.00 13.69     0.138 C 
HETATM   29  CBC   D T1374       9.108  -4.997  -1.353  1.00 16.12     0.167 C 
HETATM   30  OBE   D T1374       8.534  -6.239  -0.877  1.00 16.41    -0.352 OA
HETATM   31  CBF   D T1374       8.731  -7.384  -1.721  1.00 19.48     0.151 C 
ENDROOT
BRANCH  31  32
HETATM   32  CBG   D T1374       7.523  -8.269  -1.329  1.00 23.41     0.280 C 
BRANCH  32  33
HETATM   33  NBH   D T1374       6.877  -8.952  -2.499  1.00 26.24     0.144 N 
HETATM   34  CBI   D T1374       7.235 -10.381  -2.494  1.00 27.90     0.286 C 
HETATM   35  CBJ   D T1374       5.395  -8.960  -2.375  1.00 27.31     0.286 C 
ENDBRANCH  32  33
ENDBRANCH  31  32
TORSDOF 2
ENDMDL
MODEL 3
REMARK VINA RESULT:    -6.916      2.388      3.980
REMARK INTER + INTRA:          -7.933
REMARK INTER:                  -7.581
REMARK INTRA:                  -0.353
REMARK UNBOUND:                -0.209
REMARK  2 active torsions:
REMARK  status: ('A' for Active; 'I' for Inactive)
REMARK    1  A    between atoms: CBF_31  and  CBG_32 
REMARK    2  A    between atoms: CBG_32  and  NBH_33 
ROOT
HETATM    1  CBD   D T1374       8.231  -4.140  -1.245  1.00 18.24     0.056 C 
HETATM    2  CBB   D T1374       8.796  -3.008  -0.422  1.00 13.77     0.109 C 
HETATM    3  NAW   D T1374       9.766  -3.337   0.635  1.00 11.00    -0.326 N 
HETATM    4  CAV   D T1374       9.586  -4.330   1.579  1.00  9.70     0.076 A 
HETATM    5  CAX   D T1374      10.803  -2.623   1.021  1.00 10.89     0.060 A 
HETATM    6  CAY   D T1374      11.371  -1.455   0.471  1.00 13.31     0.017 A 
HETATM    7  CAZ   D T1374      12.518  -0.900   1.077  1.00 12.88     0.002 A 
HETATM    8  CAP   D T1374      13.130  -1.477   2.194  1.00 12.85     0.000 A 
HETATM    9  CAO   D T1374      12.552  -2.641   2.759  1.00 12.21     0.002 A 
HETATM   10  CAN   D T1374      11.372  -3.205   2.164  1.00 11.16     0.017 A 
HETATM   11  CAM   D T1374      10.611  -4.330   2.475  1.00 10.47     0.023 A 
HETATM   12  CAH   D T1374      10.618  -5.217   3.614  1.00 11.61     0.064 A 
HETATM   13  CAE   D T1374      10.832  -4.781   4.964  1.00 11.67     0.282 A 
HETATM   14  OAF   D T1374      11.144  -3.636   5.351  1.00 12.38    -0.265 OA
HETATM   15  NAD   D T1374      10.663  -5.810   5.842  1.00 11.58    -0.169 NA
HETATM   16  CAC   D T1374      10.321  -6.868   5.135  1.00 11.36     0.282 A 
HETATM   17  OAB   D T1374      10.033  -7.955   5.661  1.00 13.28    -0.265 OA
HETATM   18  CAG   D T1374      10.289  -6.607   3.734  1.00 10.54     0.064 A 
HETATM   19  CAL   D T1374       9.914  -7.474   2.656  1.00 12.92     0.023 A 
HETATM   20  CAU   D T1374      10.383  -7.308   1.389  1.00 12.44     0.076 A 
HETATM   21  CAK   D T1374       8.991  -8.548   2.584  1.00 12.61     0.017 A 
HETATM   22  CAJ   D T1374       8.163  -9.208   3.547  1.00 13.95     0.002 A 
HETATM   23  CAI   D T1374       7.340 -10.250   3.103  1.00 15.63     0.000 A 
HETATM   24  CAQ   D T1374       7.307 -10.654   1.758  1.00 14.37     0.002 A 
HETATM   25  CAR   D T1374       8.108 -10.002   0.820  1.00 13.26     0.017 A 
HETATM   26  CAS   D T1374       8.943  -8.948   1.247  1.00 11.92     0.060 A 
HETATM   27  NAT   D T1374       9.795  -8.191   0.554  1.00 12.89    -0.324 N 
HETATM   28  CBA   D T1374      10.079  -8.192  -0.909  1.00 13.69     0.138 C 
HETATM   29  CBC   D T1374       9.119  -7.163  -1.524  1.00 16.12     0.167 C 
HETATM   30  OBE   D T1374       9.846  -5.915  -1.408  1.00 16.41    -0.352 OA
HETATM   31  CBF   D T1374       9.295  -4.800  -2.124  1.00 19.48     0.151 C 
ENDROOT
BRANCH  31  32
HETATM   32  CBG   D T1374      10.551  -3.926  -2.350  1.00 23.41     0.280 C 
BRANCH  32  33
HETATM   33  NBH   D T1374      10.619  -3.316  -3.720  1.00 26.24     0.144 N 
HETATM   34  CBI   D T1374       9.774  -4.090  -4.646  1.00 27.90     0.286 C 
HETATM   35  CBJ   D T1374      10.014  -1.958  -3.743  1.00 27.31     0.286 C 
ENDBRANCH  32  33
ENDBRANCH  31  32
TORSDOF 2
ENDMDL
MODEL 4
REMARK VINA RESULT:    -6.562      2.660      7.099
REMARK INTER + INTRA:          -7.538
REMARK INTER:                  -7.213
REMARK INTRA:                  -0.324
REMARK UNBOUND:                -0.209
REMARK  2 active torsions:
REMARK  status: ('A' for Active; 'I' for Inactive)
REMARK    1  A    between atoms: CBF_31  and  CBG_32 
REMARK    2  A    between atoms: CBG_32  and  NBH_33 
ROOT
HETATM    1  CBD   D T1374      10.739  -8.169  -0.468  1.00 18.24     0.056 C 
HETATM    2  CBB   D T1374      10.946  -8.507   0.988  1.00 13.77     0.109 C 
HETATM    3  NAW   D T1374      10.691  -7.456   1.987  1.00 11.00    -0.326 N 
HETATM    4  CAV   D T1374      11.185  -6.167   1.907  1.00  9.70     0.076 A 
HETATM    5  CAX   D T1374      10.196  -7.604   3.197  1.00 10.89     0.060 A 
HETATM    6  CAY   D T1374       9.641  -8.734   3.831  1.00 13.31     0.017 A 
HETATM    7  CAZ   D T1374       9.151  -8.610   5.149  1.00 12.88     0.002 A 
HETATM    8  CAP   D T1374       9.175  -7.398   5.846  1.00 12.85     0.000 A 
HETATM    9  CAO   D T1374       9.748  -6.265   5.218  1.00 12.21     0.002 A 
HETATM   10  CAN   D T1374      10.268  -6.383   3.885  1.00 11.16     0.017 A 
HETATM   11  CAM   D T1374      10.855  -5.459   3.022  1.00 10.47     0.023 A 
HETATM   12  CAH   D T1374      11.325  -4.109   3.225  1.00 11.61     0.064 A 
HETATM   13  CAE   D T1374      11.984  -3.664   4.420  1.00 11.67     0.282 A 
HETATM   14  OAF   D T1374      12.155  -4.307   5.476  1.00 12.38    -0.265 OA
HETATM   15  NAD   D T1374      12.425  -2.382   4.285  1.00 11.58    -0.169 NA
HETATM   16  CAC   D T1374      12.116  -1.993   3.064  1.00 11.36     0.282 A 
HETATM   17  OAB   D T1374      12.446  -0.884   2.616  1.00 13.28    -0.265 OA
HETATM   18  CAG   D T1374      11.406  -2.991   2.333  1.00 10.54     0.064 A 
HETATM   19  CAL   D T1374      10.952  -2.969   0.974  1.00 12.92     0.023 A 
HETATM   20  CAU   D T1374       9.895  -3.712   0.546  1.00 12.44     0.076 A 
HETATM   21  CAK   D T1374      11.464  -2.333  -0.185  1.00 12.61     0.017 A 
HETATM   22  CAJ   D T1374      12.553  -1.434  -0.422  1.00 13.95     0.002 A 
HETATM   23  CAI   D T1374      12.783  -1.010  -1.735  1.00 15.63     0.000 A 
HETATM   24  CAQ   D T1374      11.986  -1.440  -2.809  1.00 14.37     0.002 A 
HETATM   25  CAR   D T1374      10.931  -2.325  -2.577  1.00 13.26     0.017 A 
HETATM   26  CAS   D T1374      10.684  -2.764  -1.259  1.00 11.92     0.060 A 
HETATM   27  NAT   D T1374       9.744  -3.586  -0.789  1.00 12.89    -0.324 N 
HETATM   28  CBA   D T1374       8.698  -4.343  -1.533  1.00 13.69     0.138 C 
HETATM   29  CBC   D T1374       9.317  -5.709  -1.859  1.00 16.12     0.167 C 
HETATM   30  OBE   D T1374       9.019  -6.501  -0.682  1.00 16.41    -0.352 OA
HETATM   31  CBF   D T1374       9.267  -7.910  -0.796  1.00 19.48     0.151 C 
ENDROOT
BRANCH  31  32
HETATM   32  CBG   D T1374       8.282  -8.484   0.250  1.00 23.41     0.280 C 
BRANCH  32  33
HETATM   33  NBH   D T1374       7.328  -9.495  -0.316  1.00 26.24     0.144 N 
HETATM   34  CBI   D T1374       6.523  -8.870  -1.379  1.00 27.90     0.286 C 
HETATM   35  CBJ   D T1374       8.048 -10.591  -1.017  1.00 27.31     0.286 C 
ENDBRANCH  32  33
ENDBRANCH  31  32
TORSDOF 2
ENDMDL
MODEL 5
REMARK VINA RESULT:    -6.542      2.578      7.161
REMARK INTER + INTRA:          -7.516
REMARK INTER:                  -6.981
REMARK INTRA:                  -0.534
REMARK UNBOUND:                -0.209
REMARK  2 active torsions:
REMARK  status: ('A' for Active; 'I' for Inactive)
REMARK    1  A    between atoms: CBF_31  and  CBG_32 
REMARK    2  A    between atoms: CBG_32  and  NBH_33 
ROOT
HETATM    1  CBD   D T1374       9.188  -4.822   4.325  1.00 18.24     0.056 C 
HETATM    2  CBB   D T1374       8.874  -6.298   4.347  1.00 13.77     0.109 C 
HETATM    3  NAW   D T1374       9.359  -7.126   3.230  1.00 11.00    -0.326 N 
HETATM    4  CAV   D T1374       9.199  -6.807   1.895  1.00  9.70     0.076 A 
HETATM    5  CAX   D T1374       9.777  -8.373   3.281  1.00 10.89     0.060 A 
HETATM    6  CAY   D T1374      10.024  -9.215   4.385  1.00 13.31     0.017 A 
HETATM    7  CAZ   D T1374      10.502 -10.524   4.155  1.00 12.88     0.002 A 
HETATM    8  CAP   D T1374      10.763 -11.012   2.871  1.00 12.85     0.000 A 
HETATM    9  CAO   D T1374      10.499 -10.173   1.760  1.00 12.21     0.002 A 
HETATM   10  CAN   D T1374       9.993  -8.847   1.978  1.00 11.16     0.017 A 
HETATM   11  CAM   D T1374       9.670  -7.811   1.104  1.00 10.47     0.023 A 
HETATM   12  CAH   D T1374       9.542  -7.762  -0.333  1.00 11.61     0.064 A 
HETATM   13  CAE   D T1374       8.988  -8.825  -1.122  1.00 11.67     0.282 A 
HETATM   14  OAF   D T1374       8.643  -9.959  -0.731  1.00 12.38    -0.265 OA
HETATM   15  NAD   D T1374       8.879  -8.456  -2.429  1.00 11.58    -0.169 NA
HETATM   16  CAC   D T1374       9.299  -7.211  -2.516  1.00 11.36     0.282 A 
HETATM   17  OAB   D T1374       9.261  -6.568  -3.577  1.00 13.28    -0.265 OA
HETATM   18  CAG   D T1374       9.757  -6.697  -1.267  1.00 10.54     0.064 A 
HETATM   19  CAL   D T1374      10.230  -5.383  -0.944  1.00 12.92     0.023 A 
HETATM   20  CAU   D T1374      11.081  -5.149   0.092  1.00 12.44     0.076 A 
HETATM   21  CAK   D T1374       9.914  -4.107  -1.474  1.00 12.61     0.017 A 
HETATM   22  CAJ   D T1374       9.085  -3.660  -2.552  1.00 13.95     0.002 A 
HETATM   23  CAI   D T1374       8.994  -2.283  -2.785  1.00 15.63     0.000 A 
HETATM   24  CAQ   D T1374       9.682  -1.345  -1.998  1.00 14.37     0.002 A 
HETATM   25  CAR   D T1374      10.482  -1.783  -0.941  1.00 13.26     0.017 A 
HETATM   26  CAS   D T1374      10.586  -3.167  -0.689  1.00 11.92     0.060 A 
HETATM   27  NAT   D T1374      11.285  -3.823   0.239  1.00 12.89    -0.324 N 
HETATM   28  CBA   D T1374      12.128  -3.278   1.340  1.00 13.69     0.138 C 
HETATM   29  CBC   D T1374      11.199  -3.141   2.555  1.00 16.12     0.167 C 
HETATM   30  OBE   D T1374      11.269  -4.447   3.179  1.00 16.41    -0.352 OA
HETATM   31  CBF   D T1374      10.684  -4.548   4.486  1.00 19.48     0.151 C 
ENDROOT
BRANCH  31  32
HETATM   32  CBG   D T1374      11.476  -5.733   5.088  1.00 23.41     0.280 C 
BRANCH  32  33
HETATM   33  NBH   D T1374      12.847  -5.898   4.499  1.00 26.24     0.144 N 
HETATM   34  CBI   D T1374      13.853  -5.382   5.443  1.00 27.90     0.286 C 
HETATM   35  CBJ   D T1374      13.206  -7.334   4.351  1.00 27.31     0.286 C 
ENDBRANCH  32  33
ENDBRANCH  31  32
TORSDOF 2
ENDMDL
MODEL 6
REMARK VINA RESULT:    -6.527      2.505      6.585
REMARK INTER + INTRA:          -7.500
REMARK INTER:                  -6.968
REMARK INTRA:                  -0.531
REMARK UNBOUND:                -0.209
REMARK  2 active torsions:
REMARK  status: ('A' for Active; 'I' for Inactive)
REMARK    1  A    between atoms: CBF_31  and  CBG_32 
REMARK    2  A    between atoms: CBG_32  and  NBH_33 
ROOT
HETATM    1  CBD   D T1374      12.104  -8.920   0.194  1.00 18.24     0.056 C 
HETATM    2  CBB   D T1374      12.525  -8.350   1.526  1.00 13.77     0.109 C 
HETATM    3  NAW   D T1374      11.862  -7.121   1.994  1.00 11.00    -0.326 N 
HETATM    4  CAV   D T1374      11.689  -5.986   1.225  1.00  9.70     0.076 A 
HETATM    5  CAX   D T1374      11.561  -6.796   3.234  1.00 10.89     0.060 A 
HETATM    6  CAY   D T1374      11.636  -7.547   4.424  1.00 13.31     0.017 A 
HETATM    7  CAZ   D T1374      11.217  -6.954   5.636  1.00 12.88     0.002 A 
HETATM    8  CAP   D T1374      10.709  -5.654   5.697  1.00 12.85     0.000 A 
HETATM    9  CAO   D T1374      10.648  -4.891   4.505  1.00 12.21     0.002 A 
HETATM   10  CAN   D T1374      11.090  -5.475   3.269  1.00 11.16     0.017 A 
HETATM   11  CAM   D T1374      11.127  -4.990   1.963  1.00 10.47     0.023 A 
HETATM   12  CAH   D T1374      10.919  -3.670   1.415  1.00 11.61     0.064 A 
HETATM   13  CAE   D T1374      11.357  -2.462   2.055  1.00 11.67     0.282 A 
HETATM   14  OAF   D T1374      11.866  -2.346   3.188  1.00 12.38    -0.265 OA
HETATM   15  NAD   D T1374      11.136  -1.380   1.256  1.00 11.58    -0.169 NA
HETATM   16  CAC   D T1374      10.616  -1.828   0.132  1.00 11.36     0.282 A 
HETATM   17  OAB   D T1374      10.362  -1.084  -0.827  1.00 13.28    -0.265 OA
HETATM   18  CAG   D T1374      10.418  -3.241   0.144  1.00 10.54     0.064 A 
HETATM   19  CAL   D T1374       9.933  -4.098  -0.898  1.00 12.92     0.023 A 
HETATM   20  CAU   D T1374       9.326  -5.288  -0.639  1.00 12.44     0.076 A 
HETATM   21  CAK   D T1374      10.023  -4.015  -2.310  1.00 12.61     0.017 A 
HETATM   22  CAJ   D T1374      10.549  -3.036  -3.213  1.00 13.95     0.002 A 
HETATM   23  CAI   D T1374      10.481  -3.303  -4.585  1.00 15.63     0.000 A 
HETATM   24  CAQ   D T1374       9.921  -4.489  -5.089  1.00 14.37     0.002 A 
HETATM   25  CAR   D T1374       9.419  -5.446  -4.206  1.00 13.26     0.017 A 
HETATM   26  CAS   D T1374       9.479  -5.196  -2.819  1.00 11.92     0.060 A 
HETATM   27  NAT   D T1374       9.061  -5.938  -1.792  1.00 12.89    -0.324 N 
HETATM   28  CBA   D T1374       8.453  -7.299  -1.801  1.00 13.69     0.138 C 
HETATM   29  CBC   D T1374       9.622  -8.284  -1.660  1.00 16.12     0.167 C 
HETATM   30  OBE   D T1374       9.795  -8.397  -0.226  1.00 16.41    -0.352 OA
HETATM   31  CBF   D T1374      10.668  -9.446   0.219  1.00 19.48     0.151 C 
ENDROOT
BRANCH  31  32
HETATM   32  CBG   D T1374      10.126  -9.717   1.643  1.00 23.41     0.280 C 
BRANCH  32  33
HETATM   33  NBH   D T1374       8.684  -9.337   1.817  1.00 26.24     0.144 N 
HETATM   34  CBI   D T1374       7.839 -10.536   1.679  1.00 27.90     0.286 C 
HETATM   35  CBJ   D T1374       8.407  -8.868   3.200  1.00 27.31     0.286 C 
ENDBRANCH  32  33
ENDBRANCH  31  32
TORSDOF 2
ENDMDL
MODEL 7
REMARK VINA RESULT:    -6.406      2.370      5.981
REMARK INTER + INTRA:          -7.364
REMARK INTER:                  -7.023
REMARK INTRA:                  -0.341
REMARK UNBOUND:                -0.209
REMARK  2 active torsions:
REMARK  status: ('A' for Active; 'I' for Inactive)
REMARK    1  A    between atoms: CBF_31  and  CBG_32 
REMARK    2  A    between atoms: CBG_32  and  NBH_33 
ROOT
HETATM    1  CBD   D T1374      13.264  -3.644   2.091  1.00 18.24     0.056 C 
HETATM    2  CBB   D T1374      13.205  -3.363   0.610  1.00 13.77     0.109 C 
HETATM    3  NAW   D T1374      11.980  -3.736  -0.118  1.00 11.00    -0.326 N 
HETATM    4  CAV   D T1374      11.362  -4.969  -0.024  1.00  9.70     0.076 A 
HETATM    5  CAX   D T1374      11.426  -3.103  -1.130  1.00 10.89     0.060 A 
HETATM    6  CAY   D T1374      11.726  -1.853  -1.708  1.00 13.31     0.017 A 
HETATM    7  CAZ   D T1374      10.942  -1.390  -2.787  1.00 12.88     0.002 A 
HETATM    8  CAP   D T1374       9.862  -2.117  -3.294  1.00 12.85     0.000 A 
HETATM    9  CAO   D T1374       9.568  -3.382  -2.727  1.00 12.21     0.002 A 
HETATM   10  CAN   D T1374      10.370  -3.873  -1.642  1.00 11.16     0.017 A 
HETATM   11  CAM   D T1374      10.309  -5.042  -0.884  1.00 10.47     0.023 A 
HETATM   12  CAH   D T1374       9.546  -6.258  -1.042  1.00 11.61     0.064 A 
HETATM   13  CAE   D T1374       9.267  -6.866  -2.311  1.00 11.67     0.282 A 
HETATM   14  OAF   D T1374       9.528  -6.412  -3.444  1.00 12.38    -0.265 OA
HETATM   15  NAD   D T1374       8.637  -8.064  -2.150  1.00 11.58    -0.169 NA
HETATM   16  CAC   D T1374       8.527  -8.271  -0.854  1.00 11.36     0.282 A 
HETATM   17  OAB   D T1374       8.049  -9.316  -0.386  1.00 13.28    -0.265 OA
HETATM   18  CAG   D T1374       9.042  -7.190  -0.078  1.00 10.54     0.064 A 
HETATM   19  CAL   D T1374       9.153  -7.066   1.345  1.00 12.92     0.023 A 
HETATM   20  CAU   D T1374       9.178  -5.858   1.972  1.00 12.44     0.076 A 
HETATM   21  CAK   D T1374       9.345  -8.030   2.366  1.00 12.61     0.017 A 
HETATM   22  CAJ   D T1374       9.423  -9.460   2.378  1.00 13.95     0.002 A 
HETATM   23  CAI   D T1374       9.644 -10.098   3.603  1.00 15.63     0.000 A 
HETATM   24  CAQ   D T1374       9.792  -9.381   4.803  1.00 14.37     0.002 A 
HETATM   25  CAR   D T1374       9.726  -7.987   4.787  1.00 13.26     0.017 A 
HETATM   26  CAS   D T1374       9.505  -7.325   3.561  1.00 11.92     0.060 A 
HETATM   27  NAT   D T1374       9.392  -6.022   3.294  1.00 12.89    -0.324 N 
HETATM   28  CBA   D T1374       9.528  -4.859   4.215  1.00 13.69     0.138 C 
HETATM   29  CBC   D T1374      11.006  -4.445   4.156  1.00 16.12     0.167 C 
HETATM   30  OBE   D T1374      11.053  -3.532   3.033  1.00 16.41    -0.352 OA
HETATM   31  CBF   D T1374      12.272  -2.788   2.881  1.00 19.48     0.151 C 
ENDROOT
BRANCH  31  32
HETATM   32  CBG   D T1374      11.778  -1.537   2.117  1.00 23.41     0.280 C 
BRANCH  32  33
HETATM   33  NBH   D T1374      12.411  -0.259   2.586  1.00 26.24     0.144 N 
HETATM   34  CBI   D T1374      12.900  -0.430   3.965  1.00 27.90     0.286 C 
HETATM   35  CBJ   D T1374      13.642   0.056   1.813  1.00 27.31     0.286 C 
ENDBRANCH  32  33
ENDBRANCH  31  32
TORSDOF 2
ENDMDL
MODEL 8
REMARK VINA RESULT:    -6.206      2.841      8.615
REMARK INTER + INTRA:          -7.141
REMARK INTER:                  -6.609
REMARK INTRA:                  -0.532
REMARK UNBOUND:                -0.209
REMARK  2 active torsions:
REMARK  status: ('A' for Active; 'I' for Inactive)
REMARK    1  A    between atoms: CBF_31  and  CBG_32 
REMARK    2  A    between atoms: CBG_32  and  NBH_33 
ROOT
HETATM    1  CBD   D T1374       9.677  -8.366   4.054  1.00 18.24     0.056 C 
HETATM    2  CBB   D T1374       8.789  -8.379   2.834  1.00 13.77     0.109 C 
HETATM    3  NAW   D T1374       9.174  -7.540   1.687  1.00 11.00    -0.326 N 
HETATM    4  CAV   D T1374       9.534  -6.209   1.779  1.00  9.70     0.076 A 
HETATM    5  CAX   D T1374       9.008  -7.807   0.408  1.00 10.89     0.060 A 
HETATM    6  CAY   D T1374       8.571  -8.982  -0.236  1.00 13.31     0.017 A 
HETATM    7  CAZ   D T1374       8.509  -9.008  -1.646  1.00 12.88     0.002 A 
HETATM    8  CAP   D T1374       8.886  -7.915  -2.433  1.00 12.85     0.000 A 
HETATM    9  CAO   D T1374       9.309  -6.727  -1.788  1.00 12.21     0.002 A 
HETATM   10  CAN   D T1374       9.358  -6.681  -0.353  1.00 11.16     0.017 A 
HETATM   11  CAM   D T1374       9.745  -5.684   0.541  1.00 10.47     0.023 A 
HETATM   12  CAH   D T1374      10.049  -4.285   0.356  1.00 11.61     0.064 A 
HETATM   13  CAE   D T1374       9.346  -3.428  -0.555  1.00 11.67     0.282 A 
HETATM   14  OAF   D T1374       8.470  -3.756  -1.381  1.00 12.38    -0.265 OA
HETATM   15  NAD   D T1374       9.763  -2.137  -0.431  1.00 11.58    -0.169 NA
HETATM   16  CAC   D T1374      10.666  -2.112   0.528  1.00 11.36     0.282 A 
HETATM   17  OAB   D T1374      11.190  -1.059   0.921  1.00 13.28    -0.265 OA
HETATM   18  CAG   D T1374      10.932  -3.407   1.065  1.00 10.54     0.064 A 
HETATM   19  CAL   D T1374      11.798  -3.782   2.144  1.00 12.92     0.023 A 
HETATM   20  CAU   D T1374      12.349  -5.022   2.240  1.00 12.44     0.076 A 
HETATM   21  CAK   D T1374      12.196  -3.095   3.319  1.00 12.61     0.017 A 
HETATM   22  CAJ   D T1374      11.957  -1.778   3.826  1.00 13.95     0.002 A 
HETATM   23  CAI   D T1374      12.511  -1.439   5.065  1.00 15.63     0.000 A 
HETATM   24  CAQ   D T1374      13.280  -2.347   5.813  1.00 14.37     0.002 A 
HETATM   25  CAR   D T1374      13.503  -3.633   5.321  1.00 13.26     0.017 A 
HETATM   26  CAS   D T1374      12.952  -3.994   4.073  1.00 11.92     0.060 A 
HETATM   27  NAT   D T1374      13.034  -5.142   3.396  1.00 12.89    -0.324 N 
HETATM   28  CBA   D T1374      13.688  -6.421   3.790  1.00 13.69     0.138 C 
HETATM   29  CBC   D T1374      12.604  -7.251   4.493  1.00 16.12     0.167 C 
HETATM   30  OBE   D T1374      11.954  -7.946   3.401  1.00 16.41    -0.352 OA
HETATM   31  CBF   D T1374      11.045  -8.992   3.778  1.00 19.48     0.151 C 
ENDROOT
BRANCH  31  32
HETATM   32  CBG   D T1374      11.078  -9.897   2.523  1.00 23.41     0.280 C 
BRANCH  32  33
HETATM   33  NBH   D T1374      12.363  -9.808   1.753  1.00 26.24     0.144 N 
HETATM   34  CBI   D T1374      13.146 -11.038   1.958  1.00 27.90     0.286 C 
HETATM   35  CBJ   D T1374      12.120  -9.785   0.286  1.00 27.31     0.286 C 
ENDBRANCH  32  33
ENDBRANCH  31  32
TORSDOF 2
ENDMDL
MODEL 9
REMARK VINA RESULT:    -6.143      2.717      6.477
REMARK INTER + INTRA:          -7.071
REMARK INTER:                  -6.815
REMARK INTRA:                  -0.256
REMARK UNBOUND:                -0.209
REMARK  2 active torsions:
REMARK  status: ('A' for Active; 'I' for Inactive)
REMARK    1  A    between atoms: CBF_31  and  CBG_32 
REMARK    2  A    between atoms: CBG_32  and  NBH_33 
ROOT
HETATM    1  CBD   D T1374       7.834  -7.356  -0.369  1.00 18.24     0.056 C 
HETATM    2  CBB   D T1374       7.693  -5.936  -0.861  1.00 13.77     0.109 C 
HETATM    3  NAW   D T1374       8.841  -5.028  -0.694  1.00 11.00    -0.326 N 
HETATM    4  CAV   D T1374       9.544  -4.867   0.485  1.00  9.70     0.076 A 
HETATM    5  CAX   D T1374       9.226  -4.067  -1.507  1.00 10.89     0.060 A 
HETATM    6  CAY   D T1374       8.778  -3.721  -2.798  1.00 13.31     0.017 A 
HETATM    7  CAZ   D T1374       9.392  -2.642  -3.470  1.00 12.88     0.002 A 
HETATM    8  CAP   D T1374      10.447  -1.914  -2.912  1.00 12.85     0.000 A 
HETATM    9  CAO   D T1374      10.888  -2.249  -1.608  1.00 12.21     0.002 A 
HETATM   10  CAN   D T1374      10.258  -3.331  -0.905  1.00 11.16     0.017 A 
HETATM   11  CAM   D T1374      10.486  -3.893   0.350  1.00 10.47     0.023 A 
HETATM   12  CAH   D T1374      11.299  -3.470   1.466  1.00 11.61     0.064 A 
HETATM   13  CAE   D T1374      11.459  -2.101   1.864  1.00 11.67     0.282 A 
HETATM   14  OAF   D T1374      11.033  -1.086   1.277  1.00 12.38    -0.265 OA
HETATM   15  NAD   D T1374      12.180  -2.010   3.017  1.00 11.58    -0.169 NA
HETATM   16  CAC   D T1374      12.461  -3.240   3.396  1.00 11.36     0.282 A 
HETATM   17  OAB   D T1374      13.057  -3.489   4.455  1.00 13.28    -0.265 OA
HETATM   18  CAG   D T1374      11.976  -4.221   2.481  1.00 10.54     0.064 A 
HETATM   19  CAL   D T1374      12.032  -5.650   2.569  1.00 12.92     0.023 A 
HETATM   20  CAU   D T1374      12.007  -6.450   1.468  1.00 12.44     0.076 A 
HETATM   21  CAK   D T1374      12.029  -6.530   3.680  1.00 12.61     0.017 A 
HETATM   22  CAJ   D T1374      12.045  -6.336   5.098  1.00 13.95     0.002 A 
HETATM   23  CAI   D T1374      12.017  -7.469   5.919  1.00 15.63     0.000 A 
HETATM   24  CAQ   D T1374      11.971  -8.771   5.393  1.00 14.37     0.002 A 
HETATM   25  CAR   D T1374      11.946  -8.958   4.010  1.00 13.26     0.017 A 
HETATM   26  CAS   D T1374      11.972  -7.828   3.166  1.00 11.92     0.060 A 
HETATM   27  NAT   D T1374      11.968  -7.748   1.834  1.00 12.89    -0.324 N 
HETATM   28  CBA   D T1374      11.872  -8.843   0.827  1.00 13.69     0.138 C 
HETATM   29  CBC   D T1374      10.375  -9.012   0.531  1.00 16.12     0.167 C 
HETATM   30  OBE   D T1374      10.132  -8.050  -0.526  1.00 16.41    -0.352 OA
HETATM   31  CBF   D T1374       8.858  -8.149  -1.182  1.00 19.48     0.151 C 
ENDROOT
BRANCH  31  32
HETATM   32  CBG   D T1374       9.174  -7.531  -2.565  1.00 23.41     0.280 C 
BRANCH  32  33
HETATM   33  NBH   D T1374       8.879  -8.450  -3.714  1.00 26.24     0.144 N 
HETATM   34  CBI   D T1374       7.489  -8.927  -3.618  1.00 27.90     0.286 C 
HETATM   35  CBJ   D T1374       8.914  -7.728  -5.013  1.00 27.31     0.286 C 
ENDBRANCH  32  33
ENDBRANCH  31  32
TORSDOF 2
ENDMDL
