MODEL 1
REMARK VINA RESULT:    -7.834      0.000      0.000
REMARK INTER + INTRA:         -11.743
REMARK INTER:                 -10.582
REMARK INTRA:                  -1.162
REMARK UNBOUND:                -1.162
REMARK  6 active torsions:
REMARK  status: ('A' for Active; 'I' for Inactive)
REMARK    1  A    between atoms: NBC_2  and  CBB_4 
REMARK    2  A    between atoms: CBB_4  and  CBA_5 
REMARK    3  A    between atoms: CBA_5  and  CAY_6 
REMARK    4  A    between atoms: CAY_6  and  NAH_7 
REMARK    5  A    between atoms: CAG_15  and  CAI_16 
REMARK    6  A    between atoms: CAJ_22  and  CAK_23 
ROOT
HETATM    1  CAI   D T1368      -4.674  -4.338  -5.989  1.00 47.54     0.064 A 
HETATM    2  CAT   D T1368      -3.529  -3.588  -5.729  1.00 46.36     0.282 A 
HETATM    3  OAZ   D T1368      -3.393  -2.370  -5.803  1.00 44.28    -0.265 OA
HETATM    4  NAU   D T1368      -2.605  -4.464  -5.337  1.00 46.45    -0.169 NA
HETATM    5  CAV   D T1368      -3.037  -5.724  -5.315  1.00 47.61     0.282 A 
HETATM    6  OAX   D T1368      -2.403  -6.715  -4.964  1.00 47.90    -0.265 OA
HETATM    7  CAJ   D T1368      -4.362  -5.670  -5.738  1.00 48.30     0.064 A 
ENDROOT
BRANCH   1   8
HETATM    8  CAG   D T1368      -5.913  -3.790  -6.315  1.00 49.01     0.023 A 
HETATM    9  CAW   D T1368      -6.441  -3.971  -7.525  1.00 50.91     0.076 A 
HETATM   10  NAH   D T1368      -7.655  -3.414  -7.530  1.00 50.74    -0.326 N 
HETATM   11  CAE   D T1368      -7.954  -2.857  -6.357  1.00 49.51     0.060 A 
HETATM   12  CAF   D T1368      -9.071  -2.200  -5.852  1.00 49.09     0.017 A 
HETATM   13  CAD   D T1368      -6.842  -3.091  -5.557  1.00 48.06     0.017 A 
HETATM   14  CAA   D T1368      -9.074  -1.777  -4.527  1.00 50.27     0.002 A 
HETATM   15  CAB   D T1368      -7.964  -2.010  -3.718  1.00 50.31     0.000 A 
HETATM   16  CAC   D T1368      -6.848  -2.665  -4.234  1.00 49.26     0.002 A 
BRANCH  10  17
HETATM   17  CAY   D T1368      -8.602  -3.487  -8.654  1.00 53.65     0.108 C 
BRANCH  17  18
HETATM   18  CBA   D T1368      -9.235  -2.140  -9.020  1.00 61.14     0.048 C 
BRANCH  18  19
HETATM   19  CBB   D T1368      -8.285  -1.208  -9.778  1.00 65.34     0.099 C 
BRANCH  19  20
HETATM   20  NBC   D T1368      -7.754  -0.095  -8.970  1.00 68.16    -0.365 N 
HETATM   21  CBD   D T1368      -6.378  -0.249  -8.477  1.00 68.53     0.121 C 
HETATM   22  CBE   D T1368      -8.676   0.726  -8.167  1.00 68.44     0.121 C 
ENDBRANCH  19  20
ENDBRANCH  18  19
ENDBRANCH  17  18
ENDBRANCH  10  17
ENDBRANCH   1   8
BRANCH   7  23
HETATM   23  CAK   D T1368      -5.176  -6.785  -5.922  1.00 49.21     0.025 A 
HETATM   24  CAM   D T1368      -4.996  -7.979  -6.603  1.00 47.19     0.019 A 
HETATM   25  CAP   D T1368      -3.951  -8.489  -7.369  1.00 47.05     0.002 A 
HETATM   26  CAN   D T1368      -6.146  -8.733  -6.426  1.00 48.17     0.081 A 
HETATM   27  CAQ   D T1368      -4.071  -9.745  -7.955  1.00 49.31     0.000 A 
HETATM   28  CAR   D T1368      -5.229 -10.498  -7.777  1.00 47.76     0.002 A 
HETATM   29  CAS   D T1368      -6.272  -9.993  -7.008  1.00 48.79     0.019 A 
HETATM   30  NAO   D T1368      -6.948  -7.992  -5.662  1.00 49.87    -0.244 NA
HETATM   31  CAL   D T1368      -6.378  -6.824  -5.350  1.00 50.14     0.099 A 
ENDBRANCH   7  23
TORSDOF 6
ENDMDL
MODEL 2
REMARK VINA RESULT:    -7.723      1.916      2.898
REMARK INTER + INTRA:         -11.594
REMARK INTER:                  -9.707
REMARK INTRA:                  -1.888
REMARK UNBOUND:                -1.162
REMARK  6 active torsions:
REMARK  status: ('A' for Active; 'I' for Inactive)
REMARK    1  A    between atoms: NBC_2  and  CBB_4 
REMARK    2  A    between atoms: CBB_4  and  CBA_5 
REMARK    3  A    between atoms: CBA_5  and  CAY_6 
REMARK    4  A    between atoms: CAY_6  and  NAH_7 
REMARK    5  A    between atoms: CAG_15  and  CAI_16 
REMARK    6  A    between atoms: CAJ_22  and  CAK_23 
ROOT
HETATM    1  CAI   D T1368      -5.963  -3.037  -5.675  1.00 47.54     0.064 A 
HETATM    2  CAT   D T1368      -4.774  -2.581  -5.111  1.00 46.36     0.282 A 
HETATM    3  OAZ   D T1368      -4.594  -1.556  -4.459  1.00 44.28    -0.265 OA
HETATM    4  NAU   D T1368      -3.862  -3.512  -5.387  1.00 46.45    -0.169 NA
HETATM    5  CAV   D T1368      -4.344  -4.541  -6.083  1.00 47.61     0.282 A 
HETATM    6  OAX   D T1368      -3.729  -5.543  -6.439  1.00 47.90    -0.265 OA
HETATM    7  CAJ   D T1368      -5.690  -4.255  -6.287  1.00 48.30     0.064 A 
ENDROOT
BRANCH   1   8
HETATM    8  CAG   D T1368      -7.198  -2.410  -5.515  1.00 49.01     0.023 A 
HETATM    9  CAW   D T1368      -7.390  -1.165  -5.948  1.00 50.91     0.076 A 
HETATM   10  NAH   D T1368      -8.673  -0.853  -5.741  1.00 50.74    -0.326 N 
HETATM   11  CAE   D T1368      -9.346  -1.854  -5.175  1.00 49.51     0.060 A 
HETATM   12  CAF   D T1368     -10.671  -2.040  -4.797  1.00 49.09     0.017 A 
HETATM   13  CAD   D T1368      -8.411  -2.871  -5.022  1.00 48.06     0.017 A 
HETATM   14  CAA   D T1368     -11.063  -3.263  -4.264  1.00 50.27     0.002 A 
HETATM   15  CAB   D T1368     -10.134  -4.288  -4.109  1.00 50.31     0.000 A 
HETATM   16  CAC   D T1368      -8.807  -4.091  -4.487  1.00 49.26     0.002 A 
BRANCH  10  17
HETATM   17  CAY   D T1368      -9.307   0.402  -6.176  1.00 53.65     0.108 C 
BRANCH  17  18
HETATM   18  CBA   D T1368      -9.537   0.489  -7.689  1.00 61.14     0.048 C 
BRANCH  18  19
HETATM   19  CBB   D T1368     -10.626  -0.464  -8.193  1.00 65.34     0.099 C 
BRANCH  19  20
HETATM   20  NBC   D T1368     -10.117  -1.611  -8.967  1.00 68.16    -0.365 N 
HETATM   21  CBD   D T1368     -10.626  -2.934  -8.578  1.00 68.53     0.121 C 
HETATM   22  CBE   D T1368      -8.773  -1.548  -9.564  1.00 68.44     0.121 C 
ENDBRANCH  19  20
ENDBRANCH  18  19
ENDBRANCH  17  18
ENDBRANCH  10  17
ENDBRANCH   1   8
BRANCH   7  23
HETATM   23  CAK   D T1368      -6.560  -5.049  -7.032  1.00 49.21     0.025 A 
HETATM   24  CAM   D T1368      -6.937  -6.379  -6.932  1.00 47.19     0.019 A 
HETATM   25  CAP   D T1368      -6.571  -7.410  -6.072  1.00 47.05     0.002 A 
HETATM   26  CAN   D T1368      -7.856  -6.624  -7.942  1.00 48.17     0.081 A 
HETATM   27  CAQ   D T1368      -7.124  -8.677  -6.233  1.00 49.31     0.000 A 
HETATM   28  CAR   D T1368      -8.044  -8.919  -7.251  1.00 47.76     0.002 A 
HETATM   29  CAS   D T1368      -8.415  -7.889  -8.109  1.00 48.79     0.019 A 
HETATM   30  NAO   D T1368      -8.000  -5.467  -8.587  1.00 49.87    -0.244 NA
HETATM   31  CAL   D T1368      -7.231  -4.514  -8.050  1.00 50.14     0.099 A 
ENDBRANCH   7  23
TORSDOF 6
ENDMDL
MODEL 3
REMARK VINA RESULT:    -7.613      2.343      6.608
REMARK INTER + INTRA:         -11.445
REMARK INTER:                  -9.856
REMARK INTRA:                  -1.589
REMARK UNBOUND:                -1.162
REMARK  6 active torsions:
REMARK  status: ('A' for Active; 'I' for Inactive)
REMARK    1  A    between atoms: NBC_2  and  CBB_4 
REMARK    2  A    between atoms: CBB_4  and  CBA_5 
REMARK    3  A    between atoms: CBA_5  and  CAY_6 
REMARK    4  A    between atoms: CAY_6  and  NAH_7 
REMARK    5  A    between atoms: CAG_15  and  CAI_16 
REMARK    6  A    between atoms: CAJ_22  and  CAK_23 
ROOT
HETATM    1  CAI   D T1368      -6.631  -2.097  -6.772  1.00 47.54     0.064 A 
HETATM    2  CAT   D T1368      -5.978  -1.152  -7.560  1.00 46.36     0.282 A 
HETATM    3  OAZ   D T1368      -4.895  -1.262  -8.127  1.00 44.28    -0.265 OA
HETATM    4  NAU   D T1368      -6.793  -0.099  -7.611  1.00 46.45    -0.169 NA
HETATM    5  CAV   D T1368      -7.925  -0.266  -6.929  1.00 47.61     0.282 A 
HETATM    6  OAX   D T1368      -8.856   0.530  -6.839  1.00 47.90    -0.265 OA
HETATM    7  CAJ   D T1368      -7.841  -1.539  -6.374  1.00 48.30     0.064 A 
ENDROOT
BRANCH   1   8
HETATM    8  CAG   D T1368      -6.170  -3.395  -6.561  1.00 49.01     0.023 A 
HETATM    9  CAW   D T1368      -6.856  -4.443  -7.015  1.00 50.91     0.076 A 
HETATM   10  NAH   D T1368      -6.148  -5.544  -6.747  1.00 50.74    -0.326 N 
HETATM   11  CAE   D T1368      -5.006  -5.263  -6.119  1.00 49.51     0.060 A 
HETATM   12  CAF   D T1368      -3.936  -6.026  -5.665  1.00 49.09     0.017 A 
HETATM   13  CAD   D T1368      -5.000  -3.879  -5.992  1.00 48.06     0.017 A 
HETATM   14  CAA   D T1368      -2.845  -5.392  -5.080  1.00 50.27     0.002 A 
HETATM   15  CAB   D T1368      -2.830  -4.006  -4.951  1.00 50.31     0.000 A 
HETATM   16  CAC   D T1368      -3.909  -3.250  -5.404  1.00 49.26     0.002 A 
BRANCH  10  17
HETATM   17  CAY   D T1368      -6.519  -6.901  -7.178  1.00 53.65     0.108 C 
BRANCH  17  18
HETATM   18  CBA   D T1368      -7.927  -6.998  -7.776  1.00 61.14     0.048 C 
BRANCH  18  19
HETATM   19  CBB   D T1368      -8.390  -8.439  -8.008  1.00 65.34     0.099 C 
BRANCH  19  20
HETATM   20  NBC   D T1368      -7.513  -9.463  -7.410  1.00 68.16    -0.365 N 
HETATM   21  CBD   D T1368      -6.720 -10.267  -8.350  1.00 68.53     0.121 C 
HETATM   22  CBE   D T1368      -7.888 -10.086  -6.131  1.00 68.44     0.121 C 
ENDBRANCH  19  20
ENDBRANCH  18  19
ENDBRANCH  17  18
ENDBRANCH  10  17
ENDBRANCH   1   8
BRANCH   7  23
HETATM   23  CAK   D T1368      -8.797  -2.092  -5.524  1.00 49.21     0.025 A 
HETATM   24  CAM   D T1368      -9.854  -2.963  -5.739  1.00 47.19     0.019 A 
HETATM   25  CAP   D T1368     -10.361  -3.581  -6.879  1.00 47.05     0.002 A 
HETATM   26  CAN   D T1368     -10.461  -3.186  -4.512  1.00 48.17     0.081 A 
HETATM   27  CAQ   D T1368     -11.473  -4.412  -6.780  1.00 49.31     0.000 A 
HETATM   28  CAR   D T1368     -12.081  -4.631  -5.546  1.00 47.76     0.002 A 
HETATM   29  CAS   D T1368     -11.573  -4.018  -4.405  1.00 48.79     0.019 A 
HETATM   30  NAO   D T1368      -9.763  -2.470  -3.630  1.00 49.87    -0.244 NA
HETATM   31  CAL   D T1368      -8.762  -1.813  -4.223  1.00 50.14     0.099 A 
ENDBRANCH   7  23
TORSDOF 6
ENDMDL
MODEL 4
REMARK VINA RESULT:    -7.553      2.095      3.663
REMARK INTER + INTRA:         -11.364
REMARK INTER:                  -9.735
REMARK INTRA:                  -1.629
REMARK UNBOUND:                -1.162
REMARK  6 active torsions:
REMARK  status: ('A' for Active; 'I' for Inactive)
REMARK    1  A    between atoms: NBC_2  and  CBB_4 
REMARK    2  A    between atoms: CBB_4  and  CBA_5 
REMARK    3  A    between atoms: CBA_5  and  CAY_6 
REMARK    4  A    between atoms: CAY_6  and  NAH_7 
REMARK    5  A    between atoms: CAG_15  and  CAI_16 
REMARK    6  A    between atoms: CAJ_22  and  CAK_23 
ROOT
HETATM    1  CAI   D T1368      -4.758  -2.888  -5.690  1.00 47.54     0.064 A 
HETATM    2  CAT   D T1368      -3.562  -2.221  -5.433  1.00 46.36     0.282 A 
HETATM    3  OAZ   D T1368      -3.384  -1.012  -5.311  1.00 44.28    -0.265 OA
HETATM    4  NAU   D T1368      -2.639  -3.173  -5.301  1.00 46.45    -0.169 NA
HETATM    5  CAV   D T1368      -3.119  -4.407  -5.447  1.00 47.61     0.282 A 
HETATM    6  OAX   D T1368      -2.494  -5.459  -5.344  1.00 47.90    -0.265 OA
HETATM    7  CAJ   D T1368      -4.477  -4.249  -5.707  1.00 48.30     0.064 A 
ENDROOT
BRANCH   1   8
HETATM    8  CAG   D T1368      -6.000  -2.262  -5.778  1.00 49.01     0.023 A 
HETATM    9  CAW   D T1368      -6.879  -2.352  -4.779  1.00 50.91     0.076 A 
HETATM   10  NAH   D T1368      -7.935  -1.597  -5.095  1.00 50.74    -0.326 N 
HETATM   11  CAE   D T1368      -7.792  -1.008  -6.281  1.00 49.51     0.060 A 
HETATM   12  CAF   D T1368      -8.568  -0.125  -7.026  1.00 49.09     0.017 A 
HETATM   13  CAD   D T1368      -6.547  -1.423  -6.738  1.00 48.06     0.017 A 
HETATM   14  CAA   D T1368      -8.085   0.350  -8.240  1.00 50.27     0.002 A 
HETATM   15  CAB   D T1368      -6.838  -0.060  -8.704  1.00 50.31     0.000 A 
HETATM   16  CAC   D T1368      -6.071  -0.948  -7.954  1.00 49.26     0.002 A 
BRANCH  10  17
HETATM   17  CAY   D T1368      -9.081  -1.352  -4.205  1.00 53.65     0.108 C 
BRANCH  17  18
HETATM   18  CBA   D T1368      -9.835  -2.624  -3.800  1.00 61.14     0.048 C 
BRANCH  18  19
HETATM   19  CBB   D T1368     -11.267  -2.680  -4.342  1.00 65.34     0.099 C 
BRANCH  19  20
HETATM   20  NBC   D T1368     -11.363  -3.064  -5.762  1.00 68.16    -0.365 N 
HETATM   21  CBD   D T1368     -10.503  -4.174  -6.194  1.00 68.53     0.121 C 
HETATM   22  CBE   D T1368     -11.722  -2.051  -6.768  1.00 68.44     0.121 C 
ENDBRANCH  19  20
ENDBRANCH  18  19
ENDBRANCH  17  18
ENDBRANCH  10  17
ENDBRANCH   1   8
BRANCH   7  23
HETATM   23  CAK   D T1368      -5.352  -5.297  -5.988  1.00 49.21     0.025 A 
HETATM   24  CAM   D T1368      -6.357  -5.455  -6.929  1.00 47.19     0.019 A 
HETATM   25  CAP   D T1368      -6.875  -4.623  -7.917  1.00 47.05     0.002 A 
HETATM   26  CAN   D T1368      -6.888  -6.725  -6.756  1.00 48.17     0.081 A 
HETATM   27  CAQ   D T1368      -7.923  -5.067  -8.718  1.00 49.31     0.000 A 
HETATM   28  CAR   D T1368      -8.455  -6.342  -8.539  1.00 47.76     0.002 A 
HETATM   29  CAS   D T1368      -7.935  -7.177  -7.556  1.00 48.79     0.019 A 
HETATM   30  NAO   D T1368      -6.199  -7.270  -5.754  1.00 49.87    -0.244 NA
HETATM   31  CAL   D T1368      -5.274  -6.426  -5.287  1.00 50.14     0.099 A 
ENDBRANCH   7  23
TORSDOF 6
ENDMDL
MODEL 5
REMARK VINA RESULT:    -7.510      4.431      9.626
REMARK INTER + INTRA:         -11.306
REMARK INTER:                  -8.894
REMARK INTRA:                  -2.412
REMARK UNBOUND:                -1.162
REMARK  6 active torsions:
REMARK  status: ('A' for Active; 'I' for Inactive)
REMARK    1  A    between atoms: NBC_2  and  CBB_4 
REMARK    2  A    between atoms: CBB_4  and  CBA_5 
REMARK    3  A    between atoms: CBA_5  and  CAY_6 
REMARK    4  A    between atoms: CAY_6  and  NAH_7 
REMARK    5  A    between atoms: CAG_15  and  CAI_16 
REMARK    6  A    between atoms: CAJ_22  and  CAK_23 
ROOT
HETATM    1  CAI   D T1368     -10.659   0.695  -6.846  1.00 47.54     0.064 A 
HETATM    2  CAT   D T1368     -11.767   0.042  -7.380  1.00 46.36     0.282 A 
HETATM    3  OAZ   D T1368     -11.885  -1.153  -7.639  1.00 44.28    -0.265 OA
HETATM    4  NAU   D T1368     -12.706   0.976  -7.518  1.00 46.45    -0.169 NA
HETATM    5  CAV   D T1368     -12.317   2.188  -7.123  1.00 47.61     0.282 A 
HETATM    6  OAX   D T1368     -12.992   3.213  -7.113  1.00 47.90    -0.265 OA
HETATM    7  CAJ   D T1368     -11.002   2.034  -6.694  1.00 48.30     0.064 A 
ENDROOT
BRANCH   1   8
HETATM    8  CAG   D T1368      -9.491   0.053  -6.437  1.00 49.01     0.023 A 
HETATM    9  CAW   D T1368      -9.442  -0.594  -5.273  1.00 50.91     0.076 A 
HETATM   10  NAH   D T1368      -8.244  -1.177  -5.179  1.00 50.74    -0.326 N 
HETATM   11  CAE   D T1368      -7.485  -0.935  -6.246  1.00 49.51     0.060 A 
HETATM   12  CAF   D T1368      -6.210  -1.328  -6.639  1.00 49.09     0.017 A 
HETATM   13  CAD   D T1368      -8.273  -0.143  -7.073  1.00 48.06     0.017 A 
HETATM   14  CAA   D T1368      -5.723  -0.925  -7.878  1.00 50.27     0.002 A 
HETATM   15  CAB   D T1368      -6.507  -0.134  -8.713  1.00 50.31     0.000 A 
HETATM   16  CAC   D T1368      -7.781   0.259  -8.309  1.00 49.26     0.002 A 
BRANCH  10  17
HETATM   17  CAY   D T1368      -7.835  -2.070  -4.083  1.00 53.65     0.108 C 
BRANCH  17  18
HETATM   18  CBA   D T1368      -8.528  -3.437  -4.104  1.00 61.14     0.048 C 
BRANCH  18  19
HETATM   19  CBB   D T1368      -7.945  -4.397  -5.146  1.00 65.34     0.099 C 
BRANCH  19  20
HETATM   20  NBC   D T1368      -8.737  -4.501  -6.385  1.00 68.16    -0.365 N 
HETATM   21  CBD   D T1368      -7.989  -4.382  -7.645  1.00 68.53     0.121 C 
HETATM   22  CBE   D T1368     -10.146  -4.074  -6.388  1.00 68.44     0.121 C 
ENDBRANCH  19  20
ENDBRANCH  18  19
ENDBRANCH  17  18
ENDBRANCH  10  17
ENDBRANCH   1   8
BRANCH   7  23
HETATM   23  CAK   D T1368     -10.190   3.078  -6.256  1.00 49.21     0.025 A 
HETATM   24  CAM   D T1368      -9.384   3.987  -6.923  1.00 47.19     0.019 A 
HETATM   25  CAP   D T1368      -9.072   4.174  -8.267  1.00 47.05     0.002 A 
HETATM   26  CAN   D T1368      -8.820   4.819  -5.968  1.00 48.17     0.081 A 
HETATM   27  CAQ   D T1368      -8.195   5.188  -8.641  1.00 49.31     0.000 A 
HETATM   28  CAR   D T1368      -7.629   6.020  -7.677  1.00 47.76     0.002 A 
HETATM   29  CAS   D T1368      -7.943   5.838  -6.334  1.00 48.79     0.019 A 
HETATM   30  NAO   D T1368      -9.299   4.399  -4.797  1.00 49.87    -0.244 NA
HETATM   31  CAL   D T1368     -10.122   3.359  -4.955  1.00 50.14     0.099 A 
ENDBRANCH   7  23
TORSDOF 6
ENDMDL
MODEL 6
REMARK VINA RESULT:    -7.506      4.153      6.978
REMARK INTER + INTRA:         -11.301
REMARK INTER:                  -8.688
REMARK INTRA:                  -2.614
REMARK UNBOUND:                -1.162
REMARK  6 active torsions:
REMARK  status: ('A' for Active; 'I' for Inactive)
REMARK    1  A    between atoms: NBC_2  and  CBB_4 
REMARK    2  A    between atoms: CBB_4  and  CBA_5 
REMARK    3  A    between atoms: CBA_5  and  CAY_6 
REMARK    4  A    between atoms: CAY_6  and  NAH_7 
REMARK    5  A    between atoms: CAG_15  and  CAI_16 
REMARK    6  A    between atoms: CAJ_22  and  CAK_23 
ROOT
HETATM    1  CAI   D T1368      -9.803   0.713  -6.090  1.00 47.54     0.064 A 
HETATM    2  CAT   D T1368     -10.513   1.790  -5.564  1.00 46.36     0.282 A 
HETATM    3  OAZ   D T1368     -11.577   1.764  -4.951  1.00 44.28    -0.265 OA
HETATM    4  NAU   D T1368      -9.778   2.869  -5.824  1.00 46.45    -0.169 NA
HETATM    5  CAV   D T1368      -8.646   2.601  -6.474  1.00 47.61     0.282 A 
HETATM    6  OAX   D T1368      -7.778   3.404  -6.807  1.00 47.90    -0.265 OA
HETATM    7  CAJ   D T1368      -8.644   1.223  -6.664  1.00 48.30     0.064 A 
ENDROOT
BRANCH   1   8
HETATM    8  CAG   D T1368     -10.170  -0.622  -5.929  1.00 49.01     0.023 A 
HETATM    9  CAW   D T1368     -11.123  -1.162  -6.689  1.00 50.91     0.076 A 
HETATM   10  NAH   D T1368     -11.207  -2.459  -6.378  1.00 50.74    -0.326 N 
HETATM   11  CAE   D T1368     -10.341  -2.803  -5.426  1.00 49.51     0.060 A 
HETATM   12  CAF   D T1368     -10.018  -4.000  -4.795  1.00 49.09     0.017 A 
HETATM   13  CAD   D T1368      -9.659  -1.631  -5.124  1.00 48.06     0.017 A 
HETATM   14  CAA   D T1368      -8.997  -4.019  -3.852  1.00 50.27     0.002 A 
HETATM   15  CAB   D T1368      -8.307  -2.849  -3.544  1.00 50.31     0.000 A 
HETATM   16  CAC   D T1368      -8.641  -1.655  -4.178  1.00 49.26     0.002 A 
BRANCH  10  17
HETATM   17  CAY   D T1368     -12.075  -3.427  -7.069  1.00 53.65     0.108 C 
BRANCH  17  18
HETATM   18  CBA   D T1368     -11.525  -3.899  -8.419  1.00 61.14     0.048 C 
BRANCH  18  19
HETATM   19  CBB   D T1368     -10.599  -5.115  -8.306  1.00 65.34     0.099 C 
BRANCH  19  20
HETATM   20  NBC   D T1368      -9.164  -4.781  -8.253  1.00 68.16    -0.365 N 
HETATM   21  CBD   D T1368      -8.789  -3.444  -8.734  1.00 68.53     0.121 C 
HETATM   22  CBE   D T1368      -8.162  -5.853  -8.376  1.00 68.44     0.121 C 
ENDBRANCH  19  20
ENDBRANCH  18  19
ENDBRANCH  17  18
ENDBRANCH  10  17
ENDBRANCH   1   8
BRANCH   7  23
HETATM   23  CAK   D T1368      -7.662   0.526  -7.365  1.00 49.21     0.025 A 
HETATM   24  CAM   D T1368      -6.486  -0.092  -6.972  1.00 47.19     0.019 A 
HETATM   25  CAP   D T1368      -5.844  -0.222  -5.743  1.00 47.05     0.002 A 
HETATM   26  CAN   D T1368      -5.913  -0.650  -8.105  1.00 48.17     0.081 A 
HETATM   27  CAQ   D T1368      -4.634  -0.904  -5.662  1.00 49.31     0.000 A 
HETATM   28  CAR   D T1368      -4.060  -1.459  -6.803  1.00 47.76     0.002 A 
HETATM   29  CAS   D T1368      -4.702  -1.335  -8.031  1.00 48.79     0.019 A 
HETATM   30  NAO   D T1368      -6.744  -0.363  -9.107  1.00 49.87    -0.244 NA
HETATM   31  CAL   D T1368      -7.797   0.339  -8.677  1.00 50.14     0.099 A 
ENDBRANCH   7  23
TORSDOF 6
ENDMDL
MODEL 7
REMARK VINA RESULT:    -7.406      4.351      6.535
REMARK INTER + INTRA:         -11.166
REMARK INTER:                  -9.449
REMARK INTRA:                  -1.717
REMARK UNBOUND:                -1.162
REMARK  6 active torsions:
REMARK  status: ('A' for Active; 'I' for Inactive)
REMARK    1  A    between atoms: NBC_2  and  CBB_4 
REMARK    2  A    between atoms: CBB_4  and  CBA_5 
REMARK    3  A    between atoms: CBA_5  and  CAY_6 
REMARK    4  A    between atoms: CAY_6  and  NAH_7 
REMARK    5  A    between atoms: CAG_15  and  CAI_16 
REMARK    6  A    between atoms: CAJ_22  and  CAK_23 
ROOT
HETATM    1  CAI   D T1368      -9.526  -1.338  -7.544  1.00 47.54     0.064 A 
HETATM    2  CAT   D T1368     -10.373  -1.959  -8.459  1.00 46.36     0.282 A 
HETATM    3  OAZ   D T1368     -11.352  -1.481  -9.024  1.00 44.28    -0.265 OA
HETATM    4  NAU   D T1368      -9.880  -3.184  -8.634  1.00 46.45    -0.169 NA
HETATM    5  CAV   D T1368      -8.782  -3.426  -7.918  1.00 47.61     0.282 A 
HETATM    6  OAX   D T1368      -8.114  -4.456  -7.918  1.00 47.90    -0.265 OA
HETATM    7  CAJ   D T1368      -8.540  -2.257  -7.203  1.00 48.30     0.064 A 
ENDROOT
BRANCH   1   8
HETATM    8  CAG   D T1368      -9.620   0.003  -7.173  1.00 49.01     0.023 A 
HETATM    9  CAW   D T1368      -9.277   0.970  -8.023  1.00 50.91     0.076 A 
HETATM   10  NAH   D T1368      -9.544   2.142  -7.440  1.00 50.74    -0.326 N 
HETATM   11  CAE   D T1368     -10.053   1.987  -6.218  1.00 49.51     0.060 A 
HETATM   12  CAF   D T1368     -10.514   2.864  -5.241  1.00 49.09     0.017 A 
HETATM   13  CAD   D T1368     -10.112   0.612  -6.027  1.00 48.06     0.017 A 
HETATM   14  CAA   D T1368     -11.045   2.353  -4.062  1.00 50.27     0.002 A 
HETATM   15  CAB   D T1368     -11.109   0.976  -3.864  1.00 50.31     0.000 A 
HETATM   16  CAC   D T1368     -10.641   0.106  -4.845  1.00 49.26     0.002 A 
BRANCH  10  17
HETATM   17  CAY   D T1368      -9.399   3.452  -8.094  1.00 53.65     0.108 C 
BRANCH  17  18
HETATM   18  CBA   D T1368      -8.133   4.212  -7.684  1.00 61.14     0.048 C 
BRANCH  18  19
HETATM   19  CBB   D T1368      -7.794   5.376  -8.621  1.00 65.34     0.099 C 
BRANCH  19  20
HETATM   20  NBC   D T1368      -6.608   6.153  -8.219  1.00 68.16    -0.365 N 
HETATM   21  CBD   D T1368      -5.596   6.380  -9.260  1.00 68.53     0.121 C 
HETATM   22  CBE   D T1368      -6.145   6.106  -6.821  1.00 68.44     0.121 C 
ENDBRANCH  19  20
ENDBRANCH  18  19
ENDBRANCH  17  18
ENDBRANCH  10  17
ENDBRANCH   1   8
BRANCH   7  23
HETATM   23  CAK   D T1368      -7.513  -2.101  -6.274  1.00 49.21     0.025 A 
HETATM   24  CAM   D T1368      -6.163  -1.820  -6.404  1.00 47.19     0.019 A 
HETATM   25  CAP   D T1368      -5.335  -1.614  -7.504  1.00 47.05     0.002 A 
HETATM   26  CAN   D T1368      -5.628  -1.763  -5.125  1.00 48.17     0.081 A 
HETATM   27  CAQ   D T1368      -3.980  -1.360  -7.314  1.00 49.31     0.000 A 
HETATM   28  CAR   D T1368      -3.447  -1.307  -6.029  1.00 47.76     0.002 A 
HETATM   29  CAS   D T1368      -4.273  -1.507  -4.927  1.00 48.79     0.019 A 
HETATM   30  NAO   D T1368      -6.646  -1.997  -4.298  1.00 49.87    -0.244 NA
HETATM   31  CAL   D T1368      -7.782  -2.199  -4.973  1.00 50.14     0.099 A 
ENDBRANCH   7  23
TORSDOF 6
ENDMDL
MODEL 8
REMARK VINA RESULT:    -7.341      2.457      3.706
REMARK INTER + INTRA:         -11.077
REMARK INTER:                  -9.907
REMARK INTRA:                  -1.170
REMARK UNBOUND:                -1.162
REMARK  6 active torsions:
REMARK  status: ('A' for Active; 'I' for Inactive)
REMARK    1  A    between atoms: NBC_2  and  CBB_4 
REMARK    2  A    between atoms: CBB_4  and  CBA_5 
REMARK    3  A    between atoms: CBA_5  and  CAY_6 
REMARK    4  A    between atoms: CAY_6  and  NAH_7 
REMARK    5  A    between atoms: CAG_15  and  CAI_16 
REMARK    6  A    between atoms: CAJ_22  and  CAK_23 
ROOT
HETATM    1  CAI   D T1368      -5.480  -1.806  -5.873  1.00 47.54     0.064 A 
HETATM    2  CAT   D T1368      -4.308  -1.270  -5.344  1.00 46.36     0.282 A 
HETATM    3  OAZ   D T1368      -4.137  -0.148  -4.877  1.00 44.28    -0.265 OA
HETATM    4  NAU   D T1368      -3.403  -2.245  -5.407  1.00 46.45    -0.169 NA
HETATM    5  CAV   D T1368      -3.873  -3.377  -5.930  1.00 47.61     0.282 A 
HETATM    6  OAX   D T1368      -3.263  -4.433  -6.074  1.00 47.90    -0.265 OA
HETATM    7  CAJ   D T1368      -5.204  -3.117  -6.245  1.00 48.30     0.064 A 
ENDROOT
BRANCH   1   8
HETATM    8  CAG   D T1368      -6.709  -1.148  -5.884  1.00 49.01     0.023 A 
HETATM    9  CAW   D T1368      -6.924  -0.124  -6.709  1.00 50.91     0.076 A 
HETATM   10  NAH   D T1368      -8.197   0.256  -6.567  1.00 50.74    -0.326 N 
HETATM   11  CAE   D T1368      -8.841  -0.483  -5.663  1.00 49.51     0.060 A 
HETATM   12  CAF   D T1368     -10.148  -0.512  -5.188  1.00 49.09     0.017 A 
HETATM   13  CAD   D T1368      -7.897  -1.397  -5.212  1.00 48.06     0.017 A 
HETATM   14  CAA   D T1368     -10.512  -1.474  -4.251  1.00 50.27     0.002 A 
HETATM   15  CAB   D T1368      -9.572  -2.395  -3.795  1.00 50.31     0.000 A 
HETATM   16  CAC   D T1368      -8.265  -2.355  -4.274  1.00 49.26     0.002 A 
BRANCH  10  17
HETATM   17  CAY   D T1368      -8.854   1.294  -7.377  1.00 53.65     0.108 C 
BRANCH  17  18
HETATM   18  CBA   D T1368      -8.324   2.709  -7.121  1.00 61.14     0.048 C 
BRANCH  18  19
HETATM   19  CBB   D T1368      -8.861   3.333  -5.829  1.00 65.34     0.099 C 
BRANCH  19  20
HETATM   20  NBC   D T1368      -8.182   4.580  -5.430  1.00 68.16    -0.365 N 
HETATM   21  CBD   D T1368      -8.902   5.434  -4.476  1.00 68.53     0.121 C 
HETATM   22  CBE   D T1368      -7.258   5.238  -6.368  1.00 68.44     0.121 C 
ENDBRANCH  19  20
ENDBRANCH  18  19
ENDBRANCH  17  18
ENDBRANCH  10  17
ENDBRANCH   1   8
BRANCH   7  23
HETATM   23  CAK   D T1368      -6.055  -4.022  -6.877  1.00 49.21     0.025 A 
HETATM   24  CAM   D T1368      -6.349  -5.355  -6.644  1.00 47.19     0.019 A 
HETATM   25  CAP   D T1368      -5.889  -6.283  -5.713  1.00 47.05     0.002 A 
HETATM   26  CAN   D T1368      -7.293  -5.741  -7.584  1.00 48.17     0.081 A 
HETATM   27  CAQ   D T1368      -6.372  -7.588  -5.737  1.00 49.31     0.000 A 
HETATM   28  CAR   D T1368      -7.317  -7.971  -6.686  1.00 47.76     0.002 A 
HETATM   29  CAS   D T1368      -7.783  -7.045  -7.614  1.00 48.79     0.019 A 
HETATM   30  NAO   D T1368      -7.530  -4.656  -8.322  1.00 49.87    -0.244 NA
HETATM   31  CAL   D T1368      -6.797  -3.619  -7.907  1.00 50.14     0.099 A 
ENDBRANCH   7  23
TORSDOF 6
ENDMDL
MODEL 9
REMARK VINA RESULT:    -7.320      4.293      9.710
REMARK INTER + INTRA:         -11.050
REMARK INTER:                  -9.533
REMARK INTRA:                  -1.517
REMARK UNBOUND:                -1.162
REMARK  6 active torsions:
REMARK  status: ('A' for Active; 'I' for Inactive)
REMARK    1  A    between atoms: NBC_2  and  CBB_4 
REMARK    2  A    between atoms: CBB_4  and  CBA_5 
REMARK    3  A    between atoms: CBA_5  and  CAY_6 
REMARK    4  A    between atoms: CAY_6  and  NAH_7 
REMARK    5  A    between atoms: CAG_15  and  CAI_16 
REMARK    6  A    between atoms: CAJ_22  and  CAK_23 
ROOT
HETATM    1  CAI   D T1368     -10.603   1.385  -6.722  1.00 47.54     0.064 A 
HETATM    2  CAT   D T1368     -11.822   0.922  -7.212  1.00 46.36     0.282 A 
HETATM    3  OAZ   D T1368     -12.131  -0.232  -7.495  1.00 44.28    -0.265 OA
HETATM    4  NAU   D T1368     -12.614   1.990  -7.277  1.00 46.45    -0.169 NA
HETATM    5  CAV   D T1368     -12.028   3.116  -6.873  1.00 47.61     0.282 A 
HETATM    6  OAX   D T1368     -12.539   4.230  -6.802  1.00 47.90    -0.265 OA
HETATM    7  CAJ   D T1368     -10.732   2.754  -6.519  1.00 48.30     0.064 A 
ENDROOT
BRANCH   1   8
HETATM    8  CAG   D T1368      -9.527   0.562  -6.392  1.00 49.01     0.023 A 
HETATM    9  CAW   D T1368      -8.318   0.784  -6.907  1.00 50.91     0.076 A 
HETATM   10  NAH   D T1368      -7.473  -0.094  -6.360  1.00 50.74    -0.326 N 
HETATM   11  CAE   D T1368      -8.083  -0.904  -5.495  1.00 49.51     0.060 A 
HETATM   12  CAF   D T1368      -7.656  -1.933  -4.663  1.00 49.09     0.017 A 
HETATM   13  CAD   D T1368      -9.411  -0.494  -5.499  1.00 48.06     0.017 A 
HETATM   14  CAA   D T1368      -8.573  -2.556  -3.823  1.00 50.27     0.002 A 
HETATM   15  CAB   D T1368      -9.905  -2.151  -3.819  1.00 50.31     0.000 A 
HETATM   16  CAC   D T1368     -10.324  -1.122  -4.660  1.00 49.26     0.002 A 
BRANCH  10  17
HETATM   17  CAY   D T1368      -6.020  -0.111  -6.594  1.00 53.65     0.108 C 
BRANCH  17  18
HETATM   18  CBA   D T1368      -5.587  -1.040  -7.734  1.00 61.14     0.048 C 
BRANCH  18  19
HETATM   19  CBB   D T1368      -4.214  -1.680  -7.506  1.00 65.34     0.099 C 
BRANCH  19  20
HETATM   20  NBC   D T1368      -4.264  -3.027  -6.908  1.00 68.16    -0.365 N 
HETATM   21  CBD   D T1368      -5.498  -3.792  -7.135  1.00 68.53     0.121 C 
HETATM   22  CBE   D T1368      -3.509  -3.306  -5.676  1.00 68.44     0.121 C 
ENDBRANCH  19  20
ENDBRANCH  18  19
ENDBRANCH  17  18
ENDBRANCH  10  17
ENDBRANCH   1   8
BRANCH   7  23
HETATM   23  CAK   D T1368      -9.751   3.650  -6.098  1.00 49.21     0.025 A 
HETATM   24  CAM   D T1368      -8.861   4.460  -6.785  1.00 47.19     0.019 A 
HETATM   25  CAP   D T1368      -8.605   4.659  -8.139  1.00 47.05     0.002 A 
HETATM   26  CAN   D T1368      -8.126   5.161  -5.840  1.00 48.17     0.081 A 
HETATM   27  CAQ   D T1368      -7.612   5.551  -8.533  1.00 49.31     0.000 A 
HETATM   28  CAR   D T1368      -6.875   6.250  -7.580  1.00 47.76     0.002 A 
HETATM   29  CAS   D T1368      -7.132   6.057  -6.227  1.00 48.79     0.019 A 
HETATM   30  NAO   D T1368      -8.592   4.764  -4.656  1.00 49.87    -0.244 NA
HETATM   31  CAL   D T1368      -9.567   3.861  -4.796  1.00 50.14     0.099 A 
ENDBRANCH   7  23
TORSDOF 6
ENDMDL
