MODEL 1
REMARK VINA RESULT:    -8.150      0.000      0.000
REMARK INTER + INTRA:         -12.790
REMARK INTER:                 -11.008
REMARK INTRA:                  -1.782
REMARK UNBOUND:                -1.782
REMARK  6 active torsions:
REMARK  status: ('A' for Active; 'I' for Inactive)
REMARK    1  A    between atoms: NBC_2  and  CBB_4 
REMARK    2  A    between atoms: CBB_4  and  CBA_5 
REMARK    3  A    between atoms: CBA_5  and  CAY_6 
REMARK    4  A    between atoms: CAY_6  and  NAH_7 
REMARK    5  A    between atoms: CAG_15  and  CAI_16 
REMARK    6  A    between atoms: CAJ_22  and  CAK_23 
ROOT
HETATM    1  CAI   D T1368      -1.535   0.792  -9.666  1.00 47.54     0.064 A 
HETATM    2  CAT   D T1368      -1.368   1.431  -8.440  1.00 46.36     0.282 A 
HETATM    3  OAZ   D T1368      -1.219   2.632  -8.231  1.00 44.28    -0.265 OA
HETATM    4  NAU   D T1368      -1.444   0.472  -7.518  1.00 46.45    -0.169 NA
HETATM    5  CAV   D T1368      -1.647  -0.742  -8.028  1.00 47.61     0.282 A 
HETATM    6  OAX   D T1368      -1.786  -1.791  -7.402  1.00 47.90    -0.265 OA
HETATM    7  CAJ   D T1368      -1.701  -0.564  -9.406  1.00 48.30     0.064 A 
ENDROOT
BRANCH   1   8
HETATM    8  CAG   D T1368      -1.638   1.454 -10.888  1.00 49.01     0.023 A 
HETATM    9  CAW   D T1368      -0.548   1.782 -11.579  1.00 50.91     0.076 A 
HETATM   10  NAH   D T1368      -0.944   2.324 -12.735  1.00 50.74    -0.326 N 
HETATM   11  CAE   D T1368      -2.270   2.374 -12.835  1.00 49.51     0.060 A 
HETATM   12  CAF   D T1368      -3.153   2.802 -13.821  1.00 49.09     0.017 A 
HETATM   13  CAD   D T1368      -2.739   1.815 -11.653  1.00 48.06     0.017 A 
HETATM   14  CAA   D T1368      -4.523   2.662 -13.619  1.00 50.27     0.002 A 
HETATM   15  CAB   D T1368      -5.001   2.100 -12.438  1.00 50.31     0.000 A 
HETATM   16  CAC   D T1368      -4.109   1.679 -11.454  1.00 49.26     0.002 A 
BRANCH  10  17
HETATM   17  CAY   D T1368      -0.036   2.728 -13.821  1.00 53.65     0.108 C 
BRANCH  17  18
HETATM   18  CBA   D T1368       0.960   3.823 -13.423  1.00 61.14     0.048 C 
BRANCH  18  19
HETATM   19  CBB   D T1368       0.305   5.005 -12.699  1.00 65.34     0.099 C 
BRANCH  19  20
HETATM   20  NBC   D T1368       0.712   5.152 -11.289  1.00 68.16    -0.365 N 
HETATM   21  CBD   D T1368       1.898   4.391 -10.874  1.00 68.53     0.121 C 
HETATM   22  CBE   D T1368      -0.304   5.442 -10.264  1.00 68.44     0.121 C 
ENDBRANCH  19  20
ENDBRANCH  18  19
ENDBRANCH  17  18
ENDBRANCH  10  17
ENDBRANCH   1   8
BRANCH   7  23
HETATM   23  CAK   D T1368      -1.837  -1.599 -10.330  1.00 49.21     0.025 A 
HETATM   24  CAM   D T1368      -1.033  -2.679 -10.656  1.00 47.19     0.019 A 
HETATM   25  CAP   D T1368       0.210  -3.112 -10.202  1.00 47.05     0.002 A 
HETATM   26  CAN   D T1368      -1.688  -3.399 -11.644  1.00 48.17     0.081 A 
HETATM   27  CAQ   D T1368       0.788  -4.255 -10.747  1.00 49.31     0.000 A 
HETATM   28  CAR   D T1368       0.127  -4.972 -11.741  1.00 47.76     0.002 A 
HETATM   29  CAS   D T1368      -1.118  -4.545 -12.192  1.00 48.79     0.019 A 
HETATM   30  NAO   D T1368      -2.831  -2.749 -11.863  1.00 49.87    -0.244 NA
HETATM   31  CAL   D T1368      -2.933  -1.671 -11.081  1.00 50.14     0.099 A 
ENDBRANCH   7  23
TORSDOF 6
ENDMDL
MODEL 2
REMARK VINA RESULT:    -8.071      2.228      6.067
REMARK INTER + INTRA:         -12.683
REMARK INTER:                 -10.883
REMARK INTRA:                  -1.800
REMARK UNBOUND:                -1.782
REMARK  6 active torsions:
REMARK  status: ('A' for Active; 'I' for Inactive)
REMARK    1  A    between atoms: NBC_2  and  CBB_4 
REMARK    2  A    between atoms: CBB_4  and  CBA_5 
REMARK    3  A    between atoms: CBA_5  and  CAY_6 
REMARK    4  A    between atoms: CAY_6  and  NAH_7 
REMARK    5  A    between atoms: CAG_15  and  CAI_16 
REMARK    6  A    between atoms: CAJ_22  and  CAK_23 
ROOT
HETATM    1  CAI   D T1368      -4.128   0.191 -11.779  1.00 47.54     0.064 A 
HETATM    2  CAT   D T1368      -5.333   0.019 -11.102  1.00 46.36     0.282 A 
HETATM    3  OAZ   D T1368      -5.774  -1.010 -10.598  1.00 44.28    -0.265 OA
HETATM    4  NAU   D T1368      -5.907   1.221 -11.073  1.00 46.45    -0.169 NA
HETATM    5  CAV   D T1368      -5.187   2.171 -11.669  1.00 47.61     0.282 A 
HETATM    6  OAX   D T1368      -5.468   3.364 -11.756  1.00 47.90    -0.265 OA
HETATM    7  CAJ   D T1368      -4.043   1.532 -12.137  1.00 48.30     0.064 A 
ENDROOT
BRANCH   1   8
HETATM    8  CAG   D T1368      -3.163  -0.802 -11.927  1.00 49.01     0.023 A 
HETATM    9  CAW   D T1368      -1.933  -0.635 -11.443  1.00 50.91     0.076 A 
HETATM   10  NAH   D T1368      -1.253  -1.766 -11.652  1.00 50.74    -0.326 N 
HETATM   11  CAE   D T1368      -1.991  -2.686 -12.270  1.00 49.51     0.060 A 
HETATM   12  CAF   D T1368      -1.767  -3.999 -12.672  1.00 49.09     0.017 A 
HETATM   13  CAD   D T1368      -3.229  -2.084 -12.455  1.00 48.06     0.017 A 
HETATM   14  CAA   D T1368      -2.802  -4.717 -13.263  1.00 50.27     0.002 A 
HETATM   15  CAB   D T1368      -4.047  -4.122 -13.450  1.00 50.31     0.000 A 
HETATM   16  CAC   D T1368      -4.260  -2.806 -13.049  1.00 49.26     0.002 A 
BRANCH  10  17
HETATM   17  CAY   D T1368       0.116  -2.017 -11.172  1.00 53.65     0.108 C 
BRANCH  17  18
HETATM   18  CBA   D T1368       0.197  -2.360  -9.680  1.00 61.14     0.048 C 
BRANCH  18  19
HETATM   19  CBB   D T1368       0.936  -1.301  -8.853  1.00 65.34     0.099 C 
BRANCH  19  20
HETATM   20  NBC   D T1368       0.052  -0.323  -8.192  1.00 68.16    -0.365 N 
HETATM   21  CBD   D T1368      -1.277  -0.812  -7.801  1.00 68.53     0.121 C 
HETATM   22  CBE   D T1368       0.185   1.108  -8.508  1.00 68.44     0.121 C 
ENDBRANCH  19  20
ENDBRANCH  18  19
ENDBRANCH  17  18
ENDBRANCH  10  17
ENDBRANCH   1   8
BRANCH   7  23
HETATM   23  CAK   D T1368      -3.043   2.154 -12.884  1.00 49.21     0.025 A 
HETATM   24  CAM   D T1368      -1.845   2.754 -12.533  1.00 47.19     0.019 A 
HETATM   25  CAP   D T1368      -1.212   2.975 -11.312  1.00 47.05     0.002 A 
HETATM   26  CAN   D T1368      -1.243   3.190 -13.704  1.00 48.17     0.081 A 
HETATM   27  CAQ   D T1368       0.012   3.637 -11.275  1.00 49.31     0.000 A 
HETATM   28  CAR   D T1368       0.610   4.076 -12.454  1.00 47.76     0.002 A 
HETATM   29  CAS   D T1368      -0.017   3.850 -13.676  1.00 48.79     0.019 A 
HETATM   30  NAO   D T1368      -2.073   2.840 -14.686  1.00 49.87    -0.244 NA
HETATM   31  CAL   D T1368      -3.153   2.218 -14.208  1.00 50.14     0.099 A 
ENDBRANCH   7  23
TORSDOF 6
ENDMDL
MODEL 3
REMARK VINA RESULT:    -8.060      1.665      6.817
REMARK INTER + INTRA:         -12.669
REMARK INTER:                 -11.019
REMARK INTRA:                  -1.650
REMARK UNBOUND:                -1.782
REMARK  6 active torsions:
REMARK  status: ('A' for Active; 'I' for Inactive)
REMARK    1  A    between atoms: NBC_2  and  CBB_4 
REMARK    2  A    between atoms: CBB_4  and  CBA_5 
REMARK    3  A    between atoms: CBA_5  and  CAY_6 
REMARK    4  A    between atoms: CAY_6  and  NAH_7 
REMARK    5  A    between atoms: CAG_15  and  CAI_16 
REMARK    6  A    between atoms: CAJ_22  and  CAK_23 
ROOT
HETATM    1  CAI   D T1368      -1.547  -0.273  -9.433  1.00 47.54     0.064 A 
HETATM    2  CAT   D T1368      -1.348  -0.308  -8.055  1.00 46.36     0.282 A 
HETATM    3  OAZ   D T1368      -1.359  -1.289  -7.317  1.00 44.28    -0.265 OA
HETATM    4  NAU   D T1368      -1.100   0.950  -7.693  1.00 46.45    -0.169 NA
HETATM    5  CAV   D T1368      -1.116   1.811  -8.710  1.00 47.61     0.282 A 
HETATM    6  OAX   D T1368      -0.889   3.017  -8.659  1.00 47.90    -0.265 OA
HETATM    7  CAJ   D T1368      -1.408   1.050  -9.837  1.00 48.30     0.064 A 
ENDROOT
BRANCH   1   8
HETATM    8  CAG   D T1368      -1.719  -1.404 -10.229  1.00 49.01     0.023 A 
HETATM    9  CAW   D T1368      -2.803  -1.541 -10.991  1.00 50.91     0.076 A 
HETATM   10  NAH   D T1368      -2.665  -2.665 -11.701  1.00 50.74    -0.326 N 
HETATM   11  CAE   D T1368      -1.521  -3.289 -11.432  1.00 49.51     0.060 A 
HETATM   12  CAF   D T1368      -0.908  -4.441 -11.912  1.00 49.09     0.017 A 
HETATM   13  CAD   D T1368      -0.893  -2.489 -10.484  1.00 48.06     0.017 A 
HETATM   14  CAA   D T1368       0.354  -4.792 -11.438  1.00 50.27     0.002 A 
HETATM   15  CAB   D T1368       0.990  -3.995 -10.491  1.00 50.31     0.000 A 
HETATM   16  CAC   D T1368       0.366  -2.845 -10.012  1.00 49.26     0.002 A 
BRANCH  10  17
HETATM   17  CAY   D T1368      -3.609  -3.119 -12.736  1.00 53.65     0.108 C 
BRANCH  17  18
HETATM   18  CBA   D T1368      -4.618  -4.161 -12.242  1.00 61.14     0.048 C 
BRANCH  18  19
HETATM   19  CBB   D T1368      -6.063  -3.848 -12.649  1.00 65.34     0.099 C 
BRANCH  19  20
HETATM   20  NBC   D T1368      -6.584  -2.580 -12.106  1.00 68.16    -0.365 N 
HETATM   21  CBD   D T1368      -6.283  -2.307 -10.694  1.00 68.53     0.121 C 
HETATM   22  CBE   D T1368      -7.817  -2.001 -12.664  1.00 68.44     0.121 C 
ENDBRANCH  19  20
ENDBRANCH  18  19
ENDBRANCH  17  18
ENDBRANCH  10  17
ENDBRANCH   1   8
BRANCH   7  23
HETATM   23  CAK   D T1368      -1.584   1.574 -11.118  1.00 49.21     0.025 A 
HETATM   24  CAM   D T1368      -2.705   1.988 -11.818  1.00 47.19     0.019 A 
HETATM   25  CAP   D T1368      -4.063   2.011 -11.512  1.00 47.05     0.002 A 
HETATM   26  CAN   D T1368      -2.275   2.443 -13.055  1.00 48.17     0.081 A 
HETATM   27  CAQ   D T1368      -4.978   2.482 -12.451  1.00 49.31     0.000 A 
HETATM   28  CAR   D T1368      -4.540   2.934 -13.693  1.00 47.76     0.002 A 
HETATM   29  CAS   D T1368      -3.182   2.918 -13.999  1.00 48.79     0.019 A 
HETATM   30  NAO   D T1368      -0.950   2.297 -13.051  1.00 49.87    -0.244 NA
HETATM   31  CAL   D T1368      -0.524   1.780 -11.896  1.00 50.14     0.099 A 
ENDBRANCH   7  23
TORSDOF 6
ENDMDL
MODEL 4
REMARK VINA RESULT:    -8.005      3.161      6.167
REMARK INTER + INTRA:         -12.594
REMARK INTER:                 -10.613
REMARK INTRA:                  -1.981
REMARK UNBOUND:                -1.782
REMARK  6 active torsions:
REMARK  status: ('A' for Active; 'I' for Inactive)
REMARK    1  A    between atoms: NBC_2  and  CBB_4 
REMARK    2  A    between atoms: CBB_4  and  CBA_5 
REMARK    3  A    between atoms: CBA_5  and  CAY_6 
REMARK    4  A    between atoms: CAY_6  and  NAH_7 
REMARK    5  A    between atoms: CAG_15  and  CAI_16 
REMARK    6  A    between atoms: CAJ_22  and  CAK_23 
ROOT
HETATM    1  CAI   D T1368      -3.364   0.305 -12.241  1.00 47.54     0.064 A 
HETATM    2  CAT   D T1368      -3.540   1.470 -12.984  1.00 46.36     0.282 A 
HETATM    3  OAZ   D T1368      -4.481   1.761 -13.718  1.00 44.28    -0.265 OA
HETATM    4  NAU   D T1368      -2.487   2.239 -12.707  1.00 46.45    -0.169 NA
HETATM    5  CAV   D T1368      -1.634   1.684 -11.846  1.00 47.61     0.282 A 
HETATM    6  OAX   D T1368      -0.606   2.187 -11.400  1.00 47.90    -0.265 OA
HETATM    7  CAJ   D T1368      -2.172   0.439 -11.538  1.00 48.30     0.064 A 
ENDROOT
BRANCH   1   8
HETATM    8  CAG   D T1368      -4.306  -0.718 -12.153  1.00 49.01     0.023 A 
HETATM    9  CAW   D T1368      -5.541  -0.472 -11.717  1.00 50.91     0.076 A 
HETATM   10  NAH   D T1368      -6.243  -1.604 -11.815  1.00 50.74    -0.326 N 
HETATM   11  CAE   D T1368      -5.512  -2.606 -12.299  1.00 49.51     0.060 A 
HETATM   12  CAF   D T1368      -5.775  -3.935 -12.615  1.00 49.09     0.017 A 
HETATM   13  CAD   D T1368      -4.257  -2.054 -12.526  1.00 48.06     0.017 A 
HETATM   14  CAA   D T1368      -4.766  -4.718 -13.169  1.00 50.27     0.002 A 
HETATM   15  CAB   D T1368      -3.507  -4.171 -13.402  1.00 50.31     0.000 A 
HETATM   16  CAC   D T1368      -3.252  -2.841 -13.078  1.00 49.26     0.002 A 
BRANCH  10  17
HETATM   17  CAY   D T1368      -7.682  -1.722 -11.524  1.00 53.65     0.108 C 
BRANCH  17  18
HETATM   18  CBA   D T1368      -8.586  -1.347 -12.704  1.00 61.14     0.048 C 
BRANCH  18  19
HETATM   19  CBB   D T1368      -9.483  -0.136 -12.420  1.00 65.34     0.099 C 
BRANCH  19  20
HETATM   20  NBC   D T1368      -8.749   1.129 -12.227  1.00 68.16    -0.365 N 
HETATM   21  CBD   D T1368      -9.248   2.011 -11.162  1.00 68.53     0.121 C 
HETATM   22  CBE   D T1368      -8.070   1.759 -13.370  1.00 68.44     0.121 C 
ENDBRANCH  19  20
ENDBRANCH  18  19
ENDBRANCH  17  18
ENDBRANCH  10  17
ENDBRANCH   1   8
BRANCH   7  23
HETATM   23  CAK   D T1368      -1.557  -0.502 -10.713  1.00 49.21     0.025 A 
HETATM   24  CAM   D T1368      -0.706  -1.564 -10.971  1.00 47.19     0.019 A 
HETATM   25  CAP   D T1368      -0.172  -2.093 -12.144  1.00 47.05     0.002 A 
HETATM   26  CAN   D T1368      -0.392  -2.148  -9.753  1.00 48.17     0.081 A 
HETATM   27  CAQ   D T1368       0.663  -3.206 -12.085  1.00 49.31     0.000 A 
HETATM   28  CAR   D T1368       0.972  -3.790 -10.860  1.00 47.76     0.002 A 
HETATM   29  CAS   D T1368       0.445  -3.259  -9.686  1.00 48.79     0.019 A 
HETATM   30  NAO   D T1368      -1.041  -1.432  -8.835  1.00 49.87    -0.244 NA
HETATM   31  CAL   D T1368      -1.740  -0.443  -9.397  1.00 50.14     0.099 A 
ENDBRANCH   7  23
TORSDOF 6
ENDMDL
MODEL 5
REMARK VINA RESULT:    -7.911      2.627      4.206
REMARK INTER + INTRA:         -12.468
REMARK INTER:                 -10.811
REMARK INTRA:                  -1.657
REMARK UNBOUND:                -1.782
REMARK  6 active torsions:
REMARK  status: ('A' for Active; 'I' for Inactive)
REMARK    1  A    between atoms: NBC_2  and  CBB_4 
REMARK    2  A    between atoms: CBB_4  and  CBA_5 
REMARK    3  A    between atoms: CBA_5  and  CAY_6 
REMARK    4  A    between atoms: CAY_6  and  NAH_7 
REMARK    5  A    between atoms: CAG_15  and  CAI_16 
REMARK    6  A    between atoms: CAJ_22  and  CAK_23 
ROOT
HETATM    1  CAI   D T1368      -3.250   1.075 -12.277  1.00 47.54     0.064 A 
HETATM    2  CAT   D T1368      -4.270   1.200 -13.216  1.00 46.36     0.282 A 
HETATM    3  OAZ   D T1368      -4.700   2.229 -13.729  1.00 44.28    -0.265 OA
HETATM    4  NAU   D T1368      -4.670  -0.043 -13.484  1.00 46.45    -0.169 NA
HETATM    5  CAV   D T1368      -4.002  -0.976 -12.806  1.00 47.61     0.282 A 
HETATM    6  OAX   D T1368      -4.148  -2.193 -12.888  1.00 47.90    -0.265 OA
HETATM    7  CAJ   D T1368      -3.090  -0.282 -12.018  1.00 48.30     0.064 A 
ENDROOT
BRANCH   1   8
HETATM    8  CAG   D T1368      -2.476   2.137 -11.814  1.00 49.01     0.023 A 
HETATM    9  CAW   D T1368      -2.753   2.726 -10.652  1.00 50.91     0.076 A 
HETATM   10  NAH   D T1368      -1.810   3.645 -10.423  1.00 50.74    -0.326 N 
HETATM   11  CAE   D T1368      -0.911   3.693 -11.403  1.00 49.51     0.060 A 
HETATM   12  CAF   D T1368       0.249   4.430 -11.620  1.00 49.09     0.017 A 
HETATM   13  CAD   D T1368      -1.321   2.725 -12.311  1.00 48.06     0.017 A 
HETATM   14  CAA   D T1368       1.008   4.188 -12.762  1.00 50.27     0.002 A 
HETATM   15  CAB   D T1368       0.605   3.218 -13.675  1.00 50.31     0.000 A 
HETATM   16  CAC   D T1368      -0.560   2.489 -13.452  1.00 49.26     0.002 A 
BRANCH  10  17
HETATM   17  CAY   D T1368      -1.706   4.445  -9.191  1.00 53.65     0.108 C 
BRANCH  17  18
HETATM   18  CBA   D T1368      -0.800   3.824  -8.122  1.00 61.14     0.048 C 
BRANCH  18  19
HETATM   19  CBB   D T1368      -1.001   4.430  -6.729  1.00 65.34     0.099 C 
BRANCH  19  20
HETATM   20  NBC   D T1368      -0.409   5.771  -6.561  1.00 68.16    -0.365 N 
HETATM   21  CBD   D T1368      -1.356   6.877  -6.369  1.00 68.53     0.121 C 
HETATM   22  CBE   D T1368       0.882   6.082  -7.195  1.00 68.44     0.121 C 
ENDBRANCH  19  20
ENDBRANCH  18  19
ENDBRANCH  17  18
ENDBRANCH  10  17
ENDBRANCH   1   8
BRANCH   7  23
HETATM   23  CAK   D T1368      -2.228  -0.880 -11.099  1.00 49.21     0.025 A 
HETATM   24  CAM   D T1368      -1.131  -1.712 -11.244  1.00 47.19     0.019 A 
HETATM   25  CAP   D T1368      -0.502  -2.274 -12.353  1.00 47.05     0.002 A 
HETATM   26  CAN   D T1368      -0.646  -1.982  -9.973  1.00 48.17     0.081 A 
HETATM   27  CAQ   D T1368       0.600  -3.106 -12.177  1.00 49.31     0.000 A 
HETATM   28  CAR   D T1368       1.081  -3.376 -10.898  1.00 47.76     0.002 A 
HETATM   29  CAS   D T1368       0.458  -2.811  -9.789  1.00 48.79     0.019 A 
HETATM   30  NAO   D T1368      -1.441  -1.316  -9.137  1.00 49.87    -0.244 NA
HETATM   31  CAL   D T1368      -2.391  -0.650  -9.798  1.00 50.14     0.099 A 
ENDBRANCH   7  23
TORSDOF 6
ENDMDL
MODEL 6
REMARK VINA RESULT:    -7.907      2.599      6.338
REMARK INTER + INTRA:         -12.463
REMARK INTER:                 -10.048
REMARK INTRA:                  -2.415
REMARK UNBOUND:                -1.782
REMARK  6 active torsions:
REMARK  status: ('A' for Active; 'I' for Inactive)
REMARK    1  A    between atoms: NBC_2  and  CBB_4 
REMARK    2  A    between atoms: CBB_4  and  CBA_5 
REMARK    3  A    between atoms: CBA_5  and  CAY_6 
REMARK    4  A    between atoms: CAY_6  and  NAH_7 
REMARK    5  A    between atoms: CAG_15  and  CAI_16 
REMARK    6  A    between atoms: CAJ_22  and  CAK_23 
ROOT
HETATM    1  CAI   D T1368      -4.489  -1.861 -11.847  1.00 47.54     0.064 A 
HETATM    2  CAT   D T1368      -5.297  -2.995 -11.878  1.00 46.36     0.282 A 
HETATM    3  OAZ   D T1368      -5.027  -4.124 -11.478  1.00 44.28    -0.265 OA
HETATM    4  NAU   D T1368      -6.457  -2.598 -12.400  1.00 46.45    -0.169 NA
HETATM    5  CAV   D T1368      -6.486  -1.303 -12.714  1.00 47.61     0.282 A 
HETATM    6  OAX   D T1368      -7.437  -0.678 -13.177  1.00 47.90    -0.265 OA
HETATM    7  CAJ   D T1368      -5.230  -0.810 -12.375  1.00 48.30     0.064 A 
ENDROOT
BRANCH   1   8
HETATM    8  CAG   D T1368      -3.225  -1.814 -11.262  1.00 49.01     0.023 A 
HETATM    9  CAW   D T1368      -3.027  -1.160 -10.119  1.00 50.91     0.076 A 
HETATM   10  NAH   D T1368      -1.756  -1.351  -9.753  1.00 50.74    -0.326 N 
HETATM   11  CAE   D T1368      -1.093  -2.110 -10.623  1.00 49.51     0.060 A 
HETATM   12  CAF   D T1368       0.202  -2.614 -10.681  1.00 49.09     0.017 A 
HETATM   13  CAD   D T1368      -2.025  -2.423 -11.605  1.00 48.06     0.017 A 
HETATM   14  CAA   D T1368       0.564  -3.445 -11.738  1.00 50.27     0.002 A 
HETATM   15  CAB   D T1368      -0.364  -3.765 -12.725  1.00 50.31     0.000 A 
HETATM   16  CAC   D T1368      -1.658  -3.251 -12.660  1.00 49.26     0.002 A 
BRANCH  10  17
HETATM   17  CAY   D T1368      -1.170  -0.871  -8.490  1.00 53.65     0.108 C 
BRANCH  17  18
HETATM   18  CBA   D T1368      -1.004   0.651  -8.422  1.00 61.14     0.048 C 
BRANCH  18  19
HETATM   19  CBB   D T1368      -0.096   1.213  -9.522  1.00 65.34     0.099 C 
BRANCH  19  20
HETATM   20  NBC   D T1368      -0.807   1.984 -10.559  1.00 68.16    -0.365 N 
HETATM   21  CBD   D T1368      -0.868   1.373 -11.893  1.00 68.53     0.121 C 
HETATM   22  CBE   D T1368      -0.837   3.454 -10.481  1.00 68.44     0.121 C 
ENDBRANCH  19  20
ENDBRANCH  18  19
ENDBRANCH  17  18
ENDBRANCH  10  17
ENDBRANCH   1   8
BRANCH   7  23
HETATM   23  CAK   D T1368      -4.812   0.501 -12.601  1.00 49.21     0.025 A 
HETATM   24  CAM   D T1368      -4.784   1.630 -11.799  1.00 47.19     0.019 A 
HETATM   25  CAP   D T1368      -5.181   1.875 -10.486  1.00 47.05     0.002 A 
HETATM   26  CAN   D T1368      -4.240   2.659 -12.552  1.00 48.17     0.081 A 
HETATM   27  CAQ   D T1368      -5.038   3.150  -9.946  1.00 49.31     0.000 A 
HETATM   28  CAR   D T1368      -4.496   4.181 -10.708  1.00 47.76     0.002 A 
HETATM   29  CAS   D T1368      -4.092   3.936 -12.018  1.00 48.79     0.019 A 
HETATM   30  NAO   D T1368      -3.964   2.126 -13.742  1.00 49.87    -0.244 NA
HETATM   31  CAL   D T1368      -4.299   0.834 -13.783  1.00 50.14     0.099 A 
ENDBRANCH   7  23
TORSDOF 6
ENDMDL
MODEL 7
REMARK VINA RESULT:    -7.906      3.383      7.874
REMARK INTER + INTRA:         -12.462
REMARK INTER:                 -11.700
REMARK INTRA:                  -0.762
REMARK UNBOUND:                -1.782
REMARK  6 active torsions:
REMARK  status: ('A' for Active; 'I' for Inactive)
REMARK    1  A    between atoms: NBC_2  and  CBB_4 
REMARK    2  A    between atoms: CBB_4  and  CBA_5 
REMARK    3  A    between atoms: CBA_5  and  CAY_6 
REMARK    4  A    between atoms: CAY_6  and  NAH_7 
REMARK    5  A    between atoms: CAG_15  and  CAI_16 
REMARK    6  A    between atoms: CAJ_22  and  CAK_23 
ROOT
HETATM    1  CAI   D T1368       1.395   5.044  -8.627  1.00 47.54     0.064 A 
HETATM    2  CAT   D T1368       0.609   5.775  -7.739  1.00 46.36     0.282 A 
HETATM    3  OAZ   D T1368      -0.613   5.751  -7.619  1.00 44.28    -0.265 OA
HETATM    4  NAU   D T1368       1.461   6.488  -7.003  1.00 46.45    -0.169 NA
HETATM    5  CAV   D T1368       2.739   6.291  -7.327  1.00 47.61     0.282 A 
HETATM    6  OAX   D T1368       3.722   6.796  -6.789  1.00 47.90    -0.265 OA
HETATM    7  CAJ   D T1368       2.721   5.374  -8.372  1.00 48.30     0.064 A 
ENDROOT
BRANCH   1   8
HETATM    8  CAG   D T1368       0.900   4.077  -9.499  1.00 49.01     0.023 A 
HETATM    9  CAW   D T1368       0.565   2.867  -9.055  1.00 50.91     0.076 A 
HETATM   10  NAH   D T1368       0.048   2.183 -10.080  1.00 50.74    -0.326 N 
HETATM   11  CAE   D T1368       0.034   2.899 -11.202  1.00 49.51     0.060 A 
HETATM   12  CAF   D T1368      -0.417   2.665 -12.497  1.00 49.09     0.017 A 
HETATM   13  CAD   D T1368       0.578   4.128 -10.848  1.00 48.06     0.017 A 
HETATM   14  CAA   D T1368      -0.325   3.679 -13.447  1.00 50.27     0.002 A 
HETATM   15  CAB   D T1368       0.217   4.913 -13.099  1.00 50.31     0.000 A 
HETATM   16  CAC   D T1368       0.670   5.137 -11.801  1.00 49.26     0.002 A 
BRANCH  10  17
HETATM   17  CAY   D T1368      -0.534   0.835  -9.975  1.00 53.65     0.108 C 
BRANCH  17  18
HETATM   18  CBA   D T1368       0.278  -0.125  -9.098  1.00 61.14     0.048 C 
BRANCH  18  19
HETATM   19  CBB   D T1368      -0.005  -1.603  -9.391  1.00 65.34     0.099 C 
BRANCH  19  20
HETATM   20  NBC   D T1368       1.183  -2.380  -9.789  1.00 68.16    -0.365 N 
HETATM   21  CBD   D T1368       0.926  -3.707 -10.366  1.00 68.53     0.121 C 
HETATM   22  CBE   D T1368       2.455  -2.184  -9.074  1.00 68.44     0.121 C 
ENDBRANCH  19  20
ENDBRANCH  18  19
ENDBRANCH  17  18
ENDBRANCH  10  17
ENDBRANCH   1   8
BRANCH   7  23
HETATM   23  CAK   D T1368       3.856   4.937  -9.056  1.00 49.21     0.025 A 
HETATM   24  CAM   D T1368       4.996   5.589  -9.496  1.00 47.19     0.019 A 
HETATM   25  CAP   D T1368       5.417   6.915  -9.438  1.00 47.05     0.002 A 
HETATM   26  CAN   D T1368       5.805   4.641 -10.103  1.00 48.17     0.081 A 
HETATM   27  CAQ   D T1368       6.639   7.280  -9.997  1.00 49.31     0.000 A 
HETATM   28  CAR   D T1368       7.445   6.324 -10.609  1.00 47.76     0.002 A 
HETATM   29  CAS   D T1368       7.030   4.997 -10.662  1.00 48.79     0.019 A 
HETATM   30  NAO   D T1368       5.144   3.487 -10.003  1.00 49.87    -0.244 NA
HETATM   31  CAL   D T1368       3.977   3.651  -9.376  1.00 50.14     0.099 A 
ENDBRANCH   7  23
TORSDOF 6
ENDMDL
MODEL 8
REMARK VINA RESULT:    -7.884      2.602      4.061
REMARK INTER + INTRA:         -12.432
REMARK INTER:                 -10.172
REMARK INTRA:                  -2.260
REMARK UNBOUND:                -1.782
REMARK  6 active torsions:
REMARK  status: ('A' for Active; 'I' for Inactive)
REMARK    1  A    between atoms: NBC_2  and  CBB_4 
REMARK    2  A    between atoms: CBB_4  and  CBA_5 
REMARK    3  A    between atoms: CBA_5  and  CAY_6 
REMARK    4  A    between atoms: CAY_6  and  NAH_7 
REMARK    5  A    between atoms: CAG_15  and  CAI_16 
REMARK    6  A    between atoms: CAJ_22  and  CAK_23 
ROOT
HETATM    1  CAI   D T1368      -4.425  -1.828 -11.991  1.00 47.54     0.064 A 
HETATM    2  CAT   D T1368      -5.655  -2.455 -12.174  1.00 46.36     0.282 A 
HETATM    3  OAZ   D T1368      -6.759  -1.930 -12.292  1.00 44.28    -0.265 OA
HETATM    4  NAU   D T1368      -5.390  -3.760 -12.238  1.00 46.45    -0.169 NA
HETATM    5  CAV   D T1368      -4.094  -4.047 -12.115  1.00 47.61     0.282 A 
HETATM    6  OAX   D T1368      -3.578  -5.161 -12.169  1.00 47.90    -0.265 OA
HETATM    7  CAJ   D T1368      -3.456  -2.823 -11.947  1.00 48.30     0.064 A 
ENDROOT
BRANCH   1   8
HETATM    8  CAG   D T1368      -4.242  -0.446 -11.990  1.00 49.01     0.023 A 
HETATM    9  CAW   D T1368      -3.829   0.187 -13.087  1.00 50.91     0.076 A 
HETATM   10  NAH   D T1368      -3.822   1.497 -12.825  1.00 50.74    -0.326 N 
HETATM   11  CAE   D T1368      -4.214   1.761 -11.580  1.00 49.51     0.060 A 
HETATM   12  CAF   D T1368      -4.406   2.929 -10.851  1.00 49.09     0.017 A 
HETATM   13  CAD   D T1368      -4.492   0.518 -11.024  1.00 48.06     0.017 A 
HETATM   14  CAA   D T1368      -4.888   2.849  -9.547  1.00 50.27     0.002 A 
HETATM   15  CAB   D T1368      -5.171   1.608  -8.983  1.00 50.31     0.000 A 
HETATM   16  CAC   D T1368      -4.971   0.443  -9.720  1.00 49.26     0.002 A 
BRANCH  10  17
HETATM   17  CAY   D T1368      -3.520   2.544 -13.816  1.00 53.65     0.108 C 
BRANCH  17  18
HETATM   18  CBA   D T1368      -2.021   2.769 -14.042  1.00 61.14     0.048 C 
BRANCH  18  19
HETATM   19  CBB   D T1368      -1.357   3.598 -12.936  1.00 65.34     0.099 C 
BRANCH  19  20
HETATM   20  NBC   D T1368      -0.295   2.887 -12.200  1.00 68.16    -0.365 N 
HETATM   21  CBD   D T1368      -0.547   1.468 -11.910  1.00 68.53     0.121 C 
HETATM   22  CBE   D T1368       0.568   3.629 -11.269  1.00 68.44     0.121 C 
ENDBRANCH  19  20
ENDBRANCH  18  19
ENDBRANCH  17  18
ENDBRANCH  10  17
ENDBRANCH   1   8
BRANCH   7  23
HETATM   23  CAK   D T1368      -2.088  -2.673 -11.716  1.00 49.21     0.025 A 
HETATM   24  CAM   D T1368      -1.367  -2.111 -10.676  1.00 47.19     0.019 A 
HETATM   25  CAP   D T1368      -1.740  -1.473  -9.495  1.00 47.05     0.002 A 
HETATM   26  CAN   D T1368      -0.022  -2.264 -10.975  1.00 48.17     0.081 A 
HETATM   27  CAQ   D T1368      -0.762  -0.987  -8.631  1.00 49.31     0.000 A 
HETATM   28  CAR   D T1368       0.587  -1.140  -8.939  1.00 47.76     0.002 A 
HETATM   29  CAS   D T1368       0.962  -1.784 -10.115  1.00 48.79     0.019 A 
HETATM   30  NAO   D T1368       0.015  -2.899 -12.146  1.00 49.87    -0.244 NA
HETATM   31  CAL   D T1368      -1.215  -3.152 -12.599  1.00 50.14     0.099 A 
ENDBRANCH   7  23
TORSDOF 6
ENDMDL
MODEL 9
REMARK VINA RESULT:    -7.757      2.248      3.652
REMARK INTER + INTRA:         -12.259
REMARK INTER:                 -10.523
REMARK INTRA:                  -1.736
REMARK UNBOUND:                -1.782
REMARK  6 active torsions:
REMARK  status: ('A' for Active; 'I' for Inactive)
REMARK    1  A    between atoms: NBC_2  and  CBB_4 
REMARK    2  A    between atoms: CBB_4  and  CBA_5 
REMARK    3  A    between atoms: CBA_5  and  CAY_6 
REMARK    4  A    between atoms: CAY_6  and  NAH_7 
REMARK    5  A    between atoms: CAG_15  and  CAI_16 
REMARK    6  A    between atoms: CAJ_22  and  CAK_23 
ROOT
HETATM    1  CAI   D T1368      -2.977   1.826 -10.423  1.00 47.54     0.064 A 
HETATM    2  CAT   D T1368      -4.283   2.250 -10.650  1.00 46.36     0.282 A 
HETATM    3  OAZ   D T1368      -4.668   3.375 -10.957  1.00 44.28    -0.265 OA
HETATM    4  NAU   D T1368      -5.046   1.167 -10.504  1.00 46.45    -0.169 NA
HETATM    5  CAV   D T1368      -4.358   0.067 -10.203  1.00 47.61     0.282 A 
HETATM    6  OAX   D T1368      -4.809  -1.066 -10.047  1.00 47.90    -0.265 OA
HETATM    7  CAJ   D T1368      -3.027   0.466 -10.138  1.00 48.30     0.064 A 
ENDROOT
BRANCH   1   8
HETATM    8  CAG   D T1368      -1.851   2.629 -10.593  1.00 49.01     0.023 A 
HETATM    9  CAW   D T1368      -1.288   3.242  -9.553  1.00 50.91     0.076 A 
HETATM   10  NAH   D T1368      -0.191   3.867  -9.990  1.00 50.74    -0.326 N 
HETATM   11  CAE   D T1368      -0.006   3.697 -11.297  1.00 49.51     0.060 A 
HETATM   12  CAF   D T1368       0.973   4.101 -12.199  1.00 49.09     0.017 A 
HETATM   13  CAD   D T1368      -1.066   2.897 -11.706  1.00 48.06     0.017 A 
HETATM   14  CAA   D T1368       0.888   3.692 -13.528  1.00 50.27     0.002 A 
HETATM   15  CAB   D T1368      -0.171   2.890 -13.945  1.00 50.31     0.000 A 
HETATM   16  CAC   D T1368      -1.149   2.495 -13.035  1.00 49.26     0.002 A 
BRANCH  10  17
HETATM   17  CAY   D T1368       0.765   4.579  -9.125  1.00 53.65     0.108 C 
BRANCH  17  18
HETATM   18  CBA   D T1368       2.208   4.079  -9.252  1.00 61.14     0.048 C 
BRANCH  18  19
HETATM   19  CBB   D T1368       3.254   5.169  -8.992  1.00 65.34     0.099 C 
BRANCH  19  20
HETATM   20  NBC   D T1368       4.538   4.955  -9.684  1.00 68.16    -0.365 N 
HETATM   21  CBD   D T1368       5.434   6.117  -9.761  1.00 68.53     0.121 C 
HETATM   22  CBE   D T1368       4.628   3.953 -10.758  1.00 68.44     0.121 C 
ENDBRANCH  19  20
ENDBRANCH  18  19
ENDBRANCH  17  18
ENDBRANCH  10  17
ENDBRANCH   1   8
BRANCH   7  23
HETATM   23  CAK   D T1368      -1.970  -0.371  -9.784  1.00 49.21     0.025 A 
HETATM   24  CAM   D T1368      -1.160  -1.223 -10.518  1.00 47.19     0.019 A 
HETATM   25  CAP   D T1368      -1.119  -1.572 -11.865  1.00 47.05     0.002 A 
HETATM   26  CAN   D T1368      -0.253  -1.792  -9.636  1.00 48.17     0.081 A 
HETATM   27  CAQ   D T1368      -0.176  -2.493 -12.315  1.00 49.31     0.000 A 
HETATM   28  CAR   D T1368       0.729  -3.064 -11.425  1.00 47.76     0.002 A 
HETATM   29  CAS   D T1368       0.695  -2.712 -10.079  1.00 48.79     0.019 A 
HETATM   30  NAO   D T1368      -0.538  -1.272  -8.443  1.00 49.87    -0.244 NA
HETATM   31  CAL   D T1368      -1.562  -0.418  -8.518  1.00 50.14     0.099 A 
ENDBRANCH   7  23
TORSDOF 6
ENDMDL
