MODEL 1
REMARK VINA RESULT:    -7.794      0.000      0.000
REMARK INTER + INTRA:         -12.268
REMARK INTER:                 -10.528
REMARK INTRA:                  -1.739
REMARK UNBOUND:                -1.739
REMARK  6 active torsions:
REMARK  status: ('A' for Active; 'I' for Inactive)
REMARK    1  A    between atoms: NBC_2  and  CBB_4 
REMARK    2  A    between atoms: CBB_4  and  CBA_5 
REMARK    3  A    between atoms: CBA_5  and  CAY_6 
REMARK    4  A    between atoms: CAY_6  and  NAH_7 
REMARK    5  A    between atoms: CAG_15  and  CAI_16 
REMARK    6  A    between atoms: CAJ_22  and  CAK_23 
ROOT
HETATM    1  CAI   D T1368       9.287   1.910  -4.207  1.00 47.54     0.064 A 
HETATM    2  CAT   D T1368      10.012   0.735  -4.383  1.00 46.36     0.282 A 
HETATM    3  OAZ   D T1368      10.989   0.349  -3.746  1.00 44.28    -0.265 OA
HETATM    4  NAU   D T1368       9.403   0.079  -5.371  1.00 46.45    -0.169 NA
HETATM    5  CAV   D T1368       8.341   0.718  -5.862  1.00 47.61     0.282 A 
HETATM    6  OAX   D T1368       7.588   0.323  -6.747  1.00 47.90    -0.265 OA
HETATM    7  CAJ   D T1368       8.251   1.901  -5.134  1.00 48.30     0.064 A 
ENDROOT
BRANCH   1   8
HETATM    8  CAG   D T1368       9.521   2.832  -3.188  1.00 49.01     0.023 A 
HETATM    9  CAW   D T1368       9.602   2.435  -1.918  1.00 50.91     0.076 A 
HETATM   10  NAH   D T1368       9.913   3.503  -1.175  1.00 50.74    -0.326 N 
HETATM   11  CAE   D T1368      10.037   4.605  -1.913  1.00 49.51     0.060 A 
HETATM   12  CAF   D T1368      10.373   5.927  -1.632  1.00 49.09     0.017 A 
HETATM   13  CAD   D T1368       9.790   4.192  -3.216  1.00 48.06     0.017 A 
HETATM   14  CAA   D T1368      10.466   6.842  -2.676  1.00 50.27     0.002 A 
HETATM   15  CAB   D T1368      10.222   6.436  -3.985  1.00 50.31     0.000 A 
HETATM   16  CAC   D T1368       9.882   5.112  -4.255  1.00 49.26     0.002 A 
BRANCH  10  17
HETATM   17  CAY   D T1368      10.190   3.462   0.270  1.00 53.65     0.108 C 
BRANCH  17  18
HETATM   18  CBA   D T1368      11.527   2.801   0.626  1.00 61.14     0.048 C 
BRANCH  18  19
HETATM   19  CBB   D T1368      11.378   1.588   1.549  1.00 65.34     0.099 C 
BRANCH  19  20
HETATM   20  NBC   D T1368      10.734   0.420   0.918  1.00 68.16    -0.365 N 
HETATM   21  CBD   D T1368       9.338   0.166   1.295  1.00 68.53     0.121 C 
HETATM   22  CBE   D T1368      11.553  -0.737   0.524  1.00 68.44     0.121 C 
ENDBRANCH  19  20
ENDBRANCH  18  19
ENDBRANCH  17  18
ENDBRANCH  10  17
ENDBRANCH   1   8
BRANCH   7  23
HETATM   23  CAK   D T1368       7.307   2.899  -5.371  1.00 49.21     0.025 A 
HETATM   24  CAM   D T1368       7.158   3.827  -6.389  1.00 47.19     0.019 A 
HETATM   25  CAP   D T1368       7.901   4.118  -7.530  1.00 47.05     0.002 A 
HETATM   26  CAN   D T1368       6.015   4.565  -6.112  1.00 48.17     0.081 A 
HETATM   27  CAQ   D T1368       7.498   5.145  -8.378  1.00 49.31     0.000 A 
HETATM   28  CAR   D T1368       6.351   5.884  -8.092  1.00 47.76     0.002 A 
HETATM   29  CAS   D T1368       5.604   5.592  -6.957  1.00 48.79     0.019 A 
HETATM   30  NAO   D T1368       5.530   4.062  -4.976  1.00 49.87    -0.244 NA
HETATM   31  CAL   D T1368       6.294   3.063  -4.523  1.00 50.14     0.099 A 
ENDBRANCH   7  23
TORSDOF 6
ENDMDL
MODEL 2
REMARK VINA RESULT:    -7.372      2.447      7.569
REMARK INTER + INTRA:         -11.697
REMARK INTER:                  -9.825
REMARK INTRA:                  -1.873
REMARK UNBOUND:                -1.739
REMARK  6 active torsions:
REMARK  status: ('A' for Active; 'I' for Inactive)
REMARK    1  A    between atoms: NBC_2  and  CBB_4 
REMARK    2  A    between atoms: CBB_4  and  CBA_5 
REMARK    3  A    between atoms: CBA_5  and  CAY_6 
REMARK    4  A    between atoms: CAY_6  and  NAH_7 
REMARK    5  A    between atoms: CAG_15  and  CAI_16 
REMARK    6  A    between atoms: CAJ_22  and  CAK_23 
ROOT
HETATM    1  CAI   D T1368       9.668   4.861  -3.061  1.00 47.54     0.064 A 
HETATM    2  CAT   D T1368      10.141   6.057  -3.596  1.00 46.36     0.282 A 
HETATM    3  OAZ   D T1368      10.072   6.441  -4.760  1.00 44.28    -0.265 OA
HETATM    4  NAU   D T1368      10.660   6.732  -2.570  1.00 46.45    -0.169 NA
HETATM    5  CAV   D T1368      10.570   6.088  -1.407  1.00 47.61     0.282 A 
HETATM    6  OAX   D T1368      10.937   6.496  -0.308  1.00 47.90    -0.265 OA
HETATM    7  CAJ   D T1368       9.942   4.880  -1.698  1.00 48.30     0.064 A 
ENDROOT
BRANCH   1   8
HETATM    8  CAG   D T1368       8.944   3.912  -3.780  1.00 49.01     0.023 A 
HETATM    9  CAW   D T1368       7.706   4.175  -4.199  1.00 50.91     0.076 A 
HETATM   10  NAH   D T1368       7.290   3.132  -4.925  1.00 50.74    -0.326 N 
HETATM   11  CAE   D T1368       8.213   2.175  -4.999  1.00 49.51     0.060 A 
HETATM   12  CAF   D T1368       8.283   0.943  -5.643  1.00 49.09     0.017 A 
HETATM   13  CAD   D T1368       9.290   2.661  -4.268  1.00 48.06     0.017 A 
HETATM   14  CAA   D T1368       9.452   0.193  -5.554  1.00 50.27     0.002 A 
HETATM   15  CAB   D T1368      10.537   0.674  -4.825  1.00 50.31     0.000 A 
HETATM   16  CAC   D T1368      10.455   1.906  -4.180  1.00 49.26     0.002 A 
BRANCH  10  17
HETATM   17  CAY   D T1368       6.009   3.077  -5.648  1.00 53.65     0.108 C 
BRANCH  17  18
HETATM   18  CBA   D T1368       5.934   4.025  -6.850  1.00 61.14     0.048 C 
BRANCH  18  19
HETATM   19  CBB   D T1368       6.684   3.506  -8.081  1.00 65.34     0.099 C 
BRANCH  19  20
HETATM   20  NBC   D T1368       5.830   2.810  -9.062  1.00 68.16    -0.365 N 
HETATM   21  CBD   D T1368       4.805   3.626  -9.725  1.00 68.53     0.121 C 
HETATM   22  CBE   D T1368       5.554   1.374  -8.898  1.00 68.44     0.121 C 
ENDBRANCH  19  20
ENDBRANCH  18  19
ENDBRANCH  17  18
ENDBRANCH  10  17
ENDBRANCH   1   8
BRANCH   7  23
HETATM   23  CAK   D T1368       9.708   3.871  -0.765  1.00 49.21     0.025 A 
HETATM   24  CAM   D T1368      10.334   2.662  -0.512  1.00 47.19     0.019 A 
HETATM   25  CAP   D T1368      11.407   2.003  -1.107  1.00 47.05     0.002 A 
HETATM   26  CAN   D T1368       9.677   2.071   0.558  1.00 48.17     0.081 A 
HETATM   27  CAQ   D T1368      11.807   0.758  -0.629  1.00 49.31     0.000 A 
HETATM   28  CAR   D T1368      11.141   0.169   0.444  1.00 47.76     0.002 A 
HETATM   29  CAS   D T1368      10.073   0.828   1.043  1.00 48.79     0.019 A 
HETATM   30  NAO   D T1368       8.714   2.927   0.903  1.00 49.87    -0.244 NA
HETATM   31  CAL   D T1368       8.722   4.009   0.120  1.00 50.14     0.099 A 
ENDBRANCH   7  23
TORSDOF 6
ENDMDL
MODEL 3
REMARK VINA RESULT:    -7.369      2.747      7.368
REMARK INTER + INTRA:         -11.694
REMARK INTER:                 -11.023
REMARK INTRA:                  -0.671
REMARK UNBOUND:                -1.739
REMARK  6 active torsions:
REMARK  status: ('A' for Active; 'I' for Inactive)
REMARK    1  A    between atoms: NBC_2  and  CBB_4 
REMARK    2  A    between atoms: CBB_4  and  CBA_5 
REMARK    3  A    between atoms: CBA_5  and  CAY_6 
REMARK    4  A    between atoms: CAY_6  and  NAH_7 
REMARK    5  A    between atoms: CAG_15  and  CAI_16 
REMARK    6  A    between atoms: CAJ_22  and  CAK_23 
ROOT
HETATM    1  CAI   D T1368       7.060   1.480  -7.175  1.00 47.54     0.064 A 
HETATM    2  CAT   D T1368       7.288   0.319  -7.910  1.00 46.36     0.282 A 
HETATM    3  OAZ   D T1368       7.061   0.124  -9.101  1.00 44.28    -0.265 OA
HETATM    4  NAU   D T1368       7.848  -0.542  -7.061  1.00 46.45    -0.169 NA
HETATM    5  CAV   D T1368       8.010  -0.052  -5.832  1.00 47.61     0.282 A 
HETATM    6  OAX   D T1368       8.526  -0.620  -4.874  1.00 47.90    -0.265 OA
HETATM    7  CAJ   D T1368       7.504   1.244  -5.879  1.00 48.30     0.064 A 
ENDROOT
BRANCH   1   8
HETATM    8  CAG   D T1368       6.590   2.674  -7.720  1.00 49.01     0.023 A 
HETATM    9  CAW   D T1368       7.168   3.835  -7.414  1.00 50.91     0.076 A 
HETATM   10  NAH   D T1368       6.574   4.791  -8.136  1.00 50.74    -0.326 N 
HETATM   11  CAE   D T1368       5.610   4.302  -8.914  1.00 49.51     0.060 A 
HETATM   12  CAF   D T1368       4.743   4.859  -9.851  1.00 49.09     0.017 A 
HETATM   13  CAD   D T1368       5.606   2.936  -8.662  1.00 48.06     0.017 A 
HETATM   14  CAA   D T1368       3.867   4.030 -10.546  1.00 50.27     0.002 A 
HETATM   15  CAB   D T1368       3.859   2.660 -10.300  1.00 50.31     0.000 A 
HETATM   16  CAC   D T1368       4.726   2.112  -9.357  1.00 49.26     0.002 A 
BRANCH  10  17
HETATM   17  CAY   D T1368       6.992   6.202  -8.157  1.00 53.65     0.108 C 
BRANCH  17  18
HETATM   18  CBA   D T1368       6.462   7.023  -6.976  1.00 61.14     0.048 C 
BRANCH  18  19
HETATM   19  CBB   D T1368       7.374   8.192  -6.592  1.00 65.34     0.099 C 
BRANCH  19  20
HETATM   20  NBC   D T1368       6.657   9.434  -6.248  1.00 68.16    -0.365 N 
HETATM   21  CBD   D T1368       7.260  10.262  -5.196  1.00 68.53     0.121 C 
HETATM   22  CBE   D T1368       5.195   9.499  -6.409  1.00 68.44     0.121 C 
ENDBRANCH  19  20
ENDBRANCH  18  19
ENDBRANCH  17  18
ENDBRANCH  10  17
ENDBRANCH   1   8
BRANCH   7  23
HETATM   23  CAK   D T1368       7.420   2.096  -4.779  1.00 49.21     0.025 A 
HETATM   24  CAM   D T1368       8.380   2.727  -4.005  1.00 47.19     0.019 A 
HETATM   25  CAP   D T1368       9.772   2.725  -4.026  1.00 47.05     0.002 A 
HETATM   26  CAN   D T1368       7.712   3.475  -3.045  1.00 48.17     0.081 A 
HETATM   27  CAQ   D T1368      10.481   3.466  -3.084  1.00 49.31     0.000 A 
HETATM   28  CAR   D T1368       9.804   4.212  -2.122  1.00 47.76     0.002 A 
HETATM   29  CAS   D T1368       8.414   4.220  -2.102  1.00 48.79     0.019 A 
HETATM   30  NAO   D T1368       6.414   3.278  -3.277  1.00 49.87    -0.244 NA
HETATM   31  CAL   D T1368       6.225   2.455  -4.314  1.00 50.14     0.099 A 
ENDBRANCH   7  23
TORSDOF 6
ENDMDL
MODEL 4
REMARK VINA RESULT:    -7.350      1.410      2.492
REMARK INTER + INTRA:         -11.668
REMARK INTER:                 -10.067
REMARK INTRA:                  -1.601
REMARK UNBOUND:                -1.739
REMARK  6 active torsions:
REMARK  status: ('A' for Active; 'I' for Inactive)
REMARK    1  A    between atoms: NBC_2  and  CBB_4 
REMARK    2  A    between atoms: CBB_4  and  CBA_5 
REMARK    3  A    between atoms: CBA_5  and  CAY_6 
REMARK    4  A    between atoms: CAY_6  and  NAH_7 
REMARK    5  A    between atoms: CAG_15  and  CAI_16 
REMARK    6  A    between atoms: CAJ_22  and  CAK_23 
ROOT
HETATM    1  CAI   D T1368       9.462   1.938  -4.029  1.00 47.54     0.064 A 
HETATM    2  CAT   D T1368      10.206   0.769  -4.164  1.00 46.36     0.282 A 
HETATM    3  OAZ   D T1368      11.203   0.433  -3.531  1.00 44.28    -0.265 OA
HETATM    4  NAU   D T1368       9.589   0.055  -5.105  1.00 46.45    -0.169 NA
HETATM    5  CAV   D T1368       8.505   0.649  -5.602  1.00 47.61     0.282 A 
HETATM    6  OAX   D T1368       7.741   0.197  -6.451  1.00 47.90    -0.265 OA
HETATM    7  CAJ   D T1368       8.406   1.864  -4.931  1.00 48.30     0.064 A 
ENDROOT
BRANCH   1   8
HETATM    8  CAG   D T1368       9.699   2.913  -3.062  1.00 49.01     0.023 A 
HETATM    9  CAW   D T1368       9.850   2.577  -1.781  1.00 50.91     0.076 A 
HETATM   10  NAH   D T1368      10.147   3.688  -1.098  1.00 50.74    -0.326 N 
HETATM   11  CAE   D T1368      10.194   4.760  -1.887  1.00 49.51     0.060 A 
HETATM   12  CAF   D T1368      10.485   6.105  -1.678  1.00 49.09     0.017 A 
HETATM   13  CAD   D T1368       9.910   4.280  -3.159  1.00 48.06     0.017 A 
HETATM   14  CAA   D T1368      10.497   6.977  -2.764  1.00 50.27     0.002 A 
HETATM   15  CAB   D T1368      10.216   6.503  -4.042  1.00 50.31     0.000 A 
HETATM   16  CAC   D T1368       9.920   5.156  -4.240  1.00 49.26     0.002 A 
BRANCH  10  17
HETATM   17  CAY   D T1368      10.485   3.723   0.334  1.00 53.65     0.108 C 
BRANCH  17  18
HETATM   18  CBA   D T1368       9.369   4.286   1.221  1.00 61.14     0.048 C 
BRANCH  18  19
HETATM   19  CBB   D T1368       9.880   5.230   2.314  1.00 65.34     0.099 C 
BRANCH  19  20
HETATM   20  NBC   D T1368      10.262   6.570   1.829  1.00 68.16    -0.365 N 
HETATM   21  CBD   D T1368      11.700   6.811   1.653  1.00 68.53     0.121 C 
HETATM   22  CBE   D T1368       9.413   7.729   2.149  1.00 68.44     0.121 C 
ENDBRANCH  19  20
ENDBRANCH  18  19
ENDBRANCH  17  18
ENDBRANCH  10  17
ENDBRANCH   1   8
BRANCH   7  23
HETATM   23  CAK   D T1368       7.439   2.832  -5.196  1.00 49.21     0.025 A 
HETATM   24  CAM   D T1368       7.282   3.746  -6.225  1.00 47.19     0.019 A 
HETATM   25  CAP   D T1368       8.039   4.049  -7.353  1.00 47.05     0.002 A 
HETATM   26  CAN   D T1368       6.113   4.452  -5.977  1.00 48.17     0.081 A 
HETATM   27  CAQ   D T1368       7.622   5.057  -8.218  1.00 49.31     0.000 A 
HETATM   28  CAR   D T1368       6.449   5.764  -7.962  1.00 47.76     0.002 A 
HETATM   29  CAS   D T1368       5.688   5.460  -6.838  1.00 48.79     0.019 A 
HETATM   30  NAO   D T1368       5.621   3.944  -4.846  1.00 49.87    -0.244 NA
HETATM   31  CAL   D T1368       6.405   2.972  -4.369  1.00 50.14     0.099 A 
ENDBRANCH   7  23
TORSDOF 6
ENDMDL
MODEL 5
REMARK VINA RESULT:    -7.299      1.714      4.056
REMARK INTER + INTRA:         -11.598
REMARK INTER:                 -10.038
REMARK INTRA:                  -1.560
REMARK UNBOUND:                -1.739
REMARK  6 active torsions:
REMARK  status: ('A' for Active; 'I' for Inactive)
REMARK    1  A    between atoms: NBC_2  and  CBB_4 
REMARK    2  A    between atoms: CBB_4  and  CBA_5 
REMARK    3  A    between atoms: CBA_5  and  CAY_6 
REMARK    4  A    between atoms: CAY_6  and  NAH_7 
REMARK    5  A    between atoms: CAG_15  and  CAI_16 
REMARK    6  A    between atoms: CAJ_22  and  CAK_23 
ROOT
HETATM    1  CAI   D T1368       9.544   1.960  -3.967  1.00 47.54     0.064 A 
HETATM    2  CAT   D T1368      10.293   0.794  -4.109  1.00 46.36     0.282 A 
HETATM    3  OAZ   D T1368      11.301   0.466  -3.489  1.00 44.28    -0.265 OA
HETATM    4  NAU   D T1368       9.668   0.074  -5.040  1.00 46.45    -0.169 NA
HETATM    5  CAV   D T1368       8.574   0.661  -5.524  1.00 47.61     0.282 A 
HETATM    6  OAX   D T1368       7.801   0.203  -6.362  1.00 47.90    -0.265 OA
HETATM    7  CAJ   D T1368       8.477   1.877  -4.855  1.00 48.30     0.064 A 
ENDROOT
BRANCH   1   8
HETATM    8  CAG   D T1368       9.790   2.938  -3.005  1.00 49.01     0.023 A 
HETATM    9  CAW   D T1368      10.154   4.168  -3.364  1.00 50.91     0.076 A 
HETATM   10  NAH   D T1368      10.238   4.910  -2.255  1.00 50.74    -0.326 N 
HETATM   11  CAE   D T1368       9.946   4.208  -1.161  1.00 49.51     0.060 A 
HETATM   12  CAF   D T1368       9.858   4.514   0.194  1.00 49.09     0.017 A 
HETATM   13  CAD   D T1368       9.651   2.932  -1.625  1.00 48.06     0.017 A 
HETATM   14  CAA   D T1368       9.464   3.527   1.092  1.00 50.27     0.002 A 
HETATM   15  CAB   D T1368       9.164   2.246   0.635  1.00 50.31     0.000 A 
HETATM   16  CAC   D T1368       9.260   1.948  -0.723  1.00 49.26     0.002 A 
BRANCH  10  17
HETATM   17  CAY   D T1368      10.518   6.355  -2.236  1.00 53.65     0.108 C 
BRANCH  17  18
HETATM   18  CBA   D T1368       9.298   7.218  -1.892  1.00 61.14     0.048 C 
BRANCH  18  19
HETATM   19  CBB   D T1368       9.621   8.712  -1.788  1.00 65.34     0.099 C 
BRANCH  19  20
HETATM   20  NBC   D T1368       9.317   9.308  -0.473  1.00 68.16    -0.365 N 
HETATM   21  CBD   D T1368       9.035   8.366   0.618  1.00 68.53     0.121 C 
HETATM   22  CBE   D T1368       8.685  10.635  -0.405  1.00 68.44     0.121 C 
ENDBRANCH  19  20
ENDBRANCH  18  19
ENDBRANCH  17  18
ENDBRANCH  10  17
ENDBRANCH   1   8
BRANCH   7  23
HETATM   23  CAK   D T1368       7.501   2.839  -5.109  1.00 49.21     0.025 A 
HETATM   24  CAM   D T1368       7.324   3.749  -6.138  1.00 47.19     0.019 A 
HETATM   25  CAP   D T1368       8.062   4.052  -7.279  1.00 47.05     0.002 A 
HETATM   26  CAN   D T1368       6.155   4.449  -5.875  1.00 48.17     0.081 A 
HETATM   27  CAQ   D T1368       7.628   5.054  -8.141  1.00 49.31     0.000 A 
HETATM   28  CAR   D T1368       6.455   5.756  -7.870  1.00 47.76     0.002 A 
HETATM   29  CAS   D T1368       5.712   5.452  -6.734  1.00 48.79     0.019 A 
HETATM   30  NAO   D T1368       5.682   3.943  -4.736  1.00 49.87    -0.244 NA
HETATM   31  CAL   D T1368       6.478   2.977  -4.267  1.00 50.14     0.099 A 
ENDBRANCH   7  23
TORSDOF 6
ENDMDL
MODEL 6
REMARK VINA RESULT:    -7.248      2.429      7.072
REMARK INTER + INTRA:         -11.530
REMARK INTER:                 -10.184
REMARK INTRA:                  -1.346
REMARK UNBOUND:                -1.739
REMARK  6 active torsions:
REMARK  status: ('A' for Active; 'I' for Inactive)
REMARK    1  A    between atoms: NBC_2  and  CBB_4 
REMARK    2  A    between atoms: CBB_4  and  CBA_5 
REMARK    3  A    between atoms: CBA_5  and  CAY_6 
REMARK    4  A    between atoms: CAY_6  and  NAH_7 
REMARK    5  A    between atoms: CAG_15  and  CAI_16 
REMARK    6  A    between atoms: CAJ_22  and  CAK_23 
ROOT
HETATM    1  CAI   D T1368       9.327   3.167  -0.571  1.00 47.54     0.064 A 
HETATM    2  CAT   D T1368       9.526   2.343   0.534  1.00 46.36     0.282 A 
HETATM    3  OAZ   D T1368       9.185   1.171   0.672  1.00 44.28    -0.265 OA
HETATM    4  NAU   D T1368      10.206   3.078   1.414  1.00 46.45    -0.169 NA
HETATM    5  CAV   D T1368      10.473   4.312   0.987  1.00 47.61     0.282 A 
HETATM    6  OAX   D T1368      11.109   5.176   1.584  1.00 47.90    -0.265 OA
HETATM    7  CAJ   D T1368       9.911   4.395  -0.284  1.00 48.30     0.064 A 
ENDROOT
BRANCH   1   8
HETATM    8  CAG   D T1368       8.754   2.746  -1.770  1.00 49.01     0.023 A 
HETATM    9  CAW   D T1368       7.561   3.202  -2.151  1.00 50.91     0.076 A 
HETATM   10  NAH   D T1368       7.300   2.703  -3.364  1.00 50.74    -0.326 N 
HETATM   11  CAE   D T1368       8.284   1.920  -3.804  1.00 49.51     0.060 A 
HETATM   12  CAF   D T1368       8.507   1.212  -4.981  1.00 49.09     0.017 A 
HETATM   13  CAD   D T1368       9.234   1.937  -2.790  1.00 48.06     0.017 A 
HETATM   14  CAA   D T1368       9.703   0.517  -5.142  1.00 50.27     0.002 A 
HETATM   15  CAB   D T1368      10.660   0.531  -4.132  1.00 50.31     0.000 A 
HETATM   16  CAC   D T1368      10.426   1.239  -2.955  1.00 49.26     0.002 A 
BRANCH  10  17
HETATM   17  CAY   D T1368       6.120   3.048  -4.173  1.00 53.65     0.108 C 
BRANCH  17  18
HETATM   18  CBA   D T1368       6.394   4.108  -5.247  1.00 61.14     0.048 C 
BRANCH  18  19
HETATM   19  CBB   D T1368       6.110   3.617  -6.670  1.00 65.34     0.099 C 
BRANCH  19  20
HETATM   20  NBC   D T1368       5.601   4.660  -7.581  1.00 68.16    -0.365 N 
HETATM   21  CBD   D T1368       5.395   4.256  -8.978  1.00 68.53     0.121 C 
HETATM   22  CBE   D T1368       5.922   6.073  -7.322  1.00 68.44     0.121 C 
ENDBRANCH  19  20
ENDBRANCH  18  19
ENDBRANCH  17  18
ENDBRANCH  10  17
ENDBRANCH   1   8
BRANCH   7  23
HETATM   23  CAK   D T1368       9.906   5.548  -1.067  1.00 49.21     0.025 A 
HETATM   24  CAM   D T1368       9.465   6.840  -0.833  1.00 47.19     0.019 A 
HETATM   25  CAP   D T1368       8.849   7.454   0.254  1.00 47.05     0.002 A 
HETATM   26  CAN   D T1368       9.733   7.582  -1.975  1.00 48.17     0.081 A 
HETATM   27  CAQ   D T1368       8.501   8.800   0.185  1.00 49.31     0.000 A 
HETATM   28  CAR   D T1368       8.770   9.538  -0.966  1.00 47.76     0.002 A 
HETATM   29  CAS   D T1368       9.391   8.929  -2.051  1.00 48.79     0.019 A 
HETATM   30  NAO   D T1368      10.316   6.734  -2.825  1.00 49.87    -0.244 NA
HETATM   31  CAL   D T1368      10.427   5.514  -2.292  1.00 50.14     0.099 A 
ENDBRANCH   7  23
TORSDOF 6
ENDMDL
MODEL 7
REMARK VINA RESULT:    -6.987      5.176      8.142
REMARK INTER + INTRA:         -11.177
REMARK INTER:                  -9.361
REMARK INTRA:                  -1.815
REMARK UNBOUND:                -1.739
REMARK  6 active torsions:
REMARK  status: ('A' for Active; 'I' for Inactive)
REMARK    1  A    between atoms: NBC_2  and  CBB_4 
REMARK    2  A    between atoms: CBB_4  and  CBA_5 
REMARK    3  A    between atoms: CBA_5  and  CAY_6 
REMARK    4  A    between atoms: CAY_6  and  NAH_7 
REMARK    5  A    between atoms: CAG_15  and  CAI_16 
REMARK    6  A    between atoms: CAJ_22  and  CAK_23 
ROOT
HETATM    1  CAI   D T1368      11.714   9.584  -0.806  1.00 47.54     0.064 A 
HETATM    2  CAT   D T1368      13.094   9.523  -0.981  1.00 46.36     0.282 A 
HETATM    3  OAZ   D T1368      13.828   8.546  -0.853  1.00 44.28    -0.265 OA
HETATM    4  NAU   D T1368      13.464  10.746  -1.360  1.00 46.45    -0.169 NA
HETATM    5  CAV   D T1368      12.451  11.607  -1.450  1.00 47.61     0.282 A 
HETATM    6  OAX   D T1368      12.511  12.781  -1.806  1.00 47.90    -0.265 OA
HETATM    7  CAJ   D T1368      11.316  10.885  -1.092  1.00 48.30     0.064 A 
ENDROOT
BRANCH   1   8
HETATM    8  CAG   D T1368      10.910   8.481  -0.522  1.00 49.01     0.023 A 
HETATM    9  CAW   D T1368      10.327   7.793  -1.504  1.00 50.91     0.076 A 
HETATM   10  NAH   D T1368       9.693   6.752  -0.953  1.00 50.74    -0.326 N 
HETATM   11  CAE   D T1368       9.831   6.727   0.371  1.00 49.51     0.060 A 
HETATM   12  CAF   D T1368       9.406   5.860   1.374  1.00 49.09     0.017 A 
HETATM   13  CAD   D T1368      10.615   7.834   0.670  1.00 48.06     0.017 A 
HETATM   14  CAA   D T1368       9.780   6.107   2.692  1.00 50.27     0.002 A 
HETATM   15  CAB   D T1368      10.568   7.213   2.999  1.00 50.31     0.000 A 
HETATM   16  CAC   D T1368      10.984   8.078   1.989  1.00 49.26     0.002 A 
BRANCH  10  17
HETATM   17  CAY   D T1368       9.009   5.695  -1.715  1.00 53.65     0.108 C 
BRANCH  17  18
HETATM   18  CBA   D T1368       9.914   4.516  -2.089  1.00 61.14     0.048 C 
BRANCH  18  19
HETATM   19  CBB   D T1368       9.193   3.427  -2.890  1.00 65.34     0.099 C 
BRANCH  19  20
HETATM   20  NBC   D T1368       9.615   3.332  -4.301  1.00 68.16    -0.365 N 
HETATM   21  CBD   D T1368      10.478   2.195  -4.645  1.00 68.53     0.121 C 
HETATM   22  CBE   D T1368       9.754   4.558  -5.103  1.00 68.44     0.121 C 
ENDBRANCH  19  20
ENDBRANCH  18  19
ENDBRANCH  17  18
ENDBRANCH  10  17
ENDBRANCH   1   8
BRANCH   7  23
HETATM   23  CAK   D T1368      10.037  11.430  -0.991  1.00 49.21     0.025 A 
HETATM   24  CAM   D T1368       8.920  11.360  -1.808  1.00 47.19     0.019 A 
HETATM   25  CAP   D T1368       8.672  10.744  -3.031  1.00 47.05     0.002 A 
HETATM   26  CAN   D T1368       7.912  12.090  -1.192  1.00 48.17     0.081 A 
HETATM   27  CAQ   D T1368       7.421  10.869  -3.629  1.00 49.31     0.000 A 
HETATM   28  CAR   D T1368       6.414  11.605  -3.008  1.00 47.76     0.002 A 
HETATM   29  CAS   D T1368       6.658  12.217  -1.783  1.00 48.79     0.019 A 
HETATM   30  NAO   D T1368       8.443  12.550  -0.059  1.00 49.87    -0.244 NA
HETATM   31  CAL   D T1368       9.715  12.160   0.074  1.00 50.14     0.099 A 
ENDBRANCH   7  23
TORSDOF 6
ENDMDL
MODEL 8
REMARK VINA RESULT:    -6.821      6.011      9.389
REMARK INTER + INTRA:         -10.953
REMARK INTER:                  -8.449
REMARK INTRA:                  -2.504
REMARK UNBOUND:                -1.739
REMARK  6 active torsions:
REMARK  status: ('A' for Active; 'I' for Inactive)
REMARK    1  A    between atoms: NBC_2  and  CBB_4 
REMARK    2  A    between atoms: CBB_4  and  CBA_5 
REMARK    3  A    between atoms: CBA_5  and  CAY_6 
REMARK    4  A    between atoms: CAY_6  and  NAH_7 
REMARK    5  A    between atoms: CAG_15  and  CAI_16 
REMARK    6  A    between atoms: CAJ_22  and  CAK_23 
ROOT
HETATM    1  CAI   D T1368      12.023   6.221   0.012  1.00 47.54     0.064 A 
HETATM    2  CAT   D T1368      11.658   4.879   0.085  1.00 46.36     0.282 A 
HETATM    3  OAZ   D T1368      10.564   4.410   0.388  1.00 44.28    -0.265 OA
HETATM    4  NAU   D T1368      12.738   4.191  -0.283  1.00 46.45    -0.169 NA
HETATM    5  CAV   D T1368      13.782   4.959  -0.593  1.00 47.61     0.282 A 
HETATM    6  OAX   D T1368      14.882   4.584  -0.991  1.00 47.90    -0.265 OA
HETATM    7  CAJ   D T1368      13.349   6.269  -0.403  1.00 48.30     0.064 A 
ENDROOT
BRANCH   1   8
HETATM    8  CAG   D T1368      11.143   7.285   0.205  1.00 49.01     0.023 A 
HETATM    9  CAW   D T1368      10.673   7.975  -0.833  1.00 50.91     0.076 A 
HETATM   10  NAH   D T1368       9.797   8.871  -0.365  1.00 50.74    -0.326 N 
HETATM   11  CAE   D T1368       9.671   8.802   0.959  1.00 49.51     0.060 A 
HETATM   12  CAF   D T1368       8.888   9.472   1.895  1.00 49.09     0.017 A 
HETATM   13  CAD   D T1368      10.531   7.782   1.346  1.00 48.06     0.017 A 
HETATM   14  CAA   D T1368       8.967   9.107   3.235  1.00 50.27     0.002 A 
HETATM   15  CAB   D T1368       9.824   8.084   3.632  1.00 50.31     0.000 A 
HETATM   16  CAC   D T1368      10.608   7.423   2.688  1.00 49.26     0.002 A 
BRANCH  10  17
HETATM   17  CAY   D T1368       8.983   9.762  -1.209  1.00 53.65     0.108 C 
BRANCH  17  18
HETATM   18  CBA   D T1368       9.761  10.951  -1.784  1.00 61.14     0.048 C 
BRANCH  18  19
HETATM   19  CBB   D T1368      10.550  11.729  -0.726  1.00 65.34     0.099 C 
BRANCH  19  20
HETATM   20  NBC   D T1368      11.969  11.341  -0.620  1.00 68.16    -0.365 N 
HETATM   21  CBD   D T1368      12.515  11.242   0.740  1.00 68.53     0.121 C 
HETATM   22  CBE   D T1368      12.902  11.692  -1.702  1.00 68.44     0.121 C 
ENDBRANCH  19  20
ENDBRANCH  18  19
ENDBRANCH  17  18
ENDBRANCH  10  17
ENDBRANCH   1   8
BRANCH   7  23
HETATM   23  CAK   D T1368      14.157   7.394  -0.555  1.00 49.21     0.025 A 
HETATM   24  CAM   D T1368      14.767   8.242   0.355  1.00 47.19     0.019 A 
HETATM   25  CAP   D T1368      14.779   8.296   1.746  1.00 47.05     0.002 A 
HETATM   26  CAN   D T1368      15.471   9.192  -0.373  1.00 48.17     0.081 A 
HETATM   27  CAQ   D T1368      15.490   9.302   2.395  1.00 49.31     0.000 A 
HETATM   28  CAR   D T1368      16.193  10.254   1.658  1.00 47.76     0.002 A 
HETATM   29  CAS   D T1368      16.187  10.199   0.269  1.00 48.79     0.019 A 
HETATM   30  NAO   D T1368      15.271   8.883  -1.655  1.00 49.87    -0.244 NA
HETATM   31  CAL   D T1368      14.487   7.807  -1.777  1.00 50.14     0.099 A 
ENDBRANCH   7  23
TORSDOF 6
ENDMDL
MODEL 9
REMARK VINA RESULT:    -6.813      3.573      7.583
REMARK INTER + INTRA:         -10.942
REMARK INTER:                  -8.834
REMARK INTRA:                  -2.107
REMARK UNBOUND:                -1.739
REMARK  6 active torsions:
REMARK  status: ('A' for Active; 'I' for Inactive)
REMARK    1  A    between atoms: NBC_2  and  CBB_4 
REMARK    2  A    between atoms: CBB_4  and  CBA_5 
REMARK    3  A    between atoms: CBA_5  and  CAY_6 
REMARK    4  A    between atoms: CAY_6  and  NAH_7 
REMARK    5  A    between atoms: CAG_15  and  CAI_16 
REMARK    6  A    between atoms: CAJ_22  and  CAK_23 
ROOT
HETATM    1  CAI   D T1368       9.945   5.763  -2.820  1.00 47.54     0.064 A 
HETATM    2  CAT   D T1368       9.862   5.717  -4.210  1.00 46.36     0.282 A 
HETATM    3  OAZ   D T1368       9.895   6.658  -4.999  1.00 44.28    -0.265 OA
HETATM    4  NAU   D T1368       9.776   4.425  -4.524  1.00 46.45    -0.169 NA
HETATM    5  CAV   D T1368       9.796   3.615  -3.466  1.00 47.61     0.282 A 
HETATM    6  OAX   D T1368       9.765   2.387  -3.477  1.00 47.90    -0.265 OA
HETATM    7  CAJ   D T1368       9.897   4.452  -2.359  1.00 48.30     0.064 A 
ENDROOT
BRANCH   1   8
HETATM    8  CAG   D T1368      10.166   6.926  -2.086  1.00 49.01     0.023 A 
HETATM    9  CAW   D T1368       9.149   7.709  -1.729  1.00 50.91     0.076 A 
HETATM   10  NAH   D T1368       9.638   8.696  -0.971  1.00 50.74    -0.326 N 
HETATM   11  CAE   D T1368      10.957   8.598  -0.814  1.00 49.51     0.060 A 
HETATM   12  CAF   D T1368      11.907   9.333  -0.110  1.00 49.09     0.017 A 
HETATM   13  CAD   D T1368      11.317   7.460  -1.524  1.00 48.06     0.017 A 
HETATM   14  CAA   D T1368      13.234   8.914  -0.116  1.00 50.27     0.002 A 
HETATM   15  CAB   D T1368      13.603   7.773  -0.823  1.00 50.31     0.000 A 
HETATM   16  CAC   D T1368      12.646   7.047  -1.530  1.00 49.26     0.002 A 
BRANCH  10  17
HETATM   17  CAY   D T1368       8.817   9.716  -0.298  1.00 53.65     0.108 C 
BRANCH  17  18
HETATM   18  CBA   D T1368       8.920  11.109  -0.929  1.00 61.14     0.048 C 
BRANCH  18  19
HETATM   19  CBB   D T1368       8.412  11.160  -2.373  1.00 65.34     0.099 C 
BRANCH  19  20
HETATM   20  NBC   D T1368       7.023  11.635  -2.512  1.00 68.16    -0.365 N 
HETATM   21  CBD   D T1368       6.414  11.481  -3.840  1.00 68.53     0.121 C 
HETATM   22  CBE   D T1368       6.545  12.744  -1.670  1.00 68.44     0.121 C 
ENDBRANCH  19  20
ENDBRANCH  18  19
ENDBRANCH  17  18
ENDBRANCH  10  17
ENDBRANCH   1   8
BRANCH   7  23
HETATM   23  CAK   D T1368       9.886   4.012  -1.036  1.00 49.21     0.025 A 
HETATM   24  CAM   D T1368      10.895   3.660  -0.155  1.00 47.19     0.019 A 
HETATM   25  CAP   D T1368      12.280   3.594  -0.271  1.00 47.05     0.002 A 
HETATM   26  CAN   D T1368      10.292   3.313   1.047  1.00 48.17     0.081 A 
HETATM   27  CAQ   D T1368      13.048   3.178   0.813  1.00 49.31     0.000 A 
HETATM   28  CAR   D T1368      12.437   2.829   2.016  1.00 47.76     0.002 A 
HETATM   29  CAS   D T1368      11.054   2.899   2.136  1.00 48.79     0.019 A 
HETATM   30  NAO   D T1368       8.983   3.474   0.850  1.00 49.87    -0.244 NA
HETATM   31  CAL   D T1368       8.726   3.893  -0.392  1.00 50.14     0.099 A 
ENDBRANCH   7  23
TORSDOF 6
ENDMDL
