MODEL 1
REMARK VINA RESULT:    -6.888      0.000      0.000
REMARK INTER + INTRA:         -11.309
REMARK INTER:                  -9.304
REMARK INTRA:                  -2.005
REMARK UNBOUND:                -2.005
REMARK  6 active torsions:
REMARK  status: ('A' for Active; 'I' for Inactive)
REMARK    1  A    between atoms: NBC_2  and  CBB_4 
REMARK    2  A    between atoms: CBB_4  and  CBA_5 
REMARK    3  A    between atoms: CBA_5  and  CAY_6 
REMARK    4  A    between atoms: CAY_6  and  NAH_7 
REMARK    5  A    between atoms: CAG_15  and  CAI_16 
REMARK    6  A    between atoms: CAJ_22  and  CAK_23 
ROOT
HETATM    1  CAI   D T1368      11.497  -2.354  -1.355  1.00 47.54     0.064 A 
HETATM    2  CAT   D T1368      12.723  -1.694  -1.305  1.00 46.36     0.282 A 
HETATM    3  OAZ   D T1368      13.137  -0.816  -2.058  1.00 44.28    -0.265 OA
HETATM    4  NAU   D T1368      13.353  -2.181  -0.239  1.00 46.45    -0.169 NA
HETATM    5  CAV   D T1368      12.653  -3.103   0.421  1.00 47.61     0.282 A 
HETATM    6  OAX   D T1368      12.985  -3.686   1.451  1.00 47.90    -0.265 OA
HETATM    7  CAJ   D T1368      11.459  -3.236  -0.282  1.00 48.30     0.064 A 
ENDROOT
BRANCH   1   8
HETATM    8  CAG   D T1368      10.480  -2.052  -2.258  1.00 49.01     0.023 A 
HETATM    9  CAW   D T1368       9.911  -0.846  -2.264  1.00 50.91     0.076 A 
HETATM   10  NAH   D T1368       9.037  -0.811  -3.274  1.00 50.74    -0.326 N 
HETATM   11  CAE   D T1368       9.000  -1.963  -3.944  1.00 49.51     0.060 A 
HETATM   12  CAF   D T1368       8.305  -2.413  -5.062  1.00 49.09     0.017 A 
HETATM   13  CAD   D T1368       9.926  -2.777  -3.304  1.00 48.06     0.017 A 
HETATM   14  CAA   D T1368       8.547  -3.695  -5.546  1.00 50.27     0.002 A 
HETATM   15  CAB   D T1368       9.476  -4.516  -4.911  1.00 50.31     0.000 A 
HETATM   16  CAC   D T1368      10.163  -4.058  -3.789  1.00 49.26     0.002 A 
BRANCH  10  17
HETATM   17  CAY   D T1368       8.274   0.382  -3.677  1.00 53.65     0.108 C 
BRANCH  17  18
HETATM   18  CBA   D T1368       9.128   1.471  -4.334  1.00 61.14     0.048 C 
BRANCH  18  19
HETATM   19  CBB   D T1368       9.451   1.185  -5.805  1.00 65.34     0.099 C 
BRANCH  19  20
HETATM   20  NBC   D T1368       8.486   1.760  -6.760  1.00 68.16    -0.365 N 
HETATM   21  CBD   D T1368       7.529   0.821  -7.362  1.00 68.53     0.121 C 
HETATM   22  CBE   D T1368       8.859   2.947  -7.548  1.00 68.44     0.121 C 
ENDBRANCH  19  20
ENDBRANCH  18  19
ENDBRANCH  17  18
ENDBRANCH  10  17
ENDBRANCH   1   8
BRANCH   7  23
HETATM   23  CAK   D T1368      10.457  -4.153   0.036  1.00 49.21     0.025 A 
HETATM   24  CAM   D T1368      10.280  -5.493  -0.267  1.00 47.19     0.019 A 
HETATM   25  CAP   D T1368      11.019  -6.407  -1.013  1.00 47.05     0.002 A 
HETATM   26  CAN   D T1368       9.098  -5.900   0.336  1.00 48.17     0.081 A 
HETATM   27  CAQ   D T1368      10.566  -7.715  -1.154  1.00 49.31     0.000 A 
HETATM   28  CAR   D T1368       9.378  -8.117  -0.549  1.00 47.76     0.002 A 
HETATM   29  CAS   D T1368       8.640  -7.207   0.202  1.00 48.79     0.019 A 
HETATM   30  NAO   D T1368       8.627  -4.823   0.966  1.00 49.87    -0.244 NA
HETATM   31  CAL   D T1368       9.433  -3.771   0.796  1.00 50.14     0.099 A 
ENDBRANCH   7  23
TORSDOF 6
ENDMDL
MODEL 2
REMARK VINA RESULT:    -6.686      3.118      5.443
REMARK INTER + INTRA:         -11.036
REMARK INTER:                  -8.800
REMARK INTRA:                  -2.236
REMARK UNBOUND:                -2.005
REMARK  6 active torsions:
REMARK  status: ('A' for Active; 'I' for Inactive)
REMARK    1  A    between atoms: NBC_2  and  CBB_4 
REMARK    2  A    between atoms: CBB_4  and  CBA_5 
REMARK    3  A    between atoms: CBA_5  and  CAY_6 
REMARK    4  A    between atoms: CAY_6  and  NAH_7 
REMARK    5  A    between atoms: CAG_15  and  CAI_16 
REMARK    6  A    between atoms: CAJ_22  and  CAK_23 
ROOT
HETATM    1  CAI   D T1368      10.418  -6.992  -1.007  1.00 47.54     0.064 A 
HETATM    2  CAT   D T1368      11.752  -7.202  -0.664  1.00 46.36     0.282 A 
HETATM    3  OAZ   D T1368      12.676  -6.394  -0.700  1.00 44.28    -0.265 OA
HETATM    4  NAU   D T1368      11.823  -8.463  -0.243  1.00 46.45    -0.169 NA
HETATM    5  CAV   D T1368      10.655  -9.104  -0.276  1.00 47.61     0.282 A 
HETATM    6  OAX   D T1368      10.435 -10.258   0.085  1.00 47.90    -0.265 OA
HETATM    7  CAJ   D T1368       9.739  -8.181  -0.771  1.00 48.30     0.064 A 
ENDROOT
BRANCH   1   8
HETATM    8  CAG   D T1368       9.892  -5.759  -1.387  1.00 49.01     0.023 A 
HETATM    9  CAW   D T1368       9.650  -4.813  -0.479  1.00 50.91     0.076 A 
HETATM   10  NAH   D T1368       9.231  -3.722  -1.127  1.00 50.74    -0.326 N 
HETATM   11  CAE   D T1368       9.181  -3.911  -2.445  1.00 49.51     0.060 A 
HETATM   12  CAF   D T1368       8.853  -3.103  -3.528  1.00 49.09     0.017 A 
HETATM   13  CAD   D T1368       9.605  -5.220  -2.633  1.00 48.06     0.017 A 
HETATM   14  CAA   D T1368       8.959  -3.615  -4.818  1.00 50.27     0.002 A 
HETATM   15  CAB   D T1368       9.386  -4.925  -5.016  1.00 50.31     0.000 A 
HETATM   16  CAC   D T1368       9.706  -5.729  -3.924  1.00 49.26     0.002 A 
BRANCH  10  17
HETATM   17  CAY   D T1368       8.955  -2.426  -0.486  1.00 53.65     0.108 C 
BRANCH  17  18
HETATM   18  CBA   D T1368      10.151  -1.468  -0.481  1.00 61.14     0.048 C 
BRANCH  18  19
HETATM   19  CBB   D T1368      10.872  -1.404   0.869  1.00 65.34     0.099 C 
BRANCH  19  20
HETATM   20  NBC   D T1368      12.316  -1.697   0.799  1.00 68.16    -0.365 N 
HETATM   21  CBD   D T1368      13.222  -0.562   1.031  1.00 68.53     0.121 C 
HETATM   22  CBE   D T1368      12.798  -2.784  -0.069  1.00 68.44     0.121 C 
ENDBRANCH  19  20
ENDBRANCH  18  19
ENDBRANCH  17  18
ENDBRANCH  10  17
ENDBRANCH   1   8
BRANCH   7  23
HETATM   23  CAK   D T1368       8.397  -8.463  -1.028  1.00 49.21     0.025 A 
HETATM   24  CAM   D T1368       7.714  -8.806  -2.183  1.00 47.19     0.019 A 
HETATM   25  CAP   D T1368       8.108  -8.971  -3.509  1.00 47.05     0.002 A 
HETATM   26  CAN   D T1368       6.383  -8.990  -1.837  1.00 48.17     0.081 A 
HETATM   27  CAQ   D T1368       7.165  -9.312  -4.475  1.00 49.31     0.000 A 
HETATM   28  CAR   D T1368       5.830  -9.492  -4.121  1.00 47.76     0.002 A 
HETATM   29  CAS   D T1368       5.435  -9.333  -2.797  1.00 48.79     0.019 A 
HETATM   30  NAO   D T1368       6.319  -8.765  -0.524  1.00 49.87    -0.244 NA
HETATM   31  CAL   D T1368       7.519  -8.451  -0.027  1.00 50.14     0.099 A 
ENDBRANCH   7  23
TORSDOF 6
ENDMDL
MODEL 3
REMARK VINA RESULT:    -6.683      2.348      7.598
REMARK INTER + INTRA:         -11.031
REMARK INTER:                  -8.895
REMARK INTRA:                  -2.136
REMARK UNBOUND:                -2.005
REMARK  6 active torsions:
REMARK  status: ('A' for Active; 'I' for Inactive)
REMARK    1  A    between atoms: NBC_2  and  CBB_4 
REMARK    2  A    between atoms: CBB_4  and  CBA_5 
REMARK    3  A    between atoms: CBA_5  and  CAY_6 
REMARK    4  A    between atoms: CAY_6  and  NAH_7 
REMARK    5  A    between atoms: CAG_15  and  CAI_16 
REMARK    6  A    between atoms: CAJ_22  and  CAK_23 
ROOT
HETATM    1  CAI   D T1368       9.612  -3.835  -2.765  1.00 47.54     0.064 A 
HETATM    2  CAT   D T1368       9.666  -5.116  -3.308  1.00 46.36     0.282 A 
HETATM    3  OAZ   D T1368      10.041  -6.150  -2.763  1.00 44.28    -0.265 OA
HETATM    4  NAU   D T1368       9.183  -5.006  -4.543  1.00 46.45    -0.169 NA
HETATM    5  CAV   D T1368       8.814  -3.766  -4.865  1.00 47.61     0.282 A 
HETATM    6  OAX   D T1368       8.311  -3.396  -5.923  1.00 47.90    -0.265 OA
HETATM    7  CAJ   D T1368       9.088  -2.994  -3.739  1.00 48.30     0.064 A 
ENDROOT
BRANCH   1   8
HETATM    8  CAG   D T1368       9.917  -3.531  -1.439  1.00 49.01     0.023 A 
HETATM    9  CAW   D T1368       9.244  -4.100  -0.438  1.00 50.91     0.076 A 
HETATM   10  NAH   D T1368       9.796  -3.694   0.709  1.00 50.74    -0.326 N 
HETATM   11  CAE   D T1368      10.819  -2.865   0.505  1.00 49.51     0.060 A 
HETATM   12  CAF   D T1368      11.719  -2.211   1.341  1.00 49.09     0.017 A 
HETATM   13  CAD   D T1368      10.914  -2.748  -0.876  1.00 48.06     0.017 A 
HETATM   14  CAA   D T1368      12.730  -1.436   0.782  1.00 50.27     0.002 A 
HETATM   15  CAB   D T1368      12.834  -1.316  -0.601  1.00 50.31     0.000 A 
HETATM   16  CAC   D T1368      11.925  -1.969  -1.430  1.00 49.26     0.002 A 
BRANCH  10  17
HETATM   17  CAY   D T1368       9.401  -4.177   2.041  1.00 53.65     0.108 C 
BRANCH  17  18
HETATM   18  CBA   D T1368      10.243  -5.352   2.551  1.00 61.14     0.048 C 
BRANCH  18  19
HETATM   19  CBB   D T1368       9.526  -6.702   2.449  1.00 65.34     0.099 C 
BRANCH  19  20
HETATM   20  NBC   D T1368       9.704  -7.386   1.154  1.00 68.16    -0.365 N 
HETATM   21  CBD   D T1368      11.022  -7.244   0.519  1.00 68.53     0.121 C 
HETATM   22  CBE   D T1368       8.544  -7.588   0.271  1.00 68.44     0.121 C 
ENDBRANCH  19  20
ENDBRANCH  18  19
ENDBRANCH  17  18
ENDBRANCH  10  17
ENDBRANCH   1   8
BRANCH   7  23
HETATM   23  CAK   D T1368       8.909  -1.613  -3.670  1.00 49.21     0.025 A 
HETATM   24  CAM   D T1368       9.606  -0.547  -4.217  1.00 47.19     0.019 A 
HETATM   25  CAP   D T1368      10.746  -0.462  -5.011  1.00 47.05     0.002 A 
HETATM   26  CAN   D T1368       8.957   0.615  -3.825  1.00 48.17     0.081 A 
HETATM   27  CAQ   D T1368      11.230   0.784  -5.399  1.00 49.31     0.000 A 
HETATM   28  CAR   D T1368      10.575   1.947  -5.000  1.00 47.76     0.002 A 
HETATM   29  CAS   D T1368       9.433   1.865  -4.211  1.00 48.79     0.019 A 
HETATM   30  NAO   D T1368       7.921   0.216  -3.086  1.00 49.87    -0.244 NA
HETATM   31  CAL   D T1368       7.879  -1.116  -2.988  1.00 50.14     0.099 A 
ENDBRANCH   7  23
TORSDOF 6
ENDMDL
MODEL 4
REMARK VINA RESULT:    -6.450      1.956      4.200
REMARK INTER + INTRA:         -10.717
REMARK INTER:                  -9.454
REMARK INTRA:                  -1.263
REMARK UNBOUND:                -2.005
REMARK  6 active torsions:
REMARK  status: ('A' for Active; 'I' for Inactive)
REMARK    1  A    between atoms: NBC_2  and  CBB_4 
REMARK    2  A    between atoms: CBB_4  and  CBA_5 
REMARK    3  A    between atoms: CBA_5  and  CAY_6 
REMARK    4  A    between atoms: CAY_6  and  NAH_7 
REMARK    5  A    between atoms: CAG_15  and  CAI_16 
REMARK    6  A    between atoms: CAJ_22  and  CAK_23 
ROOT
HETATM    1  CAI   D T1368       9.518  -4.142  -0.439  1.00 47.54     0.064 A 
HETATM    2  CAT   D T1368       8.880  -5.280   0.051  1.00 46.36     0.282 A 
HETATM    3  OAZ   D T1368       7.845  -5.798  -0.357  1.00 44.28    -0.265 OA
HETATM    4  NAU   D T1368       9.649  -5.726   1.042  1.00 46.45    -0.169 NA
HETATM    5  CAV   D T1368      10.738  -4.985   1.250  1.00 47.61     0.282 A 
HETATM    6  OAX   D T1368      11.625  -5.191   2.074  1.00 47.90    -0.265 OA
HETATM    7  CAJ   D T1368      10.671  -3.957   0.314  1.00 48.30     0.064 A 
ENDROOT
BRANCH   1   8
HETATM    8  CAG   D T1368       9.101  -3.433  -1.564  1.00 49.01     0.023 A 
HETATM    9  CAW   D T1368       8.642  -2.187  -1.452  1.00 50.91     0.076 A 
HETATM   10  NAH   D T1368       8.396  -1.729  -2.683  1.00 50.74    -0.326 N 
HETATM   11  CAE   D T1368       8.672  -2.636  -3.619  1.00 49.51     0.060 A 
HETATM   12  CAF   D T1368       8.623  -2.642  -5.009  1.00 49.09     0.017 A 
HETATM   13  CAD   D T1368       9.131  -3.744  -2.916  1.00 48.06     0.017 A 
HETATM   14  CAA   D T1368       9.045  -3.773  -5.702  1.00 50.27     0.002 A 
HETATM   15  CAB   D T1368       9.507  -4.886  -5.006  1.00 50.31     0.000 A 
HETATM   16  CAC   D T1368       9.548  -4.873  -3.613  1.00 49.26     0.002 A 
BRANCH  10  17
HETATM   17  CAY   D T1368       7.969  -0.355  -2.992  1.00 53.65     0.108 C 
BRANCH  17  18
HETATM   18  CBA   D T1368       9.023   0.470  -3.738  1.00 61.14     0.048 C 
BRANCH  18  19
HETATM   19  CBB   D T1368       8.501   1.090  -5.038  1.00 65.34     0.099 C 
BRANCH  19  20
HETATM   20  NBC   D T1368       9.554   1.433  -6.012  1.00 68.16    -0.365 N 
HETATM   21  CBD   D T1368      10.940   1.199  -5.581  1.00 68.53     0.121 C 
HETATM   22  CBE   D T1368       9.320   2.509  -6.990  1.00 68.44     0.121 C 
ENDBRANCH  19  20
ENDBRANCH  18  19
ENDBRANCH  17  18
ENDBRANCH  10  17
ENDBRANCH   1   8
BRANCH   7  23
HETATM   23  CAK   D T1368      11.590  -2.912   0.227  1.00 49.21     0.025 A 
HETATM   24  CAM   D T1368      12.028  -1.968   1.141  1.00 47.19     0.019 A 
HETATM   25  CAP   D T1368      11.696  -1.700   2.466  1.00 47.05     0.002 A 
HETATM   26  CAN   D T1368      12.974  -1.180   0.500  1.00 48.17     0.081 A 
HETATM   27  CAQ   D T1368      12.310  -0.645   3.135  1.00 49.31     0.000 A 
HETATM   28  CAR   D T1368      13.258   0.143   2.487  1.00 47.76     0.002 A 
HETATM   29  CAS   D T1368      13.594  -0.125   1.164  1.00 48.79     0.019 A 
HETATM   30  NAO   D T1368      13.073  -1.671  -0.735  1.00 49.87    -0.244 NA
HETATM   31  CAL   D T1368      12.251  -2.711  -0.911  1.00 50.14     0.099 A 
ENDBRANCH   7  23
TORSDOF 6
ENDMDL
MODEL 5
REMARK VINA RESULT:    -6.295      2.824      7.347
REMARK INTER + INTRA:         -10.507
REMARK INTER:                  -8.148
REMARK INTRA:                  -2.358
REMARK UNBOUND:                -2.005
REMARK  6 active torsions:
REMARK  status: ('A' for Active; 'I' for Inactive)
REMARK    1  A    between atoms: NBC_2  and  CBB_4 
REMARK    2  A    between atoms: CBB_4  and  CBA_5 
REMARK    3  A    between atoms: CBA_5  and  CAY_6 
REMARK    4  A    between atoms: CAY_6  and  NAH_7 
REMARK    5  A    between atoms: CAG_15  and  CAI_16 
REMARK    6  A    between atoms: CAJ_22  and  CAK_23 
ROOT
HETATM    1  CAI   D T1368      11.610  -3.646  -0.174  1.00 47.54     0.064 A 
HETATM    2  CAT   D T1368      12.090  -4.910   0.159  1.00 46.36     0.282 A 
HETATM    3  OAZ   D T1368      13.001  -5.190   0.934  1.00 44.28    -0.265 OA
HETATM    4  NAU   D T1368      11.328  -5.774  -0.509  1.00 46.45    -0.169 NA
HETATM    5  CAV   D T1368      10.387  -5.193  -1.252  1.00 47.61     0.282 A 
HETATM    6  OAX   D T1368       9.535  -5.755  -1.936  1.00 47.90    -0.265 OA
HETATM    7  CAJ   D T1368      10.553  -3.825  -1.059  1.00 48.30     0.064 A 
ENDROOT
BRANCH   1   8
HETATM    8  CAG   D T1368      12.058  -2.460   0.404  1.00 49.01     0.023 A 
HETATM    9  CAW   D T1368      11.610  -2.073   1.599  1.00 50.91     0.076 A 
HETATM   10  NAH   D T1368      12.262  -0.958   1.939  1.00 50.74    -0.326 N 
HETATM   11  CAE   D T1368      13.133  -0.582   1.002  1.00 49.51     0.060 A 
HETATM   12  CAF   D T1368      14.051   0.457   0.893  1.00 49.09     0.017 A 
HETATM   13  CAD   D T1368      13.017  -1.540   0.003  1.00 48.06     0.017 A 
HETATM   14  CAA   D T1368      14.867   0.531  -0.232  1.00 50.27     0.002 A 
HETATM   15  CAB   D T1368      14.758  -0.427  -1.237  1.00 50.31     0.000 A 
HETATM   16  CAC   D T1368      13.832  -1.461  -1.121  1.00 49.26     0.002 A 
BRANCH  10  17
HETATM   17  CAY   D T1368      12.123  -0.272   3.233  1.00 53.65     0.108 C 
BRANCH  17  18
HETATM   18  CBA   D T1368      12.912  -0.929   4.371  1.00 61.14     0.048 C 
BRANCH  18  19
HETATM   19  CBB   D T1368      12.044  -1.796   5.290  1.00 65.34     0.099 C 
BRANCH  19  20
HETATM   20  NBC   D T1368      12.157  -3.245   5.039  1.00 68.16    -0.365 N 
HETATM   21  CBD   D T1368      13.404  -3.701   4.408  1.00 68.53     0.121 C 
HETATM   22  CBE   D T1368      10.942  -4.038   4.791  1.00 68.44     0.121 C 
ENDBRANCH  19  20
ENDBRANCH  18  19
ENDBRANCH  17  18
ENDBRANCH  10  17
ENDBRANCH   1   8
BRANCH   7  23
HETATM   23  CAK   D T1368       9.807  -2.843  -1.709  1.00 49.21     0.025 A 
HETATM   24  CAM   D T1368      10.066  -2.041  -2.809  1.00 47.19     0.019 A 
HETATM   25  CAP   D T1368      11.167  -1.906  -3.651  1.00 47.05     0.002 A 
HETATM   26  CAN   D T1368       8.944  -1.253  -3.019  1.00 48.17     0.081 A 
HETATM   27  CAQ   D T1368      11.136  -0.979  -4.689  1.00 49.31     0.000 A 
HETATM   28  CAR   D T1368      10.008  -0.189  -4.893  1.00 47.76     0.002 A 
HETATM   29  CAS   D T1368       8.905  -0.326  -4.057  1.00 48.79     0.019 A 
HETATM   30  NAO   D T1368       8.075  -1.604  -2.070  1.00 49.87    -0.244 NA
HETATM   31  CAL   D T1368       8.579  -2.558  -1.281  1.00 50.14     0.099 A 
ENDBRANCH   7  23
TORSDOF 6
ENDMDL
MODEL 6
REMARK VINA RESULT:    -6.206      2.893      5.268
REMARK INTER + INTRA:         -10.387
REMARK INTER:                  -8.895
REMARK INTRA:                  -1.492
REMARK UNBOUND:                -2.005
REMARK  6 active torsions:
REMARK  status: ('A' for Active; 'I' for Inactive)
REMARK    1  A    between atoms: NBC_2  and  CBB_4 
REMARK    2  A    between atoms: CBB_4  and  CBA_5 
REMARK    3  A    between atoms: CBA_5  and  CAY_6 
REMARK    4  A    between atoms: CAY_6  and  NAH_7 
REMARK    5  A    between atoms: CAG_15  and  CAI_16 
REMARK    6  A    between atoms: CAJ_22  and  CAK_23 
ROOT
HETATM    1  CAI   D T1368       9.379  -6.137   0.723  1.00 47.54     0.064 A 
HETATM    2  CAT   D T1368       9.476  -6.236   2.109  1.00 46.36     0.282 A 
HETATM    3  OAZ   D T1368       9.793  -5.358   2.907  1.00 44.28    -0.265 OA
HETATM    4  NAU   D T1368       9.113  -7.482   2.408  1.00 46.45    -0.169 NA
HETATM    5  CAV   D T1368       8.784  -8.213   1.344  1.00 47.61     0.282 A 
HETATM    6  OAX   D T1368       8.385  -9.375   1.342  1.00 47.90    -0.265 OA
HETATM    7  CAJ   D T1368       8.954  -7.372   0.249  1.00 48.30     0.064 A 
ENDROOT
BRANCH   1   8
HETATM    8  CAG   D T1368       9.560  -4.955   0.007  1.00 49.01     0.023 A 
HETATM    9  CAW   D T1368       8.541  -4.389  -0.640  1.00 50.91     0.076 A 
HETATM   10  NAH   D T1368       8.977  -3.239  -1.163  1.00 50.74    -0.326 N 
HETATM   11  CAE   D T1368      10.263  -3.021  -0.890  1.00 49.51     0.060 A 
HETATM   12  CAF   D T1368      11.151  -1.987  -1.167  1.00 49.09     0.017 A 
HETATM   13  CAD   D T1368      10.657  -4.118  -0.133  1.00 48.06     0.017 A 
HETATM   14  CAA   D T1368      12.451  -2.054  -0.674  1.00 50.27     0.002 A 
HETATM   15  CAB   D T1368      12.854  -3.149   0.087  1.00 50.31     0.000 A 
HETATM   16  CAC   D T1368      11.958  -4.181   0.355  1.00 49.26     0.002 A 
BRANCH  10  17
HETATM   17  CAY   D T1368       8.126  -2.269  -1.870  1.00 53.65     0.108 C 
BRANCH  17  18
HETATM   18  CBA   D T1368       7.746  -2.696  -3.292  1.00 61.14     0.048 C 
BRANCH  18  19
HETATM   19  CBB   D T1368       8.769  -2.268  -4.349  1.00 65.34     0.099 C 
BRANCH  19  20
HETATM   20  NBC   D T1368       9.868  -3.231  -4.556  1.00 68.16    -0.365 N 
HETATM   21  CBD   D T1368      11.214  -2.659  -4.703  1.00 68.53     0.121 C 
HETATM   22  CBE   D T1368       9.597  -4.511  -5.228  1.00 68.44     0.121 C 
ENDBRANCH  19  20
ENDBRANCH  18  19
ENDBRANCH  17  18
ENDBRANCH  10  17
ENDBRANCH   1   8
BRANCH   7  23
HETATM   23  CAK   D T1368       8.778  -7.764  -1.078  1.00 49.21     0.025 A 
HETATM   24  CAM   D T1368       7.708  -8.320  -1.759  1.00 47.19     0.019 A 
HETATM   25  CAP   D T1368       6.430  -8.712  -1.368  1.00 47.05     0.002 A 
HETATM   26  CAN   D T1368       8.098  -8.483  -3.081  1.00 48.17     0.081 A 
HETATM   27  CAQ   D T1368       5.560  -9.269  -2.300  1.00 49.31     0.000 A 
HETATM   28  CAR   D T1368       5.958  -9.432  -3.625  1.00 47.76     0.002 A 
HETATM   29  CAS   D T1368       7.232  -9.037  -4.019  1.00 48.79     0.019 A 
HETATM   30  NAO   D T1368       9.349  -8.026  -3.145  1.00 49.87    -0.244 NA
HETATM   31  CAL   D T1368       9.767  -7.589  -1.953  1.00 50.14     0.099 A 
ENDBRANCH   7  23
TORSDOF 6
ENDMDL
MODEL 7
REMARK VINA RESULT:    -6.079      3.522      7.161
REMARK INTER + INTRA:         -10.215
REMARK INTER:                  -8.426
REMARK INTRA:                  -1.789
REMARK UNBOUND:                -2.005
REMARK  6 active torsions:
REMARK  status: ('A' for Active; 'I' for Inactive)
REMARK    1  A    between atoms: NBC_2  and  CBB_4 
REMARK    2  A    between atoms: CBB_4  and  CBA_5 
REMARK    3  A    between atoms: CBA_5  and  CAY_6 
REMARK    4  A    between atoms: CAY_6  and  NAH_7 
REMARK    5  A    between atoms: CAG_15  and  CAI_16 
REMARK    6  A    between atoms: CAJ_22  and  CAK_23 
ROOT
HETATM    1  CAI   D T1368      10.301  -4.934  -1.194  1.00 47.54     0.064 A 
HETATM    2  CAT   D T1368       9.860  -4.537  -2.454  1.00 46.36     0.282 A 
HETATM    3  OAZ   D T1368       9.454  -5.248  -3.369  1.00 44.28    -0.265 OA
HETATM    4  NAU   D T1368       9.926  -3.207  -2.458  1.00 46.45    -0.169 NA
HETATM    5  CAV   D T1368      10.372  -2.691  -1.313  1.00 47.61     0.282 A 
HETATM    6  OAX   D T1368      10.498  -1.499  -1.040  1.00 47.90    -0.265 OA
HETATM    7  CAJ   D T1368      10.626  -3.782  -0.488  1.00 48.30     0.064 A 
ENDROOT
BRANCH   1   8
HETATM    8  CAG   D T1368      10.277  -6.249  -0.733  1.00 49.01     0.023 A 
HETATM    9  CAW   D T1368       9.118  -6.867  -0.501  1.00 50.91     0.076 A 
HETATM   10  NAH   D T1368       9.391  -8.128  -0.151  1.00 50.74    -0.326 N 
HETATM   11  CAE   D T1368      10.701  -8.371  -0.137  1.00 49.51     0.060 A 
HETATM   12  CAF   D T1368      11.476  -9.498   0.119  1.00 49.09     0.017 A 
HETATM   13  CAD   D T1368      11.291  -7.170  -0.511  1.00 48.06     0.017 A 
HETATM   14  CAA   D T1368      12.859  -9.418  -0.008  1.00 50.27     0.002 A 
HETATM   15  CAB   D T1368      13.458  -8.219  -0.384  1.00 50.31     0.000 A 
HETATM   16  CAC   D T1368      12.674  -7.094  -0.634  1.00 49.26     0.002 A 
BRANCH  10  17
HETATM   17  CAY   D T1368       8.375  -9.165   0.091  1.00 53.65     0.108 C 
BRANCH  17  18
HETATM   18  CBA   D T1368       7.127  -9.027  -0.787  1.00 61.14     0.048 C 
BRANCH  18  19
HETATM   19  CBB   D T1368       7.233  -9.782  -2.116  1.00 65.34     0.099 C 
BRANCH  19  20
HETATM   20  NBC   D T1368       6.122  -9.522  -3.052  1.00 68.16    -0.365 N 
HETATM   21  CBD   D T1368       4.888  -8.984  -2.461  1.00 68.53     0.121 C 
HETATM   22  CBE   D T1368       5.993 -10.333  -4.273  1.00 68.44     0.121 C 
ENDBRANCH  19  20
ENDBRANCH  18  19
ENDBRANCH  17  18
ENDBRANCH  10  17
ENDBRANCH   1   8
BRANCH   7  23
HETATM   23  CAK   D T1368      11.170  -3.690   0.793  1.00 49.21     0.025 A 
HETATM   24  CAM   D T1368      10.680  -4.014   2.047  1.00 47.19     0.019 A 
HETATM   25  CAP   D T1368       9.463  -4.525   2.491  1.00 47.05     0.002 A 
HETATM   26  CAN   D T1368      11.676  -3.723   2.968  1.00 48.17     0.081 A 
HETATM   27  CAQ   D T1368       9.254  -4.735   3.852  1.00 49.31     0.000 A 
HETATM   28  CAR   D T1368      10.258  -4.439   4.771  1.00 47.76     0.002 A 
HETATM   29  CAS   D T1368      11.476  -3.933   4.329  1.00 48.79     0.019 A 
HETATM   30  NAO   D T1368      12.701  -3.257   2.254  1.00 49.87    -0.244 NA
HETATM   31  CAL   D T1368      12.412  -3.235   0.949  1.00 50.14     0.099 A 
ENDBRANCH   7  23
TORSDOF 6
ENDMDL
MODEL 8
REMARK VINA RESULT:    -6.063      2.846      4.933
REMARK INTER + INTRA:         -10.194
REMARK INTER:                  -8.704
REMARK INTRA:                  -1.490
REMARK UNBOUND:                -2.005
REMARK  6 active torsions:
REMARK  status: ('A' for Active; 'I' for Inactive)
REMARK    1  A    between atoms: NBC_2  and  CBB_4 
REMARK    2  A    between atoms: CBB_4  and  CBA_5 
REMARK    3  A    between atoms: CBA_5  and  CAY_6 
REMARK    4  A    between atoms: CAY_6  and  NAH_7 
REMARK    5  A    between atoms: CAG_15  and  CAI_16 
REMARK    6  A    between atoms: CAJ_22  and  CAK_23 
ROOT
HETATM    1  CAI   D T1368      10.832  -7.240  -0.841  1.00 47.54     0.064 A 
HETATM    2  CAT   D T1368      12.156  -7.596  -0.594  1.00 46.36     0.282 A 
HETATM    3  OAZ   D T1368      13.153  -6.883  -0.661  1.00 44.28    -0.265 OA
HETATM    4  NAU   D T1368      12.123  -8.875  -0.226  1.00 46.45    -0.169 NA
HETATM    5  CAV   D T1368      10.897  -9.394  -0.206  1.00 47.61     0.282 A 
HETATM    6  OAX   D T1368      10.583 -10.535   0.126  1.00 47.90    -0.265 OA
HETATM    7  CAJ   D T1368      10.051  -8.364  -0.605  1.00 48.30     0.064 A 
ENDROOT
BRANCH   1   8
HETATM    8  CAG   D T1368      10.412  -5.945  -1.139  1.00 49.01     0.023 A 
HETATM    9  CAW   D T1368       9.781  -5.681  -2.284  1.00 50.91     0.076 A 
HETATM   10  NAH   D T1368       9.425  -4.393  -2.268  1.00 50.74    -0.326 N 
HETATM   11  CAE   D T1368       9.805  -3.784  -1.146  1.00 49.51     0.060 A 
HETATM   12  CAF   D T1368       9.651  -2.496  -0.642  1.00 49.09     0.017 A 
HETATM   13  CAD   D T1368      10.442  -4.769  -0.403  1.00 48.06     0.017 A 
HETATM   14  CAA   D T1368      10.140  -2.197   0.627  1.00 50.27     0.002 A 
HETATM   15  CAB   D T1368      10.778  -3.180   1.378  1.00 50.31     0.000 A 
HETATM   16  CAC   D T1368      10.932  -4.465   0.863  1.00 49.26     0.002 A 
BRANCH  10  17
HETATM   17  CAY   D T1368       8.620  -3.737  -3.310  1.00 53.65     0.108 C 
BRANCH  17  18
HETATM   18  CBA   D T1368       9.382  -2.672  -4.105  1.00 61.14     0.048 C 
BRANCH  18  19
HETATM   19  CBB   D T1368       8.481  -1.837  -5.022  1.00 65.34     0.099 C 
BRANCH  19  20
HETATM   20  NBC   D T1368       8.227  -0.467  -4.538  1.00 68.16    -0.365 N 
HETATM   21  CBD   D T1368       7.984   0.551  -5.570  1.00 68.53     0.121 C 
HETATM   22  CBE   D T1368       8.825  -0.020  -3.270  1.00 68.44     0.121 C 
ENDBRANCH  19  20
ENDBRANCH  18  19
ENDBRANCH  17  18
ENDBRANCH  10  17
ENDBRANCH   1   8
BRANCH   7  23
HETATM   23  CAK   D T1368       8.674  -8.500  -0.783  1.00 49.21     0.025 A 
HETATM   24  CAM   D T1368       7.896  -8.799  -1.890  1.00 47.19     0.019 A 
HETATM   25  CAP   D T1368       8.196  -9.048  -3.226  1.00 47.05     0.002 A 
HETATM   26  CAN   D T1368       6.573  -8.820  -1.471  1.00 48.17     0.081 A 
HETATM   27  CAQ   D T1368       7.170  -9.309  -4.131  1.00 49.31     0.000 A 
HETATM   28  CAR   D T1368       5.845  -9.327  -3.705  1.00 47.76     0.002 A 
HETATM   29  CAS   D T1368       5.543  -9.083  -2.369  1.00 48.79     0.019 A 
HETATM   30  NAO   D T1368       6.605  -8.549  -0.166  1.00 49.87    -0.244 NA
HETATM   31  CAL   D T1368       7.858  -8.358   0.259  1.00 50.14     0.099 A 
ENDBRANCH   7  23
TORSDOF 6
ENDMDL
MODEL 9
REMARK VINA RESULT:    -6.017      2.487      6.776
REMARK INTER + INTRA:         -10.133
REMARK INTER:                  -8.333
REMARK INTRA:                  -1.799
REMARK UNBOUND:                -2.005
REMARK  6 active torsions:
REMARK  status: ('A' for Active; 'I' for Inactive)
REMARK    1  A    between atoms: NBC_2  and  CBB_4 
REMARK    2  A    between atoms: CBB_4  and  CBA_5 
REMARK    3  A    between atoms: CBA_5  and  CAY_6 
REMARK    4  A    between atoms: CAY_6  and  NAH_7 
REMARK    5  A    between atoms: CAG_15  and  CAI_16 
REMARK    6  A    between atoms: CAJ_22  and  CAK_23 
ROOT
HETATM    1  CAI   D T1368      11.768  -3.711   0.133  1.00 47.54     0.064 A 
HETATM    2  CAT   D T1368      13.072  -3.464   0.556  1.00 46.36     0.282 A 
HETATM    3  OAZ   D T1368      13.713  -4.065   1.413  1.00 44.28    -0.265 OA
HETATM    4  NAU   D T1368      13.509  -2.455  -0.194  1.00 46.45    -0.169 NA
HETATM    5  CAV   D T1368      12.611  -2.014  -1.075  1.00 47.61     0.282 A 
HETATM    6  OAX   D T1368      12.767  -1.121  -1.904  1.00 47.90    -0.265 OA
HETATM    7  CAJ   D T1368      11.481  -2.802  -0.878  1.00 48.30     0.064 A 
ENDROOT
BRANCH   1   8
HETATM    8  CAG   D T1368      10.986  -4.773   0.584  1.00 49.01     0.023 A 
HETATM    9  CAW   D T1368      10.799  -5.852  -0.177  1.00 50.91     0.076 A 
HETATM   10  NAH   D T1368      10.086  -6.733   0.532  1.00 50.74    -0.326 N 
HETATM   11  CAE   D T1368       9.784  -6.273   1.745  1.00 49.51     0.060 A 
HETATM   12  CAF   D T1368       9.110  -6.799   2.842  1.00 49.09     0.017 A 
HETATM   13  CAD   D T1368      10.358  -5.009   1.799  1.00 48.06     0.017 A 
HETATM   14  CAA   D T1368       9.016  -6.048   4.010  1.00 50.27     0.002 A 
HETATM   15  CAB   D T1368       9.590  -4.781   4.073  1.00 50.31     0.000 A 
HETATM   16  CAC   D T1368      10.259  -4.260   2.967  1.00 49.26     0.002 A 
BRANCH  10  17
HETATM   17  CAY   D T1368       9.754  -8.094   0.079  1.00 53.65     0.108 C 
BRANCH  17  18
HETATM   18  CBA   D T1368       8.534  -8.160  -0.846  1.00 61.14     0.048 C 
BRANCH  18  19
HETATM   19  CBB   D T1368       8.900  -8.193  -2.333  1.00 65.34     0.099 C 
BRANCH  19  20
HETATM   20  NBC   D T1368       7.811  -8.652  -3.216  1.00 68.16    -0.365 N 
HETATM   21  CBD   D T1368       6.970  -9.741  -2.698  1.00 68.53     0.121 C 
HETATM   22  CBE   D T1368       7.963  -8.547  -4.676  1.00 68.44     0.121 C 
ENDBRANCH  19  20
ENDBRANCH  18  19
ENDBRANCH  17  18
ENDBRANCH  10  17
ENDBRANCH   1   8
BRANCH   7  23
HETATM   23  CAK   D T1368      10.275  -2.631  -1.557  1.00 49.21     0.025 A 
HETATM   24  CAM   D T1368       9.852  -2.994  -2.825  1.00 47.19     0.019 A 
HETATM   25  CAP   D T1368      10.477  -3.637  -3.890  1.00 47.05     0.002 A 
HETATM   26  CAN   D T1368       8.534  -2.578  -2.955  1.00 48.17     0.081 A 
HETATM   27  CAQ   D T1368       9.780  -3.853  -5.076  1.00 49.31     0.000 A 
HETATM   28  CAR   D T1368       8.458  -3.431  -5.201  1.00 47.76     0.002 A 
HETATM   29  CAS   D T1368       7.830  -2.792  -4.137  1.00 48.79     0.019 A 
HETATM   30  NAO   D T1368       8.222  -2.005  -1.793  1.00 49.87    -0.244 NA
HETATM   31  CAL   D T1368       9.255  -2.033  -0.945  1.00 50.14     0.099 A 
ENDBRANCH   7  23
TORSDOF 6
ENDMDL
