MODEL 1
REMARK VINA RESULT:    -7.326      0.000      0.000
REMARK INTER + INTRA:         -12.277
REMARK INTER:                  -9.896
REMARK INTRA:                  -2.381
REMARK UNBOUND:                -2.381
REMARK  6 active torsions:
REMARK  status: ('A' for Active; 'I' for Inactive)
REMARK    1  A    between atoms: NBC_2  and  CBB_4 
REMARK    2  A    between atoms: CBB_4  and  CBA_5 
REMARK    3  A    between atoms: CBA_5  and  CAY_6 
REMARK    4  A    between atoms: CAY_6  and  NAH_7 
REMARK    5  A    between atoms: CAG_15  and  CAI_16 
REMARK    6  A    between atoms: CAJ_22  and  CAK_23 
ROOT
HETATM    1  CAI   D T1368     -17.845   3.671  -2.736  1.00 47.54     0.064 A 
HETATM    2  CAT   D T1368     -18.606   3.413  -3.873  1.00 46.36     0.282 A 
HETATM    3  OAZ   D T1368     -19.830   3.376  -3.968  1.00 44.28    -0.265 OA
HETATM    4  NAU   D T1368     -17.732   3.253  -4.865  1.00 46.45    -0.169 NA
HETATM    5  CAV   D T1368     -16.461   3.383  -4.485  1.00 47.61     0.282 A 
HETATM    6  OAX   D T1368     -15.465   3.316  -5.200  1.00 47.90    -0.265 OA
HETATM    7  CAJ   D T1368     -16.508   3.643  -3.118  1.00 48.30     0.064 A 
ENDROOT
BRANCH   1   8
HETATM    8  CAG   D T1368     -18.379   4.014  -1.496  1.00 49.01     0.023 A 
HETATM    9  CAW   D T1368     -18.524   5.292  -1.148  1.00 50.91     0.076 A 
HETATM   10  NAH   D T1368     -19.130   5.325   0.044  1.00 50.74    -0.326 N 
HETATM   11  CAE   D T1368     -19.389   4.103   0.507  1.00 49.51     0.060 A 
HETATM   12  CAF   D T1368     -20.017   3.613   1.647  1.00 49.09     0.017 A 
HETATM   13  CAD   D T1368     -18.914   3.242  -0.474  1.00 48.06     0.017 A 
HETATM   14  CAA   D T1368     -20.172   2.238   1.801  1.00 50.27     0.002 A 
HETATM   15  CAB   D T1368     -19.699   1.368   0.823  1.00 50.31     0.000 A 
HETATM   16  CAC   D T1368     -19.069   1.869  -0.314  1.00 49.26     0.002 A 
BRANCH  10  17
HETATM   17  CAY   D T1368     -19.559   6.556   0.727  1.00 53.65     0.108 C 
BRANCH  17  18
HETATM   18  CBA   D T1368     -18.417   7.536   1.016  1.00 61.14     0.048 C 
BRANCH  18  19
HETATM   19  CBB   D T1368     -17.445   7.037   2.090  1.00 65.34     0.099 C 
BRANCH  19  20
HETATM   20  NBC   D T1368     -16.204   6.442   1.556  1.00 68.16    -0.365 N 
HETATM   21  CBD   D T1368     -15.615   7.110   0.389  1.00 68.53     0.121 C 
HETATM   22  CBE   D T1368     -15.969   4.996   1.703  1.00 68.44     0.121 C 
ENDBRANCH  19  20
ENDBRANCH  18  19
ENDBRANCH  17  18
ENDBRANCH  10  17
ENDBRANCH   1   8
BRANCH   7  23
HETATM   23  CAK   D T1368     -15.385   3.783  -2.304  1.00 49.21     0.025 A 
HETATM   24  CAM   D T1368     -14.363   4.719  -2.265  1.00 47.19     0.019 A 
HETATM   25  CAP   D T1368     -14.072   5.841  -3.034  1.00 47.05     0.002 A 
HETATM   26  CAN   D T1368     -13.519   4.365  -1.222  1.00 48.17     0.081 A 
HETATM   27  CAQ   D T1368     -12.934   6.596  -2.756  1.00 49.31     0.000 A 
HETATM   28  CAR   D T1368     -12.088   6.233  -1.711  1.00 47.76     0.002 A 
HETATM   29  CAS   D T1368     -12.381   5.115  -0.938  1.00 48.79     0.019 A 
HETATM   30  NAO   D T1368     -14.053   3.267  -0.685  1.00 49.87    -0.244 NA
HETATM   31  CAL   D T1368     -15.171   2.911  -1.321  1.00 50.14     0.099 A 
ENDBRANCH   7  23
TORSDOF 6
ENDMDL
MODEL 2
REMARK VINA RESULT:    -7.114      3.488      7.872
REMARK INTER + INTRA:         -11.990
REMARK INTER:                 -10.716
REMARK INTRA:                  -1.274
REMARK UNBOUND:                -2.381
REMARK  6 active torsions:
REMARK  status: ('A' for Active; 'I' for Inactive)
REMARK    1  A    between atoms: NBC_2  and  CBB_4 
REMARK    2  A    between atoms: CBB_4  and  CBA_5 
REMARK    3  A    between atoms: CBA_5  and  CAY_6 
REMARK    4  A    between atoms: CAY_6  and  NAH_7 
REMARK    5  A    between atoms: CAG_15  and  CAI_16 
REMARK    6  A    between atoms: CAJ_22  and  CAK_23 
ROOT
HETATM    1  CAI   D T1368     -12.789   6.405  -2.479  1.00 47.54     0.064 A 
HETATM    2  CAT   D T1368     -12.213   7.672  -2.539  1.00 46.36     0.282 A 
HETATM    3  OAZ   D T1368     -11.436   8.107  -3.385  1.00 44.28    -0.265 OA
HETATM    4  NAU   D T1368     -12.710   8.345  -1.503  1.00 46.45    -0.169 NA
HETATM    5  CAV   D T1368     -13.564   7.636  -0.765  1.00 47.61     0.282 A 
HETATM    6  OAX   D T1368     -14.186   8.022   0.220  1.00 47.90    -0.265 OA
HETATM    7  CAJ   D T1368     -13.625   6.383  -1.368  1.00 48.30     0.064 A 
ENDROOT
BRANCH   1   8
HETATM    8  CAG   D T1368     -12.624   5.421  -3.452  1.00 49.01     0.023 A 
HETATM    9  CAW   D T1368     -13.677   4.907  -4.085  1.00 50.91     0.076 A 
HETATM   10  NAH   D T1368     -13.223   4.056  -5.012  1.00 50.74    -0.326 N 
HETATM   11  CAE   D T1368     -11.893   3.983  -5.013  1.00 49.51     0.060 A 
HETATM   12  CAF   D T1368     -10.962   3.292  -5.782  1.00 49.09     0.017 A 
HETATM   13  CAD   D T1368     -11.487   4.859  -4.014  1.00 48.06     0.017 A 
HETATM   14  CAA   D T1368      -9.605   3.488  -5.546  1.00 50.27     0.002 A 
HETATM   15  CAB   D T1368      -9.188   4.365  -4.548  1.00 50.31     0.000 A 
HETATM   16  CAC   D T1368     -10.129   5.049  -3.781  1.00 49.26     0.002 A 
BRANCH  10  17
HETATM   17  CAY   D T1368     -14.072   3.357  -5.989  1.00 53.65     0.108 C 
BRANCH  17  18
HETATM   18  CBA   D T1368     -14.835   2.162  -5.407  1.00 61.14     0.048 C 
BRANCH  18  19
HETATM   19  CBB   D T1368     -13.921   1.020  -4.954  1.00 65.34     0.099 C 
BRANCH  19  20
HETATM   20  NBC   D T1368     -13.939  -0.160  -5.841  1.00 68.16    -0.365 N 
HETATM   21  CBD   D T1368     -13.315   0.011  -7.159  1.00 68.53     0.121 C 
HETATM   22  CBE   D T1368     -15.033  -1.138  -5.728  1.00 68.44     0.121 C 
ENDBRANCH  19  20
ENDBRANCH  18  19
ENDBRANCH  17  18
ENDBRANCH  10  17
ENDBRANCH   1   8
BRANCH   7  23
HETATM   23  CAK   D T1368     -14.360   5.305  -0.875  1.00 49.21     0.025 A 
HETATM   24  CAM   D T1368     -15.720   5.067  -0.768  1.00 47.19     0.019 A 
HETATM   25  CAP   D T1368     -16.846   5.818  -1.091  1.00 47.05     0.002 A 
HETATM   26  CAN   D T1368     -15.876   3.805  -0.211  1.00 48.17     0.081 A 
HETATM   27  CAQ   D T1368     -18.117   5.303  -0.846  1.00 49.31     0.000 A 
HETATM   28  CAR   D T1368     -18.267   4.038  -0.283  1.00 47.76     0.002 A 
HETATM   29  CAS   D T1368     -17.142   3.283   0.035  1.00 48.79     0.019 A 
HETATM   30  NAO   D T1368     -14.639   3.344  -0.016  1.00 49.87    -0.244 NA
HETATM   31  CAL   D T1368     -13.723   4.231  -0.412  1.00 50.14     0.099 A 
ENDBRANCH   7  23
TORSDOF 6
ENDMDL
MODEL 3
REMARK VINA RESULT:    -7.059      2.589      4.326
REMARK INTER + INTRA:         -11.917
REMARK INTER:                  -9.738
REMARK INTRA:                  -2.179
REMARK UNBOUND:                -2.381
REMARK  6 active torsions:
REMARK  status: ('A' for Active; 'I' for Inactive)
REMARK    1  A    between atoms: NBC_2  and  CBB_4 
REMARK    2  A    between atoms: CBB_4  and  CBA_5 
REMARK    3  A    between atoms: CBA_5  and  CAY_6 
REMARK    4  A    between atoms: CAY_6  and  NAH_7 
REMARK    5  A    between atoms: CAG_15  and  CAI_16 
REMARK    6  A    between atoms: CAJ_22  and  CAK_23 
ROOT
HETATM    1  CAI   D T1368     -15.211   4.630  -1.993  1.00 47.54     0.064 A 
HETATM    2  CAT   D T1368     -14.956   5.870  -1.412  1.00 46.36     0.282 A 
HETATM    3  OAZ   D T1368     -15.726   6.567  -0.754  1.00 44.28    -0.265 OA
HETATM    4  NAU   D T1368     -13.680   6.140  -1.679  1.00 46.45    -0.169 NA
HETATM    5  CAV   D T1368     -13.068   5.188  -2.384  1.00 47.61     0.282 A 
HETATM    6  OAX   D T1368     -11.892   5.169  -2.735  1.00 47.90    -0.265 OA
HETATM    7  CAJ   D T1368     -14.035   4.211  -2.604  1.00 48.30     0.064 A 
ENDROOT
BRANCH   1   8
HETATM    8  CAG   D T1368     -16.405   3.926  -1.846  1.00 49.01     0.023 A 
HETATM    9  CAW   D T1368     -16.781   3.465  -0.654  1.00 50.91     0.076 A 
HETATM   10  NAH   D T1368     -17.989   2.910  -0.793  1.00 50.74    -0.326 N 
HETATM   11  CAE   D T1368     -18.430   2.981  -2.047  1.00 49.51     0.060 A 
HETATM   12  CAF   D T1368     -19.605   2.592  -2.685  1.00 49.09     0.017 A 
HETATM   13  CAD   D T1368     -17.422   3.635  -2.744  1.00 48.06     0.017 A 
HETATM   14  CAA   D T1368     -19.769   2.870  -4.038  1.00 50.27     0.002 A 
HETATM   15  CAB   D T1368     -18.764   3.527  -4.743  1.00 50.31     0.000 A 
HETATM   16  CAC   D T1368     -17.590   3.908  -4.097  1.00 49.26     0.002 A 
BRANCH  10  17
HETATM   17  CAY   D T1368     -18.792   2.374   0.318  1.00 53.65     0.108 C 
BRANCH  17  18
HETATM   18  CBA   D T1368     -19.080   3.393   1.425  1.00 61.14     0.048 C 
BRANCH  18  19
HETATM   19  CBB   D T1368     -20.021   4.519   0.986  1.00 65.34     0.099 C 
BRANCH  19  20
HETATM   20  NBC   D T1368     -19.342   5.799   0.699  1.00 68.16    -0.365 N 
HETATM   21  CBD   D T1368     -19.407   6.270  -0.690  1.00 68.53     0.121 C 
HETATM   22  CBE   D T1368     -18.172   6.197   1.498  1.00 68.44     0.121 C 
ENDBRANCH  19  20
ENDBRANCH  18  19
ENDBRANCH  17  18
ENDBRANCH  10  17
ENDBRANCH   1   8
BRANCH   7  23
HETATM   23  CAK   D T1368     -13.832   3.059  -3.364  1.00 49.21     0.025 A 
HETATM   24  CAM   D T1368     -13.607   2.852  -4.715  1.00 47.19     0.019 A 
HETATM   25  CAP   D T1368     -13.526   3.710  -5.808  1.00 47.05     0.002 A 
HETATM   26  CAN   D T1368     -13.455   1.486  -4.904  1.00 48.17     0.081 A 
HETATM   27  CAQ   D T1368     -13.300   3.191  -7.081  1.00 49.31     0.000 A 
HETATM   28  CAR   D T1368     -13.152   1.819  -7.265  1.00 47.76     0.002 A 
HETATM   29  CAS   D T1368     -13.227   0.961  -6.173  1.00 48.79     0.019 A 
HETATM   30  NAO   D T1368     -13.583   0.940  -3.694  1.00 49.87    -0.244 NA
HETATM   31  CAL   D T1368     -13.806   1.870  -2.763  1.00 50.14     0.099 A 
ENDBRANCH   7  23
TORSDOF 6
ENDMDL
MODEL 4
REMARK VINA RESULT:    -6.892      3.574      6.809
REMARK INTER + INTRA:         -11.690
REMARK INTER:                  -9.831
REMARK INTRA:                  -1.859
REMARK UNBOUND:                -2.381
REMARK  6 active torsions:
REMARK  status: ('A' for Active; 'I' for Inactive)
REMARK    1  A    between atoms: NBC_2  and  CBB_4 
REMARK    2  A    between atoms: CBB_4  and  CBA_5 
REMARK    3  A    between atoms: CBA_5  and  CAY_6 
REMARK    4  A    between atoms: CAY_6  and  NAH_7 
REMARK    5  A    between atoms: CAG_15  and  CAI_16 
REMARK    6  A    between atoms: CAJ_22  and  CAK_23 
ROOT
HETATM    1  CAI   D T1368     -16.331   2.484  -4.989  1.00 47.54     0.064 A 
HETATM    2  CAT   D T1368     -17.674   2.372  -5.343  1.00 46.36     0.282 A 
HETATM    3  OAZ   D T1368     -18.144   1.873  -6.362  1.00 44.28    -0.265 OA
HETATM    4  NAU   D T1368     -18.362   2.885  -4.325  1.00 46.45    -0.169 NA
HETATM    5  CAV   D T1368     -17.594   3.325  -3.328  1.00 47.61     0.282 A 
HETATM    6  OAX   D T1368     -17.969   3.810  -2.265  1.00 47.90    -0.265 OA
HETATM    7  CAJ   D T1368     -16.284   3.085  -3.736  1.00 48.30     0.064 A 
ENDROOT
BRANCH   1   8
HETATM    8  CAG   D T1368     -15.277   1.957  -5.731  1.00 49.01     0.023 A 
HETATM    9  CAW   D T1368     -14.370   2.759  -6.288  1.00 50.91     0.076 A 
HETATM   10  NAH   D T1368     -13.440   1.988  -6.862  1.00 50.74    -0.326 N 
HETATM   11  CAE   D T1368     -13.703   0.691  -6.710  1.00 49.51     0.060 A 
HETATM   12  CAF   D T1368     -13.049  -0.480  -7.080  1.00 49.09     0.017 A 
HETATM   13  CAD   D T1368     -14.885   0.650  -5.980  1.00 48.06     0.017 A 
HETATM   14  CAA   D T1368     -13.587  -1.707  -6.706  1.00 50.27     0.002 A 
HETATM   15  CAB   D T1368     -14.770  -1.758  -5.974  1.00 50.31     0.000 A 
HETATM   16  CAC   D T1368     -15.420  -0.580  -5.612  1.00 49.26     0.002 A 
BRANCH  10  17
HETATM   17  CAY   D T1368     -12.215   2.495  -7.499  1.00 53.65     0.108 C 
BRANCH  17  18
HETATM   18  CBA   D T1368     -10.979   2.446  -6.595  1.00 61.14     0.048 C 
BRANCH  18  19
HETATM   19  CBB   D T1368     -10.922   3.593  -5.581  1.00 65.34     0.099 C 
BRANCH  19  20
HETATM   20  NBC   D T1368      -9.555   3.975  -5.174  1.00 68.16    -0.365 N 
HETATM   21  CBD   D T1368      -8.528   2.933  -5.296  1.00 68.53     0.121 C 
HETATM   22  CBE   D T1368      -9.365   4.999  -4.133  1.00 68.44     0.121 C 
ENDBRANCH  19  20
ENDBRANCH  18  19
ENDBRANCH  17  18
ENDBRANCH  10  17
ENDBRANCH   1   8
BRANCH   7  23
HETATM   23  CAK   D T1368     -15.153   3.457  -3.009  1.00 49.21     0.025 A 
HETATM   24  CAM   D T1368     -14.312   4.555  -3.076  1.00 47.19     0.019 A 
HETATM   25  CAP   D T1368     -14.273   5.675  -3.903  1.00 47.05     0.002 A 
HETATM   26  CAN   D T1368     -13.354   4.403  -2.085  1.00 48.17     0.081 A 
HETATM   27  CAQ   D T1368     -13.271   6.627  -3.733  1.00 49.31     0.000 A 
HETATM   28  CAR   D T1368     -12.309   6.467  -2.739  1.00 47.76     0.002 A 
HETATM   29  CAS   D T1368     -12.350   5.352  -1.908  1.00 48.79     0.019 A 
HETATM   30  NAO   D T1368     -13.650   3.256  -1.473  1.00 49.87    -0.244 NA
HETATM   31  CAL   D T1368     -14.726   2.681  -2.014  1.00 50.14     0.099 A 
ENDBRANCH   7  23
TORSDOF 6
ENDMDL
MODEL 5
REMARK VINA RESULT:    -6.878      3.761      8.180
REMARK INTER + INTRA:         -11.671
REMARK INTER:                 -10.168
REMARK INTRA:                  -1.503
REMARK UNBOUND:                -2.381
REMARK  6 active torsions:
REMARK  status: ('A' for Active; 'I' for Inactive)
REMARK    1  A    between atoms: NBC_2  and  CBB_4 
REMARK    2  A    between atoms: CBB_4  and  CBA_5 
REMARK    3  A    between atoms: CBA_5  and  CAY_6 
REMARK    4  A    between atoms: CAY_6  and  NAH_7 
REMARK    5  A    between atoms: CAG_15  and  CAI_16 
REMARK    6  A    between atoms: CAJ_22  and  CAK_23 
ROOT
HETATM    1  CAI   D T1368     -12.152   5.858  -3.236  1.00 47.54     0.064 A 
HETATM    2  CAT   D T1368     -11.505   7.087  -3.346  1.00 46.36     0.282 A 
HETATM    3  OAZ   D T1368     -10.718   7.449  -4.218  1.00 44.28    -0.265 OA
HETATM    4  NAU   D T1368     -11.946   7.822  -2.327  1.00 46.45    -0.169 NA
HETATM    5  CAV   D T1368     -12.827   7.188  -1.553  1.00 47.61     0.282 A 
HETATM    6  OAX   D T1368     -13.410   7.641  -0.572  1.00 47.90    -0.265 OA
HETATM    7  CAJ   D T1368     -12.969   5.921  -2.113  1.00 48.30     0.064 A 
ENDROOT
BRANCH   1   8
HETATM    8  CAG   D T1368     -12.059   4.836  -4.178  1.00 49.01     0.023 A 
HETATM    9  CAW   D T1368     -13.147   4.382  -4.798  1.00 50.91     0.076 A 
HETATM   10  NAH   D T1368     -12.756   3.472  -5.697  1.00 50.74    -0.326 N 
HETATM   11  CAE   D T1368     -11.436   3.300  -5.691  1.00 49.51     0.060 A 
HETATM   12  CAF   D T1368     -10.557   2.519  -6.435  1.00 49.09     0.017 A 
HETATM   13  CAD   D T1368     -10.966   4.174  -4.718  1.00 48.06     0.017 A 
HETATM   14  CAA   D T1368      -9.190   2.620  -6.201  1.00 50.27     0.002 A 
HETATM   15  CAB   D T1368      -8.710   3.494  -5.229  1.00 50.31     0.000 A 
HETATM   16  CAC   D T1368      -9.598   4.269  -4.486  1.00 49.26     0.002 A 
BRANCH  10  17
HETATM   17  CAY   D T1368     -13.654   2.808  -6.656  1.00 53.65     0.108 C 
BRANCH  17  18
HETATM   18  CBA   D T1368     -14.651   1.842  -6.007  1.00 61.14     0.048 C 
BRANCH  18  19
HETATM   19  CBB   D T1368     -14.023   0.507  -5.594  1.00 65.34     0.099 C 
BRANCH  19  20
HETATM   20  NBC   D T1368     -14.894  -0.665  -5.812  1.00 68.16    -0.365 N 
HETATM   21  CBD   D T1368     -14.228  -1.890  -6.271  1.00 68.53     0.121 C 
HETATM   22  CBE   D T1368     -16.298  -0.465  -6.206  1.00 68.44     0.121 C 
ENDBRANCH  19  20
ENDBRANCH  18  19
ENDBRANCH  17  18
ENDBRANCH  10  17
ENDBRANCH   1   8
BRANCH   7  23
HETATM   23  CAK   D T1368     -13.756   4.905  -1.573  1.00 49.21     0.025 A 
HETATM   24  CAM   D T1368     -15.041   4.465  -1.847  1.00 47.19     0.019 A 
HETATM   25  CAP   D T1368     -16.021   4.888  -2.740  1.00 47.05     0.002 A 
HETATM   26  CAN   D T1368     -15.301   3.395  -1.003  1.00 48.17     0.081 A 
HETATM   27  CAQ   D T1368     -17.254   4.241  -2.775  1.00 49.31     0.000 A 
HETATM   28  CAR   D T1368     -17.510   3.170  -1.922  1.00 47.76     0.002 A 
HETATM   29  CAS   D T1368     -16.530   2.742  -1.033  1.00 48.79     0.019 A 
HETATM   30  NAO   D T1368     -14.192   3.232  -0.279  1.00 49.87    -0.244 NA
HETATM   31  CAL   D T1368     -13.259   4.127  -0.613  1.00 50.14     0.099 A 
ENDBRANCH   7  23
TORSDOF 6
ENDMDL
MODEL 6
REMARK VINA RESULT:    -6.846      3.905      7.639
REMARK INTER + INTRA:         -11.628
REMARK INTER:                 -10.425
REMARK INTRA:                  -1.203
REMARK UNBOUND:                -2.381
REMARK  6 active torsions:
REMARK  status: ('A' for Active; 'I' for Inactive)
REMARK    1  A    between atoms: NBC_2  and  CBB_4 
REMARK    2  A    between atoms: CBB_4  and  CBA_5 
REMARK    3  A    between atoms: CBA_5  and  CAY_6 
REMARK    4  A    between atoms: CAY_6  and  NAH_7 
REMARK    5  A    between atoms: CAG_15  and  CAI_16 
REMARK    6  A    between atoms: CAJ_22  and  CAK_23 
ROOT
HETATM    1  CAI   D T1368     -13.195   6.439  -2.278  1.00 47.54     0.064 A 
HETATM    2  CAT   D T1368     -12.490   7.632  -2.424  1.00 46.36     0.282 A 
HETATM    3  OAZ   D T1368     -11.768   7.971  -3.357  1.00 44.28    -0.265 OA
HETATM    4  NAU   D T1368     -12.791   8.363  -1.352  1.00 46.45    -0.169 NA
HETATM    5  CAV   D T1368     -13.632   7.760  -0.512  1.00 47.61     0.282 A 
HETATM    6  OAX   D T1368     -14.094   8.220   0.528  1.00 47.90    -0.265 OA
HETATM    7  CAJ   D T1368     -13.899   6.518  -1.082  1.00 48.30     0.064 A 
ENDROOT
BRANCH   1   8
HETATM    8  CAG   D T1368     -13.250   5.438  -3.246  1.00 49.01     0.023 A 
HETATM    9  CAW   D T1368     -12.132   4.924  -3.757  1.00 50.91     0.076 A 
HETATM   10  NAH   D T1368     -12.479   3.937  -4.591  1.00 50.74    -0.326 N 
HETATM   11  CAE   D T1368     -13.800   3.780  -4.655  1.00 49.51     0.060 A 
HETATM   12  CAF   D T1368     -14.638   2.897  -5.329  1.00 49.09     0.017 A 
HETATM   13  CAD   D T1368     -14.316   4.738  -3.792  1.00 48.06     0.017 A 
HETATM   14  CAA   D T1368     -16.013   2.976  -5.128  1.00 50.27     0.002 A 
HETATM   15  CAB   D T1368     -16.539   3.932  -4.264  1.00 50.31     0.000 A 
HETATM   16  CAC   D T1368     -15.691   4.815  -3.598  1.00 49.26     0.002 A 
BRANCH  10  17
HETATM   17  CAY   D T1368     -11.525   3.055  -5.280  1.00 53.65     0.108 C 
BRANCH  17  18
HETATM   18  CBA   D T1368     -10.109   3.631  -5.384  1.00 61.14     0.048 C 
BRANCH  18  19
HETATM   19  CBB   D T1368      -9.406   3.285  -6.701  1.00 65.34     0.099 C 
BRANCH  19  20
HETATM   20  NBC   D T1368      -8.851   1.918  -6.750  1.00 68.16    -0.365 N 
HETATM   21  CBD   D T1368      -7.607   1.697  -6.001  1.00 68.53     0.121 C 
HETATM   22  CBE   D T1368      -9.090   1.077  -7.934  1.00 68.44     0.121 C 
ENDBRANCH  19  20
ENDBRANCH  18  19
ENDBRANCH  17  18
ENDBRANCH  10  17
ENDBRANCH   1   8
BRANCH   7  23
HETATM   23  CAK   D T1368     -14.692   5.534  -0.492  1.00 49.21     0.025 A 
HETATM   24  CAM   D T1368     -16.044   5.468  -0.199  1.00 47.19     0.019 A 
HETATM   25  CAP   D T1368     -17.098   6.361  -0.363  1.00 47.05     0.002 A 
HETATM   26  CAN   D T1368     -16.281   4.227   0.375  1.00 48.17     0.081 A 
HETATM   27  CAQ   D T1368     -18.379   6.006   0.054  1.00 49.31     0.000 A 
HETATM   28  CAR   D T1368     -18.610   4.761   0.633  1.00 47.76     0.002 A 
HETATM   29  CAS   D T1368     -17.559   3.865   0.793  1.00 48.79     0.019 A 
HETATM   30  NAO   D T1368     -15.099   3.610   0.398  1.00 49.87    -0.244 NA
HETATM   31  CAL   D T1368     -14.140   4.380  -0.121  1.00 50.14     0.099 A 
ENDBRANCH   7  23
TORSDOF 6
ENDMDL
MODEL 7
REMARK VINA RESULT:    -6.839      2.983      6.470
REMARK INTER + INTRA:         -11.619
REMARK INTER:                 -10.526
REMARK INTRA:                  -1.093
REMARK UNBOUND:                -2.381
REMARK  6 active torsions:
REMARK  status: ('A' for Active; 'I' for Inactive)
REMARK    1  A    between atoms: NBC_2  and  CBB_4 
REMARK    2  A    between atoms: CBB_4  and  CBA_5 
REMARK    3  A    between atoms: CBA_5  and  CAY_6 
REMARK    4  A    between atoms: CAY_6  and  NAH_7 
REMARK    5  A    between atoms: CAG_15  and  CAI_16 
REMARK    6  A    between atoms: CAJ_22  and  CAK_23 
ROOT
HETATM    1  CAI   D T1368     -11.536   5.625  -3.045  1.00 47.54     0.064 A 
HETATM    2  CAT   D T1368     -10.165   5.870  -3.051  1.00 46.36     0.282 A 
HETATM    3  OAZ   D T1368      -9.515   6.542  -2.254  1.00 44.28    -0.265 OA
HETATM    4  NAU   D T1368      -9.680   5.186  -4.087  1.00 46.45    -0.169 NA
HETATM    5  CAV   D T1368     -10.608   4.512  -4.764  1.00 47.61     0.282 A 
HETATM    6  OAX   D T1368     -10.430   3.780  -5.734  1.00 47.90    -0.265 OA
HETATM    7  CAJ   D T1368     -11.811   4.785  -4.118  1.00 48.30     0.064 A 
ENDROOT
BRANCH   1   8
HETATM    8  CAG   D T1368     -12.406   6.063  -2.048  1.00 49.01     0.023 A 
HETATM    9  CAW   D T1368     -13.149   5.193  -1.365  1.00 50.91     0.076 A 
HETATM   10  NAH   D T1368     -13.818   5.874  -0.428  1.00 50.74    -0.326 N 
HETATM   11  CAE   D T1368     -13.547   7.177  -0.469  1.00 49.51     0.060 A 
HETATM   12  CAF   D T1368     -13.945   8.273   0.289  1.00 49.09     0.017 A 
HETATM   13  CAD   D T1368     -12.635   7.320  -1.507  1.00 48.06     0.017 A 
HETATM   14  CAA   D T1368     -13.416   9.528   0.003  1.00 50.27     0.002 A 
HETATM   15  CAB   D T1368     -12.500   9.680  -1.035  1.00 50.31     0.000 A 
HETATM   16  CAC   D T1368     -12.111   8.576  -1.791  1.00 49.26     0.002 A 
BRANCH  10  17
HETATM   17  CAY   D T1368     -14.674   5.258   0.598  1.00 53.65     0.108 C 
BRANCH  17  18
HETATM   18  CBA   D T1368     -15.800   4.389   0.027  1.00 61.14     0.048 C 
BRANCH  18  19
HETATM   19  CBB   D T1368     -16.870   5.193  -0.719  1.00 65.34     0.099 C 
BRANCH  19  20
HETATM   20  NBC   D T1368     -17.715   6.032   0.153  1.00 68.16    -0.365 N 
HETATM   21  CBD   D T1368     -18.968   5.423   0.621  1.00 68.53     0.121 C 
HETATM   22  CBE   D T1368     -17.684   7.496   0.006  1.00 68.44     0.121 C 
ENDBRANCH  19  20
ENDBRANCH  18  19
ENDBRANCH  17  18
ENDBRANCH  10  17
ENDBRANCH   1   8
BRANCH   7  23
HETATM   23  CAK   D T1368     -13.056   4.325  -4.544  1.00 49.21     0.025 A 
HETATM   24  CAM   D T1368     -13.561   3.055  -4.773  1.00 47.19     0.019 A 
HETATM   25  CAP   D T1368     -13.007   1.781  -4.685  1.00 47.05     0.002 A 
HETATM   26  CAN   D T1368     -14.882   3.201  -5.170  1.00 48.17     0.081 A 
HETATM   27  CAQ   D T1368     -13.779   0.666  -5.002  1.00 49.31     0.000 A 
HETATM   28  CAR   D T1368     -15.103   0.819  -5.404  1.00 47.76     0.002 A 
HETATM   29  CAS   D T1368     -15.660   2.091  -5.487  1.00 48.79     0.019 A 
HETATM   30  NAO   D T1368     -15.117   4.514  -5.159  1.00 49.87    -0.244 NA
HETATM   31  CAL   D T1368     -14.034   5.197  -4.783  1.00 50.14     0.099 A 
ENDBRANCH   7  23
TORSDOF 6
ENDMDL
MODEL 8
REMARK VINA RESULT:    -6.783      2.354      5.166
REMARK INTER + INTRA:         -11.544
REMARK INTER:                  -9.231
REMARK INTRA:                  -2.312
REMARK UNBOUND:                -2.381
REMARK  6 active torsions:
REMARK  status: ('A' for Active; 'I' for Inactive)
REMARK    1  A    between atoms: NBC_2  and  CBB_4 
REMARK    2  A    between atoms: CBB_4  and  CBA_5 
REMARK    3  A    between atoms: CBA_5  and  CAY_6 
REMARK    4  A    between atoms: CAY_6  and  NAH_7 
REMARK    5  A    between atoms: CAG_15  and  CAI_16 
REMARK    6  A    between atoms: CAJ_22  and  CAK_23 
ROOT
HETATM    1  CAI   D T1368     -18.283   3.796  -0.245  1.00 47.54     0.064 A 
HETATM    2  CAT   D T1368     -19.136   3.005   0.521  1.00 46.36     0.282 A 
HETATM    3  OAZ   D T1368     -20.035   2.267   0.126  1.00 44.28    -0.265 OA
HETATM    4  NAU   D T1368     -18.752   3.176   1.785  1.00 46.45    -0.169 NA
HETATM    5  CAV   D T1368     -17.721   4.009   1.922  1.00 47.61     0.282 A 
HETATM    6  OAX   D T1368     -17.153   4.316   2.967  1.00 47.90    -0.265 OA
HETATM    7  CAJ   D T1368     -17.407   4.427   0.632  1.00 48.30     0.064 A 
ENDROOT
BRANCH   1   8
HETATM    8  CAG   D T1368     -18.270   3.815  -1.638  1.00 49.01     0.023 A 
HETATM    9  CAW   D T1368     -17.342   3.143  -2.318  1.00 50.91     0.076 A 
HETATM   10  NAH   D T1368     -17.617   3.269  -3.620  1.00 50.74    -0.326 N 
HETATM   11  CAE   D T1368     -18.702   4.013  -3.831  1.00 49.51     0.060 A 
HETATM   12  CAF   D T1368     -19.403   4.403  -4.968  1.00 49.09     0.017 A 
HETATM   13  CAD   D T1368     -19.139   4.374  -2.563  1.00 48.06     0.017 A 
HETATM   14  CAA   D T1368     -20.561   5.161  -4.827  1.00 50.27     0.002 A 
HETATM   15  CAB   D T1368     -21.008   5.526  -3.560  1.00 50.31     0.000 A 
HETATM   16  CAC   D T1368     -20.296   5.134  -2.428  1.00 49.26     0.002 A 
BRANCH  10  17
HETATM   17  CAY   D T1368     -16.882   2.589  -4.698  1.00 53.65     0.108 C 
BRANCH  17  18
HETATM   18  CBA   D T1368     -15.391   2.390  -4.402  1.00 61.14     0.048 C 
BRANCH  18  19
HETATM   19  CBB   D T1368     -14.479   3.282  -5.249  1.00 65.34     0.099 C 
BRANCH  19  20
HETATM   20  NBC   D T1368     -13.717   4.280  -4.472  1.00 68.16    -0.365 N 
HETATM   21  CBD   D T1368     -14.399   5.554  -4.208  1.00 68.53     0.121 C 
HETATM   22  CBE   D T1368     -12.247   4.300  -4.555  1.00 68.44     0.121 C 
ENDBRANCH  19  20
ENDBRANCH  18  19
ENDBRANCH  17  18
ENDBRANCH  10  17
ENDBRANCH   1   8
BRANCH   7  23
HETATM   23  CAK   D T1368     -16.420   5.364   0.326  1.00 49.21     0.025 A 
HETATM   24  CAM   D T1368     -15.121   5.241  -0.138  1.00 47.19     0.019 A 
HETATM   25  CAP   D T1368     -14.319   4.146  -0.445  1.00 47.05     0.002 A 
HETATM   26  CAN   D T1368     -14.611   6.524  -0.282  1.00 48.17     0.081 A 
HETATM   27  CAQ   D T1368     -13.013   4.344  -0.886  1.00 49.31     0.000 A 
HETATM   28  CAR   D T1368     -12.506   5.633  -1.025  1.00 47.76     0.002 A 
HETATM   29  CAS   D T1368     -13.308   6.729  -0.725  1.00 48.79     0.019 A 
HETATM   30  NAO   D T1368     -15.597   7.344   0.082  1.00 49.87    -0.244 NA
HETATM   31  CAL   D T1368     -16.686   6.663   0.446  1.00 50.14     0.099 A 
ENDBRANCH   7  23
TORSDOF 6
ENDMDL
MODEL 9
REMARK VINA RESULT:    -6.687      2.545      4.801
REMARK INTER + INTRA:         -11.414
REMARK INTER:                  -9.934
REMARK INTRA:                  -1.480
REMARK UNBOUND:                -2.381
REMARK  6 active torsions:
REMARK  status: ('A' for Active; 'I' for Inactive)
REMARK    1  A    between atoms: NBC_2  and  CBB_4 
REMARK    2  A    between atoms: CBB_4  and  CBA_5 
REMARK    3  A    between atoms: CBA_5  and  CAY_6 
REMARK    4  A    between atoms: CAY_6  and  NAH_7 
REMARK    5  A    between atoms: CAG_15  and  CAI_16 
REMARK    6  A    between atoms: CAJ_22  and  CAK_23 
ROOT
HETATM    1  CAI   D T1368     -16.766   5.899   0.377  1.00 47.54     0.064 A 
HETATM    2  CAT   D T1368     -17.530   6.613   1.297  1.00 46.36     0.282 A 
HETATM    3  OAZ   D T1368     -18.754   6.644   1.397  1.00 44.28    -0.265 OA
HETATM    4  NAU   D T1368     -16.657   7.236   2.087  1.00 46.45    -0.169 NA
HETATM    5  CAV   D T1368     -15.384   6.996   1.772  1.00 47.61     0.282 A 
HETATM    6  OAX   D T1368     -14.388   7.415   2.353  1.00 47.90    -0.265 OA
HETATM    7  CAJ   D T1368     -15.429   6.145   0.671  1.00 48.30     0.064 A 
ENDROOT
BRANCH   1   8
HETATM    8  CAG   D T1368     -17.293   5.014  -0.561  1.00 49.01     0.023 A 
HETATM    9  CAW   D T1368     -17.020   5.155  -1.857  1.00 50.91     0.076 A 
HETATM   10  NAH   D T1368     -17.582   4.131  -2.507  1.00 50.74    -0.326 N 
HETATM   11  CAE   D T1368     -18.230   3.310  -1.682  1.00 49.51     0.060 A 
HETATM   12  CAF   D T1368     -18.929   2.119  -1.851  1.00 49.09     0.017 A 
HETATM   13  CAD   D T1368     -18.053   3.862  -0.419  1.00 48.06     0.017 A 
HETATM   14  CAA   D T1368     -19.454   1.473  -0.736  1.00 50.27     0.002 A 
HETATM   15  CAB   D T1368     -19.280   2.018   0.533  1.00 50.31     0.000 A 
HETATM   16  CAC   D T1368     -18.582   3.213   0.692  1.00 49.26     0.002 A 
BRANCH  10  17
HETATM   17  CAY   D T1368     -17.426   3.871  -3.947  1.00 53.65     0.108 C 
BRANCH  17  18
HETATM   18  CBA   D T1368     -16.226   2.983  -4.292  1.00 61.14     0.048 C 
BRANCH  18  19
HETATM   19  CBB   D T1368     -14.949   3.776  -4.589  1.00 65.34     0.099 C 
BRANCH  19  20
HETATM   20  NBC   D T1368     -13.717   2.963  -4.587  1.00 68.16    -0.365 N 
HETATM   21  CBD   D T1368     -13.717   1.787  -3.707  1.00 68.53     0.121 C 
HETATM   22  CBE   D T1368     -12.421   3.604  -4.864  1.00 68.44     0.121 C 
ENDBRANCH  19  20
ENDBRANCH  18  19
ENDBRANCH  17  18
ENDBRANCH  10  17
ENDBRANCH   1   8
BRANCH   7  23
HETATM   23  CAK   D T1368     -14.306   5.695  -0.023  1.00 49.21     0.025 A 
HETATM   24  CAM   D T1368     -13.327   6.349  -0.751  1.00 47.19     0.019 A 
HETATM   25  CAP   D T1368     -13.117   7.686  -1.077  1.00 47.05     0.002 A 
HETATM   26  CAN   D T1368     -12.436   5.387  -1.204  1.00 48.17     0.081 A 
HETATM   27  CAQ   D T1368     -12.021   8.046  -1.859  1.00 49.31     0.000 A 
HETATM   28  CAR   D T1368     -11.134   7.074  -2.314  1.00 47.76     0.002 A 
HETATM   29  CAS   D T1368     -11.338   5.739  -1.984  1.00 48.79     0.019 A 
HETATM   30  NAO   D T1368     -12.896   4.225  -0.738  1.00 49.87    -0.244 NA
HETATM   31  CAL   D T1368     -14.013   4.395  -0.027  1.00 50.14     0.099 A 
ENDBRANCH   7  23
TORSDOF 6
ENDMDL
