MODEL 1
REMARK VINA RESULT:    -8.464      0.000      0.000
REMARK INTER + INTRA:         -12.456
REMARK INTER:                 -11.433
REMARK INTRA:                  -1.023
REMARK UNBOUND:                -1.023
REMARK  6 active torsions:
REMARK  status: ('A' for Active; 'I' for Inactive)
REMARK    1  A    between atoms: NBC_2  and  CBB_4 
REMARK    2  A    between atoms: CBB_4  and  CBA_5 
REMARK    3  A    between atoms: CBA_5  and  CAY_6 
REMARK    4  A    between atoms: CAY_6  and  NAH_7 
REMARK    5  A    between atoms: CAG_15  and  CAI_16 
REMARK    6  A    between atoms: CAJ_22  and  CAK_23 
ROOT
HETATM    1  CAI   D T1368       2.232   8.329   6.192  1.00 47.54     0.064 A 
HETATM    2  CAT   D T1368       1.266   9.236   5.765  1.00 46.36     0.282 A 
HETATM    3  OAZ   D T1368       0.075   9.265   6.062  1.00 44.28    -0.265 OA
HETATM    4  NAU   D T1368       1.908  10.108   4.987  1.00 46.45    -0.169 NA
HETATM    5  CAV   D T1368       3.211   9.856   4.865  1.00 47.61     0.282 A 
HETATM    6  OAX   D T1368       4.034  10.517   4.237  1.00 47.90    -0.265 OA
HETATM    7  CAJ   D T1368       3.442   8.713   5.624  1.00 48.30     0.064 A 
ENDROOT
BRANCH   1   8
HETATM    8  CAG   D T1368       2.001   7.316   7.122  1.00 49.01     0.023 A 
HETATM    9  CAW   D T1368       2.808   7.158   8.170  1.00 50.91     0.076 A 
HETATM   10  NAH   D T1368       2.305   6.178   8.929  1.00 50.74    -0.326 N 
HETATM   11  CAE   D T1368       1.186   5.672   8.415  1.00 49.51     0.060 A 
HETATM   12  CAF   D T1368       0.289   4.691   8.824  1.00 49.09     0.017 A 
HETATM   13  CAD   D T1368       0.971   6.396   7.248  1.00 48.06     0.017 A 
HETATM   14  CAA   D T1368      -0.842   4.437   8.053  1.00 50.27     0.002 A 
HETATM   15  CAB   D T1368      -1.066   5.159   6.883  1.00 50.31     0.000 A 
HETATM   16  CAC   D T1368      -0.158   6.135   6.479  1.00 49.26     0.002 A 
BRANCH  10  17
HETATM   17  CAY   D T1368       2.854   5.768  10.232  1.00 53.65     0.108 C 
BRANCH  17  18
HETATM   18  CBA   D T1368       3.794   4.560  10.157  1.00 61.14     0.048 C 
BRANCH  18  19
HETATM   19  CBB   D T1368       4.068   3.917  11.520  1.00 65.34     0.099 C 
BRANCH  19  20
HETATM   20  NBC   D T1368       5.473   4.002  11.959  1.00 68.16    -0.365 N 
HETATM   21  CBD   D T1368       6.489   3.902  10.901  1.00 68.53     0.121 C 
HETATM   22  CBE   D T1368       5.846   3.540  13.305  1.00 68.44     0.121 C 
ENDBRANCH  19  20
ENDBRANCH  18  19
ENDBRANCH  17  18
ENDBRANCH  10  17
ENDBRANCH   1   8
BRANCH   7  23
HETATM   23  CAK   D T1368       4.673   8.067   5.719  1.00 49.21     0.025 A 
HETATM   24  CAM   D T1368       5.832   8.353   6.424  1.00 47.19     0.019 A 
HETATM   25  CAP   D T1368       6.199   9.395   7.271  1.00 47.05     0.002 A 
HETATM   26  CAN   D T1368       6.741   7.340   6.151  1.00 48.17     0.081 A 
HETATM   27  CAQ   D T1368       7.473   9.417   7.832  1.00 49.31     0.000 A 
HETATM   28  CAR   D T1368       8.382   8.399   7.552  1.00 47.76     0.002 A 
HETATM   29  CAS   D T1368       8.016   7.354   6.711  1.00 48.79     0.019 A 
HETATM   30  NAO   D T1368       6.112   6.505   5.326  1.00 49.87    -0.244 NA
HETATM   31  CAL   D T1368       4.872   6.927   5.061  1.00 50.14     0.099 A 
ENDBRANCH   7  23
TORSDOF 6
ENDMDL
MODEL 2
REMARK VINA RESULT:    -8.066      2.455      5.485
REMARK INTER + INTRA:         -11.919
REMARK INTER:                 -10.689
REMARK INTRA:                  -1.229
REMARK UNBOUND:                -1.023
REMARK  6 active torsions:
REMARK  status: ('A' for Active; 'I' for Inactive)
REMARK    1  A    between atoms: NBC_2  and  CBB_4 
REMARK    2  A    between atoms: CBB_4  and  CBA_5 
REMARK    3  A    between atoms: CBA_5  and  CAY_6 
REMARK    4  A    between atoms: CAY_6  and  NAH_7 
REMARK    5  A    between atoms: CAG_15  and  CAI_16 
REMARK    6  A    between atoms: CAJ_22  and  CAK_23 
ROOT
HETATM    1  CAI   D T1368       3.088   6.117   8.320  1.00 47.54     0.064 A 
HETATM    2  CAT   D T1368       2.634   5.386   9.414  1.00 46.36     0.282 A 
HETATM    3  OAZ   D T1368       1.508   5.384   9.905  1.00 44.28    -0.265 OA
HETATM    4  NAU   D T1368       3.669   4.643   9.807  1.00 46.45    -0.169 NA
HETATM    5  CAV   D T1368       4.763   4.818   9.068  1.00 47.61     0.282 A 
HETATM    6  OAX   D T1368       5.838   4.239   9.194  1.00 47.90    -0.265 OA
HETATM    7  CAJ   D T1368       4.417   5.767   8.110  1.00 48.30     0.064 A 
ENDROOT
BRANCH   1   8
HETATM    8  CAG   D T1368       2.279   6.937   7.534  1.00 49.01     0.023 A 
HETATM    9  CAW   D T1368       2.703   8.139   7.146  1.00 50.91     0.076 A 
HETATM   10  NAH   D T1368       1.769   8.663   6.345  1.00 50.74    -0.326 N 
HETATM   11  CAE   D T1368       0.729   7.847   6.190  1.00 49.51     0.060 A 
HETATM   12  CAF   D T1368      -0.450   7.908   5.453  1.00 49.09     0.017 A 
HETATM   13  CAD   D T1368       1.040   6.725   6.949  1.00 48.06     0.017 A 
HETATM   14  CAA   D T1368      -1.324   6.826   5.475  1.00 50.27     0.002 A 
HETATM   15  CAB   D T1368      -1.019   5.696   6.232  1.00 50.31     0.000 A 
HETATM   16  CAC   D T1368       0.160   5.647   6.971  1.00 49.26     0.002 A 
BRANCH  10  17
HETATM   17  CAY   D T1368       1.907   9.942   5.629  1.00 53.65     0.108 C 
BRANCH  17  18
HETATM   18  CBA   D T1368       3.148  10.022   4.734  1.00 61.14     0.048 C 
BRANCH  18  19
HETATM   19  CBB   D T1368       3.089   9.077   3.529  1.00 65.34     0.099 C 
BRANCH  19  20
HETATM   20  NBC   D T1368       4.039   9.411   2.451  1.00 68.16    -0.365 N 
HETATM   21  CBD   D T1368       5.412   8.914   2.621  1.00 68.53     0.121 C 
HETATM   22  CBE   D T1368       3.855  10.646   1.673  1.00 68.44     0.121 C 
ENDBRANCH  19  20
ENDBRANCH  18  19
ENDBRANCH  17  18
ENDBRANCH  10  17
ENDBRANCH   1   8
BRANCH   7  23
HETATM   23  CAK   D T1368       5.300   6.291   7.166  1.00 49.21     0.025 A 
HETATM   24  CAM   D T1368       6.362   7.175   7.263  1.00 47.19     0.019 A 
HETATM   25  CAP   D T1368       6.921   7.881   8.325  1.00 47.05     0.002 A 
HETATM   26  CAN   D T1368       6.895   7.320   5.990  1.00 48.17     0.081 A 
HETATM   27  CAQ   D T1368       8.003   8.728   8.103  1.00 49.31     0.000 A 
HETATM   28  CAR   D T1368       8.532   8.871   6.822  1.00 47.76     0.002 A 
HETATM   29  CAS   D T1368       7.979   8.164   5.760  1.00 48.79     0.019 A 
HETATM   30  NAO   D T1368       6.162   6.535   5.202  1.00 49.87    -0.244 NA
HETATM   31  CAL   D T1368       5.204   5.910   5.894  1.00 50.14     0.099 A 
ENDBRANCH   7  23
TORSDOF 6
ENDMDL
MODEL 3
REMARK VINA RESULT:    -7.779      2.186      4.312
REMARK INTER + INTRA:         -11.530
REMARK INTER:                 -10.478
REMARK INTRA:                  -1.053
REMARK UNBOUND:                -1.023
REMARK  6 active torsions:
REMARK  status: ('A' for Active; 'I' for Inactive)
REMARK    1  A    between atoms: NBC_2  and  CBB_4 
REMARK    2  A    between atoms: CBB_4  and  CBA_5 
REMARK    3  A    between atoms: CBA_5  and  CAY_6 
REMARK    4  A    between atoms: CAY_6  and  NAH_7 
REMARK    5  A    between atoms: CAG_15  and  CAI_16 
REMARK    6  A    between atoms: CAJ_22  and  CAK_23 
ROOT
HETATM    1  CAI   D T1368       1.059   6.360   6.898  1.00 47.54     0.064 A 
HETATM    2  CAT   D T1368      -0.082   5.562   6.889  1.00 46.36     0.282 A 
HETATM    3  OAZ   D T1368      -0.261   4.497   7.473  1.00 44.28    -0.265 OA
HETATM    4  NAU   D T1368      -0.973   6.214   6.142  1.00 46.45    -0.169 NA
HETATM    5  CAV   D T1368      -0.521   7.371   5.659  1.00 47.61     0.282 A 
HETATM    6  OAX   D T1368      -1.143   8.176   4.972  1.00 47.90    -0.265 OA
HETATM    7  CAJ   D T1368       0.786   7.483   6.124  1.00 48.30     0.064 A 
ENDROOT
BRANCH   1   8
HETATM    8  CAG   D T1368       2.194   6.098   7.664  1.00 49.01     0.023 A 
HETATM    9  CAW   D T1368       2.083   5.734   8.941  1.00 50.91     0.076 A 
HETATM   10  NAH   D T1368       3.311   5.469   9.399  1.00 50.74    -0.326 N 
HETATM   11  CAE   D T1368       4.242   5.650   8.465  1.00 49.51     0.060 A 
HETATM   12  CAF   D T1368       5.624   5.483   8.427  1.00 49.09     0.017 A 
HETATM   13  CAD   D T1368       3.541   6.055   7.336  1.00 48.06     0.017 A 
HETATM   14  CAA   D T1368       6.307   5.720   7.239  1.00 50.27     0.002 A 
HETATM   15  CAB   D T1368       5.611   6.124   6.101  1.00 50.31     0.000 A 
HETATM   16  CAC   D T1368       4.229   6.294   6.151  1.00 49.26     0.002 A 
BRANCH  10  17
HETATM   17  CAY   D T1368       3.605   4.939  10.741  1.00 53.65     0.108 C 
BRANCH  17  18
HETATM   18  CBA   D T1368       4.374   3.613  10.730  1.00 61.14     0.048 C 
BRANCH  18  19
HETATM   19  CBB   D T1368       4.960   3.240  12.096  1.00 65.34     0.099 C 
BRANCH  19  20
HETATM   20  NBC   D T1368       6.182   3.985  12.454  1.00 68.16    -0.365 N 
HETATM   21  CBD   D T1368       7.205   4.094  11.405  1.00 68.53     0.121 C 
HETATM   22  CBE   D T1368       6.638   4.008  13.853  1.00 68.44     0.121 C 
ENDBRANCH  19  20
ENDBRANCH  18  19
ENDBRANCH  17  18
ENDBRANCH  10  17
ENDBRANCH   1   8
BRANCH   7  23
HETATM   23  CAK   D T1368       1.652   8.525   5.796  1.00 49.21     0.025 A 
HETATM   24  CAM   D T1368       2.233   8.923   4.603  1.00 47.19     0.019 A 
HETATM   25  CAP   D T1368       2.186   8.418   3.306  1.00 47.05     0.002 A 
HETATM   26  CAN   D T1368       2.996  10.050   4.871  1.00 48.17     0.081 A 
HETATM   27  CAQ   D T1368       2.909   9.042   2.292  1.00 49.31     0.000 A 
HETATM   28  CAR   D T1368       3.675  10.171   2.568  1.00 47.76     0.002 A 
HETATM   29  CAS   D T1368       3.720  10.681   3.862  1.00 48.79     0.019 A 
HETATM   30  NAO   D T1368       2.844  10.285   6.173  1.00 49.87    -0.244 NA
HETATM   31  CAL   D T1368       2.039   9.381   6.739  1.00 50.14     0.099 A 
ENDBRANCH   7  23
TORSDOF 6
ENDMDL
MODEL 4
REMARK VINA RESULT:    -7.652      2.022      5.105
REMARK INTER + INTRA:         -11.359
REMARK INTER:                 -10.787
REMARK INTRA:                  -0.572
REMARK UNBOUND:                -1.023
REMARK  6 active torsions:
REMARK  status: ('A' for Active; 'I' for Inactive)
REMARK    1  A    between atoms: NBC_2  and  CBB_4 
REMARK    2  A    between atoms: CBB_4  and  CBA_5 
REMARK    3  A    between atoms: CBA_5  and  CAY_6 
REMARK    4  A    between atoms: CAY_6  and  NAH_7 
REMARK    5  A    between atoms: CAG_15  and  CAI_16 
REMARK    6  A    between atoms: CAJ_22  and  CAK_23 
ROOT
HETATM    1  CAI   D T1368       1.433   6.316   7.150  1.00 47.54     0.064 A 
HETATM    2  CAT   D T1368       0.179   5.728   7.293  1.00 46.36     0.282 A 
HETATM    3  OAZ   D T1368      -0.093   4.649   7.812  1.00 44.28    -0.265 OA
HETATM    4  NAU   D T1368      -0.690   6.602   6.784  1.00 46.45    -0.169 NA
HETATM    5  CAV   D T1368      -0.120   7.713   6.319  1.00 47.61     0.282 A 
HETATM    6  OAX   D T1368      -0.690   8.684   5.831  1.00 47.90    -0.265 OA
HETATM    7  CAJ   D T1368       1.245   7.549   6.536  1.00 48.30     0.064 A 
ENDROOT
BRANCH   1   8
HETATM    8  CAG   D T1368       2.613   5.781   7.663  1.00 49.01     0.023 A 
HETATM    9  CAW   D T1368       3.768   5.935   7.015  1.00 50.91     0.076 A 
HETATM   10  NAH   D T1368       4.734   5.399   7.769  1.00 50.74    -0.326 N 
HETATM   11  CAE   D T1368       4.258   4.886   8.901  1.00 49.51     0.060 A 
HETATM   12  CAF   D T1368       4.838   4.265  10.004  1.00 49.09     0.017 A 
HETATM   13  CAD   D T1368       2.890   5.124   8.853  1.00 48.06     0.017 A 
HETATM   14  CAA   D T1368       4.033   3.885  11.073  1.00 50.27     0.002 A 
HETATM   15  CAB   D T1368       2.661   4.122  11.034  1.00 50.31     0.000 A 
HETATM   16  CAC   D T1368       2.089   4.738   9.923  1.00 49.26     0.002 A 
BRANCH  10  17
HETATM   17  CAY   D T1368       6.170   5.455   7.447  1.00 53.65     0.108 C 
BRANCH  17  18
HETATM   18  CBA   D T1368       6.493   6.272   6.192  1.00 61.14     0.048 C 
BRANCH  18  19
HETATM   19  CBB   D T1368       6.797   7.745   6.488  1.00 65.34     0.099 C 
BRANCH  19  20
HETATM   20  NBC   D T1368       7.389   8.480   5.355  1.00 68.16    -0.365 N 
HETATM   21  CBD   D T1368       7.012   8.015   4.013  1.00 68.53     0.121 C 
HETATM   22  CBE   D T1368       8.706   9.117   5.508  1.00 68.44     0.121 C 
ENDBRANCH  19  20
ENDBRANCH  18  19
ENDBRANCH  17  18
ENDBRANCH  10  17
ENDBRANCH   1   8
BRANCH   7  23
HETATM   23  CAK   D T1368       2.220   8.461   6.135  1.00 49.21     0.025 A 
HETATM   24  CAM   D T1368       2.642   8.898   4.889  1.00 47.19     0.019 A 
HETATM   25  CAP   D T1368       2.268   8.571   3.588  1.00 47.05     0.002 A 
HETATM   26  CAN   D T1368       3.642   9.837   5.098  1.00 48.17     0.081 A 
HETATM   27  CAQ   D T1368       2.902   9.182   2.510  1.00 49.31     0.000 A 
HETATM   28  CAR   D T1368       3.907  10.123   2.726  1.00 47.76     0.002 A 
HETATM   29  CAS   D T1368       4.279  10.455   4.025  1.00 48.79     0.019 A 
HETATM   30  NAO   D T1368       3.773   9.933   6.420  1.00 49.87    -0.244 NA
HETATM   31  CAL   D T1368       2.926   9.117   7.053  1.00 50.14     0.099 A 
ENDBRANCH   7  23
TORSDOF 6
ENDMDL
MODEL 5
REMARK VINA RESULT:    -7.508      2.513      7.581
REMARK INTER + INTRA:         -11.164
REMARK INTER:                 -10.123
REMARK INTRA:                  -1.041
REMARK UNBOUND:                -1.023
REMARK  6 active torsions:
REMARK  status: ('A' for Active; 'I' for Inactive)
REMARK    1  A    between atoms: NBC_2  and  CBB_4 
REMARK    2  A    between atoms: CBB_4  and  CBA_5 
REMARK    3  A    between atoms: CBA_5  and  CAY_6 
REMARK    4  A    between atoms: CAY_6  and  NAH_7 
REMARK    5  A    between atoms: CAG_15  and  CAI_16 
REMARK    6  A    between atoms: CAJ_22  and  CAK_23 
ROOT
HETATM    1  CAI   D T1368       4.575   5.854   7.911  1.00 47.54     0.064 A 
HETATM    2  CAT   D T1368       4.815   4.800   8.788  1.00 46.36     0.282 A 
HETATM    3  OAZ   D T1368       5.871   4.204   8.980  1.00 44.28    -0.265 OA
HETATM    4  NAU   D T1368       3.661   4.588   9.421  1.00 46.45    -0.169 NA
HETATM    5  CAV   D T1368       2.683   5.408   9.039  1.00 47.61     0.282 A 
HETATM    6  OAX   D T1368       1.539   5.448   9.482  1.00 47.90    -0.265 OA
HETATM    7  CAJ   D T1368       3.244   6.227   8.063  1.00 48.30     0.064 A 
ENDROOT
BRANCH   1   8
HETATM    8  CAG   D T1368       5.558   6.470   7.138  1.00 49.01     0.023 A 
HETATM    9  CAW   D T1368       5.469   6.482   5.808  1.00 50.91     0.076 A 
HETATM   10  NAH   D T1368       6.491   7.204   5.336  1.00 50.74    -0.326 N 
HETATM   11  CAE   D T1368       7.266   7.670   6.313  1.00 49.51     0.060 A 
HETATM   12  CAF   D T1368       8.400   8.476   6.351  1.00 49.09     0.017 A 
HETATM   13  CAD   D T1368       6.679   7.209   7.485  1.00 48.06     0.017 A 
HETATM   14  CAA   D T1368       8.947   8.826   7.581  1.00 50.27     0.002 A 
HETATM   15  CAB   D T1368       8.364   8.370   8.761  1.00 50.31     0.000 A 
HETATM   16  CAC   D T1368       7.233   7.559   8.713  1.00 49.26     0.002 A 
BRANCH  10  17
HETATM   17  CAY   D T1368       6.691   7.539   3.917  1.00 53.65     0.108 C 
BRANCH  17  18
HETATM   18  CBA   D T1368       6.171   8.927   3.528  1.00 61.14     0.048 C 
BRANCH  18  19
HETATM   19  CBB   D T1368       5.119   8.891   2.413  1.00 65.34     0.099 C 
BRANCH  19  20
HETATM   20  NBC   D T1368       3.850   9.559   2.757  1.00 68.16    -0.365 N 
HETATM   21  CBD   D T1368       3.950  10.719   3.653  1.00 68.53     0.121 C 
HETATM   22  CBE   D T1368       2.603   8.779   2.792  1.00 68.44     0.121 C 
ENDBRANCH  19  20
ENDBRANCH  18  19
ENDBRANCH  17  18
ENDBRANCH  10  17
ENDBRANCH   1   8
BRANCH   7  23
HETATM   23  CAK   D T1368       2.541   7.194   7.348  1.00 49.21     0.025 A 
HETATM   24  CAM   D T1368       1.308   7.184   6.716  1.00 47.19     0.019 A 
HETATM   25  CAP   D T1368       0.335   6.203   6.542  1.00 47.05     0.002 A 
HETATM   26  CAN   D T1368       1.109   8.447   6.178  1.00 48.17     0.081 A 
HETATM   27  CAQ   D T1368      -0.824   6.493   5.827  1.00 49.31     0.000 A 
HETATM   28  CAR   D T1368      -1.017   7.763   5.287  1.00 47.76     0.002 A 
HETATM   29  CAS   D T1368      -0.049   8.746   5.463  1.00 48.79     0.019 A 
HETATM   30  NAO   D T1368       2.192   9.150   6.504  1.00 49.87    -0.244 NA
HETATM   31  CAL   D T1368       3.056   8.414   7.207  1.00 50.14     0.099 A 
ENDBRANCH   7  23
TORSDOF 6
ENDMDL
MODEL 6
REMARK VINA RESULT:    -7.361      2.662      7.691
REMARK INTER + INTRA:         -10.966
REMARK INTER:                  -9.901
REMARK INTRA:                  -1.065
REMARK UNBOUND:                -1.023
REMARK  6 active torsions:
REMARK  status: ('A' for Active; 'I' for Inactive)
REMARK    1  A    between atoms: NBC_2  and  CBB_4 
REMARK    2  A    between atoms: CBB_4  and  CBA_5 
REMARK    3  A    between atoms: CBA_5  and  CAY_6 
REMARK    4  A    between atoms: CAY_6  and  NAH_7 
REMARK    5  A    between atoms: CAG_15  and  CAI_16 
REMARK    6  A    between atoms: CAJ_22  and  CAK_23 
ROOT
HETATM    1  CAI   D T1368       4.542   6.068   7.606  1.00 47.54     0.064 A 
HETATM    2  CAT   D T1368       5.301   5.303   8.488  1.00 46.36     0.282 A 
HETATM    3  OAZ   D T1368       6.521   5.169   8.511  1.00 44.28    -0.265 OA
HETATM    4  NAU   D T1368       4.431   4.768   9.344  1.00 46.45    -0.169 NA
HETATM    5  CAV   D T1368       3.166   5.113   9.105  1.00 47.61     0.282 A 
HETATM    6  OAX   D T1368       2.177   4.787   9.756  1.00 47.90    -0.265 OA
HETATM    7  CAJ   D T1368       3.211   5.942   7.988  1.00 48.30     0.064 A 
ENDROOT
BRANCH   1   8
HETATM    8  CAG   D T1368       5.080   6.893   6.620  1.00 49.01     0.023 A 
HETATM    9  CAW   D T1368       4.713   6.758   5.345  1.00 50.91     0.076 A 
HETATM   10  NAH   D T1368       5.316   7.722   4.642  1.00 50.74    -0.326 N 
HETATM   11  CAE   D T1368       6.082   8.496   5.409  1.00 49.51     0.060 A 
HETATM   12  CAF   D T1368       6.867   9.620   5.173  1.00 49.09     0.017 A 
HETATM   13  CAD   D T1368       5.942   7.978   6.691  1.00 48.06     0.017 A 
HETATM   14  CAA   D T1368       7.515  10.234   6.241  1.00 50.27     0.002 A 
HETATM   15  CAB   D T1368       7.379   9.723   7.529  1.00 50.31     0.000 A 
HETATM   16  CAC   D T1368       6.595   8.593   7.753  1.00 49.26     0.002 A 
BRANCH  10  17
HETATM   17  CAY   D T1368       5.089   7.976   3.209  1.00 53.65     0.108 C 
BRANCH  17  18
HETATM   18  CBA   D T1368       3.702   8.545   2.892  1.00 61.14     0.048 C 
BRANCH  18  19
HETATM   19  CBB   D T1368       3.701  10.066   2.699  1.00 65.34     0.099 C 
BRANCH  19  20
HETATM   20  NBC   D T1368       3.743  10.497   1.289  1.00 68.16    -0.365 N 
HETATM   21  CBD   D T1368       5.060  10.897   0.774  1.00 68.53     0.121 C 
HETATM   22  CBE   D T1368       2.557  11.120   0.682  1.00 68.44     0.121 C 
ENDBRANCH  19  20
ENDBRANCH  18  19
ENDBRANCH  17  18
ENDBRANCH  10  17
ENDBRANCH   1   8
BRANCH   7  23
HETATM   23  CAK   D T1368       2.088   6.478   7.360  1.00 49.21     0.025 A 
HETATM   24  CAM   D T1368       1.819   7.727   6.824  1.00 47.19     0.019 A 
HETATM   25  CAP   D T1368       2.556   8.905   6.736  1.00 47.05     0.002 A 
HETATM   26  CAN   D T1368       0.532   7.686   6.307  1.00 48.17     0.081 A 
HETATM   27  CAQ   D T1368       1.996  10.031   6.139  1.00 49.31     0.000 A 
HETATM   28  CAR   D T1368       0.702   9.984   5.624  1.00 47.76     0.002 A 
HETATM   29  CAS   D T1368      -0.035   8.807   5.706  1.00 48.79     0.019 A 
HETATM   30  NAO   D T1368       0.092   6.450   6.538  1.00 49.87    -0.244 NA
HETATM   31  CAL   D T1368       1.015   5.715   7.165  1.00 50.14     0.099 A 
ENDBRANCH   7  23
TORSDOF 6
ENDMDL
MODEL 7
REMARK VINA RESULT:    -7.202      2.559      5.549
REMARK INTER + INTRA:         -10.751
REMARK INTER:                  -9.313
REMARK INTRA:                  -1.437
REMARK UNBOUND:                -1.023
REMARK  6 active torsions:
REMARK  status: ('A' for Active; 'I' for Inactive)
REMARK    1  A    between atoms: NBC_2  and  CBB_4 
REMARK    2  A    between atoms: CBB_4  and  CBA_5 
REMARK    3  A    between atoms: CBA_5  and  CAY_6 
REMARK    4  A    between atoms: CAY_6  and  NAH_7 
REMARK    5  A    between atoms: CAG_15  and  CAI_16 
REMARK    6  A    between atoms: CAJ_22  and  CAK_23 
ROOT
HETATM    1  CAI   D T1368       5.931   7.066   6.402  1.00 47.54     0.064 A 
HETATM    2  CAT   D T1368       5.712   7.407   5.069  1.00 46.36     0.282 A 
HETATM    3  OAZ   D T1368       4.679   7.277   4.418  1.00 44.28    -0.265 OA
HETATM    4  NAU   D T1368       6.852   7.950   4.643  1.00 46.45    -0.169 NA
HETATM    5  CAV   D T1368       7.803   7.998   5.576  1.00 47.61     0.282 A 
HETATM    6  OAX   D T1368       8.928   8.473   5.458  1.00 47.90    -0.265 OA
HETATM    7  CAJ   D T1368       7.237   7.428   6.713  1.00 48.30     0.064 A 
ENDROOT
BRANCH   1   8
HETATM    8  CAG   D T1368       4.946   6.575   7.257  1.00 49.01     0.023 A 
HETATM    9  CAW   D T1368       3.729   7.117   7.276  1.00 50.91     0.076 A 
HETATM   10  NAH   D T1368       2.975   6.402   8.119  1.00 50.74    -0.326 N 
HETATM   11  CAE   D T1368       3.656   5.398   8.668  1.00 49.51     0.060 A 
HETATM   12  CAF   D T1368       3.330   4.377   9.555  1.00 49.09     0.017 A 
HETATM   13  CAD   D T1368       4.931   5.491   8.123  1.00 48.06     0.017 A 
HETATM   14  CAA   D T1368       4.296   3.434   9.894  1.00 50.27     0.002 A 
HETATM   15  CAB   D T1368       5.576   3.519   9.351  1.00 50.31     0.000 A 
HETATM   16  CAC   D T1368       5.894   4.549   8.469  1.00 49.26     0.002 A 
BRANCH  10  17
HETATM   17  CAY   D T1368       1.537   6.621   8.342  1.00 53.65     0.108 C 
BRANCH  17  18
HETATM   18  CBA   D T1368       0.642   6.037   7.243  1.00 61.14     0.048 C 
BRANCH  18  19
HETATM   19  CBB   D T1368      -0.519   6.958   6.854  1.00 65.34     0.099 C 
BRANCH  19  20
HETATM   20  NBC   D T1368      -0.407   7.533   5.500  1.00 68.16    -0.365 N 
HETATM   21  CBD   D T1368       0.475   8.700   5.363  1.00 68.53     0.121 C 
HETATM   22  CBE   D T1368      -1.538   7.423   4.565  1.00 68.44     0.121 C 
ENDBRANCH  19  20
ENDBRANCH  18  19
ENDBRANCH  17  18
ENDBRANCH  10  17
ENDBRANCH   1   8
BRANCH   7  23
HETATM   23  CAK   D T1368       7.917   7.222   7.912  1.00 49.21     0.025 A 
HETATM   24  CAM   D T1368       8.797   6.239   8.335  1.00 47.19     0.019 A 
HETATM   25  CAP   D T1368       9.303   5.089   7.733  1.00 47.05     0.002 A 
HETATM   26  CAN   D T1368       9.179   6.556   9.631  1.00 48.17     0.081 A 
HETATM   27  CAQ   D T1368      10.181   4.268   8.435  1.00 49.31     0.000 A 
HETATM   28  CAR   D T1368      10.559   4.591   9.736  1.00 47.76     0.002 A 
HETATM   29  CAS   D T1368      10.059   5.740  10.338  1.00 48.79     0.019 A 
HETATM   30  NAO   D T1368       8.541   7.688   9.925  1.00 49.87    -0.244 NA
HETATM   31  CAL   D T1368       7.784   8.100   8.904  1.00 50.14     0.099 A 
ENDBRANCH   7  23
TORSDOF 6
ENDMDL
MODEL 8
REMARK VINA RESULT:    -7.196      2.121      3.737
REMARK INTER + INTRA:         -10.744
REMARK INTER:                 -10.469
REMARK INTRA:                  -0.275
REMARK UNBOUND:                -1.023
REMARK  6 active torsions:
REMARK  status: ('A' for Active; 'I' for Inactive)
REMARK    1  A    between atoms: NBC_2  and  CBB_4 
REMARK    2  A    between atoms: CBB_4  and  CBA_5 
REMARK    3  A    between atoms: CBA_5  and  CAY_6 
REMARK    4  A    between atoms: CAY_6  and  NAH_7 
REMARK    5  A    between atoms: CAG_15  and  CAI_16 
REMARK    6  A    between atoms: CAJ_22  and  CAK_23 
ROOT
HETATM    1  CAI   D T1368       2.043   6.817   6.936  1.00 47.54     0.064 A 
HETATM    2  CAT   D T1368       0.669   6.686   6.751  1.00 46.36     0.282 A 
HETATM    3  OAZ   D T1368      -0.061   5.778   7.140  1.00 44.28    -0.265 OA
HETATM    4  NAU   D T1368       0.287   7.780   6.092  1.00 46.45    -0.169 NA
HETATM    5  CAV   D T1368       1.286   8.621   5.828  1.00 47.61     0.282 A 
HETATM    6  OAX   D T1368       1.205   9.709   5.265  1.00 47.90    -0.265 OA
HETATM    7  CAJ   D T1368       2.426   8.020   6.353  1.00 48.30     0.064 A 
ENDROOT
BRANCH   1   8
HETATM    8  CAG   D T1368       2.820   5.938   7.688  1.00 49.01     0.023 A 
HETATM    9  CAW   D T1368       4.120   5.791   7.432  1.00 50.91     0.076 A 
HETATM   10  NAH   D T1368       4.625   4.959   8.350  1.00 50.74    -0.326 N 
HETATM   11  CAE   D T1368       3.699   4.541   9.209  1.00 49.51     0.060 A 
HETATM   12  CAF   D T1368       3.718   3.718  10.332  1.00 49.09     0.017 A 
HETATM   13  CAD   D T1368       2.526   5.163   8.800  1.00 48.06     0.017 A 
HETATM   14  CAA   D T1368       2.545   3.524  11.055  1.00 50.27     0.002 A 
HETATM   15  CAB   D T1368       1.366   4.147  10.653  1.00 50.31     0.000 A 
HETATM   16  CAC   D T1368       1.355   4.963   9.524  1.00 49.26     0.002 A 
BRANCH  10  17
HETATM   17  CAY   D T1368       6.053   4.619   8.471  1.00 53.65     0.108 C 
BRANCH  17  18
HETATM   18  CBA   D T1368       6.927   5.208   7.358  1.00 61.14     0.048 C 
BRANCH  18  19
HETATM   19  CBB   D T1368       8.426   5.149   7.669  1.00 65.34     0.099 C 
BRANCH  19  20
HETATM   20  NBC   D T1368       9.041   6.463   7.936  1.00 68.16    -0.365 N 
HETATM   21  CBD   D T1368      10.387   6.441   8.527  1.00 68.53     0.121 C 
HETATM   22  CBE   D T1368       8.185   7.620   8.241  1.00 68.44     0.121 C 
ENDBRANCH  19  20
ENDBRANCH  18  19
ENDBRANCH  17  18
ENDBRANCH  10  17
ENDBRANCH   1   8
BRANCH   7  23
HETATM   23  CAK   D T1368       3.714   8.540   6.237  1.00 49.21     0.025 A 
HETATM   24  CAM   D T1368       4.604   8.619   5.178  1.00 47.19     0.019 A 
HETATM   25  CAP   D T1368       4.549   8.189   3.854  1.00 47.05     0.002 A 
HETATM   26  CAN   D T1368       5.741   9.264   5.641  1.00 48.17     0.081 A 
HETATM   27  CAQ   D T1368       5.635   8.403   3.010  1.00 49.31     0.000 A 
HETATM   28  CAR   D T1368       6.776   9.049   3.482  1.00 47.76     0.002 A 
HETATM   29  CAS   D T1368       6.831   9.484   4.801  1.00 48.79     0.019 A 
HETATM   30  NAO   D T1368       5.498   9.547   6.919  1.00 49.87    -0.244 NA
HETATM   31  CAL   D T1368       4.287   9.122   7.289  1.00 50.14     0.099 A 
ENDBRANCH   7  23
TORSDOF 6
ENDMDL
MODEL 9
REMARK VINA RESULT:    -7.099      2.184      3.923
REMARK INTER + INTRA:         -10.612
REMARK INTER:                  -9.321
REMARK INTRA:                  -1.291
REMARK UNBOUND:                -1.023
REMARK  6 active torsions:
REMARK  status: ('A' for Active; 'I' for Inactive)
REMARK    1  A    between atoms: NBC_2  and  CBB_4 
REMARK    2  A    between atoms: CBB_4  and  CBA_5 
REMARK    3  A    between atoms: CBA_5  and  CAY_6 
REMARK    4  A    between atoms: CAY_6  and  NAH_7 
REMARK    5  A    between atoms: CAG_15  and  CAI_16 
REMARK    6  A    between atoms: CAJ_22  and  CAK_23 
ROOT
HETATM    1  CAI   D T1368       5.240   8.238   4.629  1.00 47.54     0.064 A 
HETATM    2  CAT   D T1368       5.380   8.528   3.275  1.00 46.36     0.282 A 
HETATM    3  OAZ   D T1368       4.502   8.569   2.418  1.00 44.28    -0.265 OA
HETATM    4  NAU   D T1368       6.673   8.798   3.095  1.00 46.45    -0.169 NA
HETATM    5  CAV   D T1368       7.397   8.712   4.211  1.00 47.61     0.282 A 
HETATM    6  OAX   D T1368       8.598   8.939   4.330  1.00 47.90    -0.265 OA
HETATM    7  CAJ   D T1368       6.499   8.345   5.209  1.00 48.30     0.064 A 
ENDROOT
BRANCH   1   8
HETATM    8  CAG   D T1368       4.018   8.014   5.261  1.00 49.01     0.023 A 
HETATM    9  CAW   D T1368       3.860   6.985   6.093  1.00 50.91     0.076 A 
HETATM   10  NAH   D T1368       2.630   7.062   6.611  1.00 50.74    -0.326 N 
HETATM   11  CAE   D T1368       1.957   8.112   6.145  1.00 49.51     0.060 A 
HETATM   12  CAF   D T1368       0.692   8.639   6.388  1.00 49.09     0.017 A 
HETATM   13  CAD   D T1368       2.837   8.741   5.272  1.00 48.06     0.017 A 
HETATM   14  CAA   D T1368       0.309   9.815   5.751  1.00 50.27     0.002 A 
HETATM   15  CAB   D T1368       1.185  10.453   4.876  1.00 50.31     0.000 A 
HETATM   16  CAC   D T1368       2.447   9.914   4.635  1.00 49.26     0.002 A 
BRANCH  10  17
HETATM   17  CAY   D T1368       2.105   6.163   7.652  1.00 53.65     0.108 C 
BRANCH  17  18
HETATM   18  CBA   D T1368       3.189   5.547   8.544  1.00 61.14     0.048 C 
BRANCH  18  19
HETATM   19  CBB   D T1368       2.756   5.388  10.005  1.00 65.34     0.099 C 
BRANCH  19  20
HETATM   20  NBC   D T1368       2.947   4.031  10.549  1.00 68.16    -0.365 N 
HETATM   21  CBD   D T1368       1.737   3.207  10.677  1.00 68.53     0.121 C 
HETATM   22  CBE   D T1368       4.049   3.771  11.489  1.00 68.44     0.121 C 
ENDBRANCH  19  20
ENDBRANCH  18  19
ENDBRANCH  17  18
ENDBRANCH  10  17
ENDBRANCH   1   8
BRANCH   7  23
HETATM   23  CAK   D T1368       6.856   8.083   6.531  1.00 49.21     0.025 A 
HETATM   24  CAM   D T1368       7.124   6.909   7.216  1.00 47.19     0.019 A 
HETATM   25  CAP   D T1368       7.112   5.566   6.847  1.00 47.05     0.002 A 
HETATM   26  CAN   D T1368       7.449   7.256   8.519  1.00 48.17     0.081 A 
HETATM   27  CAQ   D T1368       7.419   4.586   7.786  1.00 49.31     0.000 A 
HETATM   28  CAR   D T1368       7.742   4.941   9.093  1.00 47.76     0.002 A 
HETATM   29  CAS   D T1368       7.759   6.281   9.464  1.00 48.79     0.019 A 
HETATM   30  NAO   D T1368       7.374   8.586   8.565  1.00 49.87    -0.244 NA
HETATM   31  CAL   D T1368       7.023   9.094   7.381  1.00 50.14     0.099 A 
ENDBRANCH   7  23
TORSDOF 6
ENDMDL
