MODEL 1
REMARK VINA RESULT:    -7.305      0.000      0.000
REMARK INTER + INTRA:         -10.172
REMARK INTER:                  -9.440
REMARK INTRA:                  -0.731
REMARK UNBOUND:                -0.731
REMARK  10 active torsions:
REMARK  status: ('A' for Active; 'I' for Inactive)
REMARK    1  A    between atoms: C1_1  and  C21_25 
REMARK    2  A    between atoms: N1_14  and  C13_15 
REMARK    3  A    between atoms: C13_15  and  C14_16 
REMARK    4  A    between atoms: C14_16  and  C15_17 
REMARK    5  A    between atoms: C15_17  and  N2_18 
REMARK    6  A    between atoms: C1_29  and  C21_53 
REMARK    7  A    between atoms: N1_42  and  C13_43 
REMARK    8  A    between atoms: C13_43  and  C14_44 
REMARK    9  A    between atoms: C14_44  and  C15_45 
REMARK   10  A    between atoms: C15_45  and  N2_46 
ROOT
HETATM    1  C1    D T 202      11.401   5.169  -9.057  1.00 54.66     0.073 A 
HETATM    2  C2    D T 202      11.529   3.812  -9.371  1.00 49.73     0.004 A 
HETATM    3  C3    D T 202      11.347   2.845  -8.397  1.00 49.21     0.008 A 
HETATM    4  C4    D T 202      11.030   3.243  -7.062  1.00 49.88     0.045 A 
HETATM    5  C5    D T 202      10.898   4.634  -6.736  1.00 48.69     0.066 A 
HETATM    6  C6    D T 202      11.091   5.597  -7.770  1.00 49.76     0.022 A 
HETATM    7  S     D T 202      10.824   2.058  -5.882  1.00 46.23    -0.084 SA
HETATM    8  C7    D T 202      11.297   2.876  -4.412  1.00 45.36     0.045 A 
HETATM    9  C8    D T 202      11.846   2.115  -3.340  1.00 43.44     0.008 A 
HETATM   10  C9    D T 202      12.228   2.759  -2.163  1.00 42.29     0.001 A 
HETATM   11  C10   D T 202      12.080   4.144  -2.011  1.00 41.73     0.002 A 
HETATM   12  C11   D T 202      11.551   4.928  -3.035  1.00 42.27     0.018 A 
HETATM   13  C12   D T 202      11.140   4.307  -4.269  1.00 46.69     0.066 A 
HETATM   14  N1    D T 202      10.584   5.032  -5.396  1.00 48.50    -0.327 N 
ENDROOT
BRANCH  14  15
HETATM   15  C13   D T 202       9.738   6.226  -5.153  1.00 51.05     0.108 C 
BRANCH  15  16
HETATM   16  C14   D T 202       8.628   5.814  -4.218  1.00 53.67     0.060 C 
BRANCH  16  17
HETATM   17  C15   D T 202       8.329   6.943  -3.252  1.00 58.14     0.252 C 
BRANCH  17  18
HETATM   18  N2    D T 202       9.202   8.120  -3.408  1.00 61.51     0.141 N 
HETATM   19  C16   D T 202       8.298   9.268  -3.565  1.00 59.93     0.285 C 
HETATM   20  C17   D T 202       9.082  10.575  -3.714  1.00 61.97     0.285 C 
HETATM   21  N3    D T 202      10.127  10.772  -2.668  1.00 64.22     0.143 N 
HETATM   22  C18   D T 202      10.907   9.551  -2.306  1.00 64.20     0.285 C 
HETATM   23  C20   D T 202      11.072  11.767  -3.168  1.00 64.68     0.285 C 
HETATM   24  C19   D T 202      10.043   8.289  -2.202  1.00 64.24     0.285 C 
ENDBRANCH  17  18
ENDBRANCH  16  17
ENDBRANCH  15  16
ENDBRANCH  14  15
BRANCH   1  25
HETATM   25  C21   D T 202      11.606   6.249 -10.121  1.00 58.14     0.419 C 
HETATM   26  F1    D T 202      11.675   7.426  -9.674  1.00 59.56    -0.166 F 
HETATM   27  F2    D T 202      10.716   6.372 -11.027  1.00 63.10    -0.166 F 
HETATM   28  F3    D T 202      12.638   6.173 -10.857  1.00 59.07    -0.166 F 
ENDBRANCH   1  25
TORSDOF 10
ENDMDL
MODEL 2
REMARK VINA RESULT:    -7.276      2.569      3.941
REMARK INTER + INTRA:         -10.134
REMARK INTER:                  -9.164
REMARK INTRA:                  -0.971
REMARK UNBOUND:                -0.731
REMARK  10 active torsions:
REMARK  status: ('A' for Active; 'I' for Inactive)
REMARK    1  A    between atoms: C1_1  and  C21_25 
REMARK    2  A    between atoms: N1_14  and  C13_15 
REMARK    3  A    between atoms: C13_15  and  C14_16 
REMARK    4  A    between atoms: C14_16  and  C15_17 
REMARK    5  A    between atoms: C15_17  and  N2_18 
REMARK    6  A    between atoms: C1_29  and  C21_53 
REMARK    7  A    between atoms: N1_42  and  C13_43 
REMARK    8  A    between atoms: C13_43  and  C14_44 
REMARK    9  A    between atoms: C14_44  and  C15_45 
REMARK   10  A    between atoms: C15_45  and  N2_46 
ROOT
HETATM    1  C1    D T 202      11.347   4.976  -8.873  1.00 54.66     0.073 A 
HETATM    2  C2    D T 202      11.584   3.663  -9.290  1.00 49.73     0.004 A 
HETATM    3  C3    D T 202      11.478   2.611  -8.396  1.00 49.21     0.008 A 
HETATM    4  C4    D T 202      11.128   2.877  -7.037  1.00 49.88     0.045 A 
HETATM    5  C5    D T 202      10.884   4.223  -6.605  1.00 48.69     0.066 A 
HETATM    6  C6    D T 202      11.002   5.277  -7.559  1.00 49.76     0.022 A 
HETATM    7  S     D T 202      11.015   1.591  -5.955  1.00 46.23    -0.084 SA
HETATM    8  C7    D T 202      11.418   2.326  -4.421  1.00 45.36     0.045 A 
HETATM    9  C8    D T 202      12.025   1.529  -3.408  1.00 43.44     0.008 A 
HETATM   10  C9    D T 202      12.351   2.108  -2.181  1.00 42.29     0.001 A 
HETATM   11  C10   D T 202      12.093   3.461  -1.923  1.00 41.73     0.002 A 
HETATM   12  C11   D T 202      11.504   4.277  -2.887  1.00 42.27     0.018 A 
HETATM   13  C12   D T 202      11.147   3.724  -4.169  1.00 46.69     0.066 A 
HETATM   14  N1    D T 202      10.536   4.488  -5.240  1.00 48.50    -0.327 N 
ENDROOT
BRANCH  14  15
HETATM   15  C13   D T 202       9.597   5.588  -4.912  1.00 51.05     0.108 C 
BRANCH  15  16
HETATM   16  C14   D T 202       8.296   4.961  -4.477  1.00 53.67     0.060 C 
BRANCH  16  17
HETATM   17  C15   D T 202       7.736   5.717  -3.289  1.00 58.14     0.252 C 
BRANCH  17  18
HETATM   18  N2    D T 202       7.400   4.868  -2.134  1.00 61.51     0.141 N 
HETATM   19  C16   D T 202       5.950   5.012  -1.943  1.00 59.93     0.285 C 
HETATM   20  C17   D T 202       5.456   4.153  -0.775  1.00 61.97     0.285 C 
HETATM   21  N3    D T 202       5.916   2.735  -0.834  1.00 64.22     0.143 N 
HETATM   22  C18   D T 202       7.332   2.542  -1.268  1.00 64.20     0.285 C 
HETATM   23  C20   D T 202       5.785   2.170   0.506  1.00 64.68     0.285 C 
HETATM   24  C19   D T 202       7.743   3.458  -2.425  1.00 64.24     0.285 C 
ENDBRANCH  17  18
ENDBRANCH  16  17
ENDBRANCH  15  16
ENDBRANCH  14  15
BRANCH   1  25
HETATM   25  C21   D T 202      11.466   6.149  -9.848  1.00 58.14     0.419 C 
HETATM   26  F1    D T 202      10.557   6.208 -10.720  1.00 59.56    -0.166 F 
HETATM   27  F2    D T 202      12.517   6.223 -10.568  1.00 63.10    -0.166 F 
HETATM   28  F3    D T 202      11.463   7.325  -9.369  1.00 59.07    -0.166 F 
ENDBRANCH   1  25
TORSDOF 10
ENDMDL
MODEL 3
REMARK VINA RESULT:    -7.219      2.485      3.497
REMARK INTER + INTRA:         -10.060
REMARK INTER:                  -9.361
REMARK INTRA:                  -0.700
REMARK UNBOUND:                -0.731
REMARK  10 active torsions:
REMARK  status: ('A' for Active; 'I' for Inactive)
REMARK    1  A    between atoms: C1_1  and  C21_25 
REMARK    2  A    between atoms: N1_14  and  C13_15 
REMARK    3  A    between atoms: C13_15  and  C14_16 
REMARK    4  A    between atoms: C14_16  and  C15_17 
REMARK    5  A    between atoms: C15_17  and  N2_18 
REMARK    6  A    between atoms: C1_29  and  C21_53 
REMARK    7  A    between atoms: N1_42  and  C13_43 
REMARK    8  A    between atoms: C13_43  and  C14_44 
REMARK    9  A    between atoms: C14_44  and  C15_45 
REMARK   10  A    between atoms: C15_45  and  N2_46 
ROOT
HETATM    1  C1    D T 202      11.320   4.972  -8.912  1.00 54.66     0.073 A 
HETATM    2  C2    D T 202      11.511   3.649  -9.324  1.00 49.73     0.004 A 
HETATM    3  C3    D T 202      11.392   2.607  -8.420  1.00 49.21     0.008 A 
HETATM    4  C4    D T 202      11.075   2.892  -7.056  1.00 49.88     0.045 A 
HETATM    5  C5    D T 202      10.878   4.248  -6.630  1.00 48.69     0.066 A 
HETATM    6  C6    D T 202      11.008   5.291  -7.594  1.00 49.76     0.022 A 
HETATM    7  S     D T 202      10.945   1.618  -5.962  1.00 46.23    -0.084 SA
HETATM    8  C7    D T 202      11.397   2.351  -4.442  1.00 45.36     0.045 A 
HETATM    9  C8    D T 202      12.000   1.544  -3.434  1.00 43.44     0.008 A 
HETATM   10  C9    D T 202      12.366   2.123  -2.218  1.00 42.29     0.001 A 
HETATM   11  C10   D T 202      12.151   3.484  -1.965  1.00 41.73     0.002 A 
HETATM   12  C11   D T 202      11.568   4.310  -2.925  1.00 42.27     0.018 A 
HETATM   13  C12   D T 202      11.171   3.759  -4.195  1.00 46.69     0.066 A 
HETATM   14  N1    D T 202      10.563   4.533  -5.261  1.00 48.50    -0.327 N 
ENDROOT
BRANCH  14  15
HETATM   15  C13   D T 202       9.662   5.662  -4.924  1.00 51.05     0.108 C 
BRANCH  15  16
HETATM   16  C14   D T 202       8.352   5.075  -4.461  1.00 53.67     0.060 C 
BRANCH  16  17
HETATM   17  C15   D T 202       8.107   5.452  -3.014  1.00 58.14     0.252 C 
BRANCH  17  18
HETATM   18  N2    D T 202       6.687   5.639  -2.669  1.00 61.51     0.141 N 
HETATM   19  C16   D T 202       6.292   4.426  -1.940  1.00 59.93     0.285 C 
HETATM   20  C17   D T 202       4.828   4.498  -1.497  1.00 61.97     0.285 C 
HETATM   21  N3    D T 202       4.474   5.764  -0.791  1.00 64.22     0.143 N 
HETATM   22  C18   D T 202       5.070   7.005  -1.371  1.00 64.20     0.285 C 
HETATM   23  C20   D T 202       3.022   5.908  -0.839  1.00 64.68     0.285 C 
HETATM   24  C19   D T 202       6.529   6.831  -1.807  1.00 64.24     0.285 C 
ENDBRANCH  17  18
ENDBRANCH  16  17
ENDBRANCH  15  16
ENDBRANCH  14  15
BRANCH   1  25
HETATM   25  C21   D T 202      11.455   6.134  -9.897  1.00 58.14     0.419 C 
HETATM   26  F1    D T 202      12.534   6.152 -10.550  1.00 59.56    -0.166 F 
HETATM   27  F2    D T 202      11.419   7.321  -9.430  1.00 63.10    -0.166 F 
HETATM   28  F3    D T 202      10.579   6.247 -10.810  1.00 59.07    -0.166 F 
ENDBRANCH   1  25
TORSDOF 10
ENDMDL
MODEL 4
REMARK VINA RESULT:    -6.332      4.255      6.559
REMARK INTER + INTRA:          -8.915
REMARK INTER:                  -7.628
REMARK INTRA:                  -1.287
REMARK UNBOUND:                -0.731
REMARK  10 active torsions:
REMARK  status: ('A' for Active; 'I' for Inactive)
REMARK    1  A    between atoms: C1_1  and  C21_25 
REMARK    2  A    between atoms: N1_14  and  C13_15 
REMARK    3  A    between atoms: C13_15  and  C14_16 
REMARK    4  A    between atoms: C14_16  and  C15_17 
REMARK    5  A    between atoms: C15_17  and  N2_18 
REMARK    6  A    between atoms: C1_29  and  C21_53 
REMARK    7  A    between atoms: N1_42  and  C13_43 
REMARK    8  A    between atoms: C13_43  and  C14_44 
REMARK    9  A    between atoms: C14_44  and  C15_45 
REMARK   10  A    between atoms: C15_45  and  N2_46 
ROOT
HETATM    1  C1    D T 202      12.039   5.315  -2.047  1.00 54.66     0.073 A 
HETATM    2  C2    D T 202      11.495   6.581  -2.285  1.00 49.73     0.004 A 
HETATM    3  C3    D T 202      10.783   6.833  -3.446  1.00 49.21     0.008 A 
HETATM    4  C4    D T 202      10.611   5.788  -4.406  1.00 49.88     0.045 A 
HETATM    5  C5    D T 202      11.168   4.489  -4.164  1.00 48.69     0.066 A 
HETATM    6  C6    D T 202      11.892   4.271  -2.955  1.00 49.76     0.022 A 
HETATM    7  S     D T 202       9.755   6.110  -5.820  1.00 46.23    -0.084 SA
HETATM    8  C7    D T 202      10.464   5.005  -6.973  1.00 45.36     0.045 A 
HETATM    9  C8    D T 202      10.479   5.357  -8.354  1.00 43.44     0.008 A 
HETATM   10  C9    D T 202      11.045   4.481  -9.281  1.00 42.29     0.001 A 
HETATM   11  C10   D T 202      11.598   3.257  -8.883  1.00 41.73     0.002 A 
HETATM   12  C11   D T 202      11.607   2.875  -7.542  1.00 42.27     0.018 A 
HETATM   13  C12   D T 202      11.033   3.745  -6.548  1.00 46.69     0.066 A 
HETATM   14  N1    D T 202      10.997   3.443  -5.129  1.00 48.50    -0.327 N 
ENDROOT
BRANCH  14  15
HETATM   15  C13   D T 202      10.846   2.036  -4.683  1.00 51.05     0.108 C 
BRANCH  15  16
HETATM   16  C14   D T 202       9.376   1.788  -4.455  1.00 53.67     0.060 C 
BRANCH  16  17
HETATM   17  C15   D T 202       9.081   1.803  -2.969  1.00 58.14     0.252 C 
BRANCH  17  18
HETATM   18  N2    D T 202       8.343   2.994  -2.510  1.00 61.51     0.141 N 
HETATM   19  C16   D T 202       7.654   3.517  -3.698  1.00 59.93     0.285 C 
HETATM   20  C17   D T 202       6.822   4.755  -3.355  1.00 61.97     0.285 C 
HETATM   21  N3    D T 202       5.928   4.572  -2.174  1.00 64.22     0.143 N 
HETATM   22  C18   D T 202       6.527   3.819  -1.032  1.00 64.20     0.285 C 
HETATM   23  C20   D T 202       5.562   5.898  -1.685  1.00 64.68     0.285 C 
HETATM   24  C19   D T 202       7.361   2.611  -1.472  1.00 64.24     0.285 C 
ENDBRANCH  17  18
ENDBRANCH  16  17
ENDBRANCH  15  16
ENDBRANCH  14  15
BRANCH   1  25
HETATM   25  C21   D T 202      12.833   5.024  -0.772  1.00 58.14     0.419 C 
HETATM   26  F1    D T 202      12.789   3.825  -0.383  1.00 59.56    -0.166 F 
HETATM   27  F2    D T 202      12.508   5.650   0.291  1.00 63.10    -0.166 F 
HETATM   28  F3    D T 202      14.080   5.265  -0.778  1.00 59.07    -0.166 F 
ENDBRANCH   1  25
TORSDOF 10
ENDMDL
MODEL 5
REMARK VINA RESULT:    -6.258     15.892     18.104
REMARK INTER + INTRA:          -8.819
REMARK INTER:                  -7.871
REMARK INTRA:                  -0.949
REMARK UNBOUND:                -0.731
REMARK  10 active torsions:
REMARK  status: ('A' for Active; 'I' for Inactive)
REMARK    1  A    between atoms: C1_1  and  C21_25 
REMARK    2  A    between atoms: N1_14  and  C13_15 
REMARK    3  A    between atoms: C13_15  and  C14_16 
REMARK    4  A    between atoms: C14_16  and  C15_17 
REMARK    5  A    between atoms: C15_17  and  N2_18 
REMARK    6  A    between atoms: C1_29  and  C21_53 
REMARK    7  A    between atoms: N1_42  and  C13_43 
REMARK    8  A    between atoms: C13_43  and  C14_44 
REMARK    9  A    between atoms: C14_44  and  C15_45 
REMARK   10  A    between atoms: C15_45  and  N2_46 
ROOT
HETATM    1  C1    D T 202      -5.380   4.168  -7.421  1.00 54.66     0.073 A 
HETATM    2  C2    D T 202      -6.046   3.185  -6.684  1.00 49.73     0.004 A 
HETATM    3  C3    D T 202      -6.453   2.008  -7.288  1.00 49.21     0.008 A 
HETATM    4  C4    D T 202      -6.190   1.804  -8.677  1.00 49.88     0.045 A 
HETATM    5  C5    D T 202      -5.507   2.810  -9.437  1.00 48.69     0.066 A 
HETATM    6  C6    D T 202      -5.103   4.007  -8.775  1.00 49.76     0.022 A 
HETATM    7  S     D T 202      -6.701   0.373  -9.405  1.00 46.23    -0.084 SA
HETATM    8  C7    D T 202      -6.972   0.847 -11.065  1.00 45.36     0.045 A 
HETATM    9  C8    D T 202      -7.950   0.153 -11.835  1.00 43.44     0.008 A 
HETATM   10  C9    D T 202      -8.174   0.526 -13.160  1.00 42.29     0.001 A 
HETATM   11  C10   D T 202      -7.454   1.571 -13.754  1.00 41.73     0.002 A 
HETATM   12  C11   D T 202      -6.491   2.279 -13.037  1.00 42.27     0.018 A 
HETATM   13  C12   D T 202      -6.223   1.929 -11.665  1.00 46.69     0.066 A 
HETATM   14  N1    D T 202      -5.247   2.606 -10.832  1.00 48.50    -0.327 N 
ENDROOT
BRANCH  14  15
HETATM   15  C13   D T 202      -4.006   3.140 -11.444  1.00 51.05     0.108 C 
BRANCH  15  16
HETATM   16  C14   D T 202      -3.100   1.969 -11.732  1.00 53.67     0.060 C 
BRANCH  16  17
HETATM   17  C15   D T 202      -2.571   1.402 -10.430  1.00 58.14     0.252 C 
BRANCH  17  18
HETATM   18  N2    D T 202      -2.606  -0.069 -10.352  1.00 61.51     0.141 N 
HETATM   19  C16   D T 202      -1.389  -0.533 -11.033  1.00 59.93     0.285 C 
HETATM   20  C17   D T 202      -1.287  -2.060 -11.004  1.00 61.97     0.285 C 
HETATM   21  N3    D T 202      -1.479  -2.651  -9.647  1.00 64.22     0.143 N 
HETATM   22  C18   D T 202      -2.560  -2.028  -8.827  1.00 64.20     0.285 C 
HETATM   23  C20   D T 202      -1.814  -4.062  -9.821  1.00 64.68     0.285 C 
HETATM   24  C19   D T 202      -2.600  -0.500  -8.937  1.00 64.24     0.285 C 
ENDBRANCH  17  18
ENDBRANCH  16  17
ENDBRANCH  15  16
ENDBRANCH  14  15
BRANCH   1  25
HETATM   25  C21   D T 202      -4.931   5.477  -6.769  1.00 58.14     0.419 C 
HETATM   26  F1    D T 202      -3.711   5.756  -6.926  1.00 59.56    -0.166 F 
HETATM   27  F2    D T 202      -5.057   5.589  -5.504  1.00 63.10    -0.166 F 
HETATM   28  F3    D T 202      -5.506   6.551  -7.128  1.00 59.07    -0.166 F 
ENDBRANCH   1  25
TORSDOF 10
ENDMDL
MODEL 6
REMARK VINA RESULT:    -6.238      3.224      5.123
REMARK INTER + INTRA:          -8.792
REMARK INTER:                  -7.962
REMARK INTRA:                  -0.830
REMARK UNBOUND:                -0.731
REMARK  10 active torsions:
REMARK  status: ('A' for Active; 'I' for Inactive)
REMARK    1  A    between atoms: C1_1  and  C21_25 
REMARK    2  A    between atoms: N1_14  and  C13_15 
REMARK    3  A    between atoms: C13_15  and  C14_16 
REMARK    4  A    between atoms: C14_16  and  C15_17 
REMARK    5  A    between atoms: C15_17  and  N2_18 
REMARK    6  A    between atoms: C1_29  and  C21_53 
REMARK    7  A    between atoms: N1_42  and  C13_43 
REMARK    8  A    between atoms: C13_43  and  C14_44 
REMARK    9  A    between atoms: C14_44  and  C15_45 
REMARK   10  A    between atoms: C15_45  and  N2_46 
ROOT
HETATM    1  C1    D T 202      10.962   3.930  -7.500  1.00 54.66     0.073 A 
HETATM    2  C2    D T 202      10.612   5.249  -7.805  1.00 49.73     0.004 A 
HETATM    3  C3    D T 202       9.993   6.049  -6.860  1.00 49.21     0.008 A 
HETATM    4  C4    D T 202       9.707   5.515  -5.566  1.00 49.88     0.045 A 
HETATM    5  C5    D T 202      10.064   4.163  -5.249  1.00 48.69     0.066 A 
HETATM    6  C6    D T 202      10.703   3.374  -6.251  1.00 49.76     0.022 A 
HETATM    7  S     D T 202       8.941   6.493  -4.429  1.00 46.23    -0.084 SA
HETATM    8  C7    D T 202       8.067   5.345  -3.442  1.00 45.36     0.045 A 
HETATM    9  C8    D T 202       6.862   5.755  -2.802  1.00 43.44     0.008 A 
HETATM   10  C9    D T 202       6.158   4.845  -2.014  1.00 42.29     0.001 A 
HETATM   11  C10   D T 202       6.612   3.531  -1.836  1.00 41.73     0.002 A 
HETATM   12  C11   D T 202       7.784   3.087  -2.447  1.00 42.27     0.018 A 
HETATM   13  C12   D T 202       8.547   3.992  -3.269  1.00 46.69     0.066 A 
HETATM   14  N1    D T 202       9.774   3.627  -3.952  1.00 48.50    -0.327 N 
ENDROOT
BRANCH  14  15
HETATM   15  C13   D T 202      10.698   2.649  -3.327  1.00 51.05     0.108 C 
BRANCH  15  16
HETATM   16  C14   D T 202      11.875   3.419  -2.782  1.00 53.67     0.060 C 
BRANCH  16  17
HETATM   17  C15   D T 202      12.398   2.736  -1.535  1.00 58.14     0.252 C 
BRANCH  17  18
HETATM   18  N2    D T 202      12.415   3.593  -0.337  1.00 61.51     0.141 N 
HETATM   19  C16   D T 202      13.803   3.575   0.146  1.00 59.93     0.285 C 
HETATM   20  C17   D T 202      13.969   4.455   1.388  1.00 61.97     0.285 C 
HETATM   21  N3    D T 202      13.406   5.828   1.233  1.00 64.22     0.143 N 
HETATM   22  C18   D T 202      12.096   5.903   0.518  1.00 64.20     0.285 C 
HETATM   23  C20   D T 202      13.211   6.380   2.570  1.00 64.68     0.285 C 
HETATM   24  C19   D T 202      12.014   4.972  -0.696  1.00 64.24     0.285 C 
ENDBRANCH  17  18
ENDBRANCH  16  17
ENDBRANCH  15  16
ENDBRANCH  14  15
BRANCH   1  25
HETATM   25  C21   D T 202      11.641   3.033  -8.536  1.00 58.14     0.419 C 
HETATM   26  F1    D T 202      12.819   2.688  -8.247  1.00 59.56    -0.166 F 
HETATM   27  F2    D T 202      11.791   3.490  -9.717  1.00 63.10    -0.166 F 
HETATM   28  F3    D T 202      11.091   1.922  -8.815  1.00 59.07    -0.166 F 
ENDBRANCH   1  25
TORSDOF 10
ENDMDL
MODEL 7
REMARK VINA RESULT:    -6.029      2.041      2.813
REMARK INTER + INTRA:          -8.523
REMARK INTER:                  -7.526
REMARK INTRA:                  -0.996
REMARK UNBOUND:                -0.731
REMARK  10 active torsions:
REMARK  status: ('A' for Active; 'I' for Inactive)
REMARK    1  A    between atoms: C1_1  and  C21_25 
REMARK    2  A    between atoms: N1_14  and  C13_15 
REMARK    3  A    between atoms: C13_15  and  C14_16 
REMARK    4  A    between atoms: C14_16  and  C15_17 
REMARK    5  A    between atoms: C15_17  and  N2_18 
REMARK    6  A    between atoms: C1_29  and  C21_53 
REMARK    7  A    between atoms: N1_42  and  C13_43 
REMARK    8  A    between atoms: C13_43  and  C14_44 
REMARK    9  A    between atoms: C14_44  and  C15_45 
REMARK   10  A    between atoms: C15_45  and  N2_46 
ROOT
HETATM    1  C1    D T 202      11.115   4.830  -8.220  1.00 54.66     0.073 A 
HETATM    2  C2    D T 202      11.339   3.453  -8.318  1.00 49.73     0.004 A 
HETATM    3  C3    D T 202      11.343   2.659  -7.183  1.00 49.21     0.008 A 
HETATM    4  C4    D T 202      11.122   3.259  -5.906  1.00 49.88     0.045 A 
HETATM    5  C5    D T 202      10.893   4.671  -5.801  1.00 48.69     0.066 A 
HETATM    6  C6    D T 202      10.894   5.451  -6.995  1.00 49.76     0.022 A 
HETATM    7  S     D T 202      11.143   2.285  -4.531  1.00 46.23    -0.084 SA
HETATM    8  C7    D T 202      11.678   3.379  -3.278  1.00 45.36     0.045 A 
HETATM    9  C8    D T 202      12.398   2.860  -2.163  1.00 43.44     0.008 A 
HETATM   10  C9    D T 202      12.830   3.727  -1.159  1.00 42.29     0.001 A 
HETATM   11  C10   D T 202      12.569   5.102  -1.222  1.00 41.73     0.002 A 
HETATM   12  C11   D T 202      11.872   5.653  -2.296  1.00 42.27     0.018 A 
HETATM   13  C12   D T 202      11.403   4.797  -3.357  1.00 46.69     0.066 A 
HETATM   14  N1    D T 202      10.674   5.271  -4.518  1.00 48.50    -0.327 N 
ENDROOT
BRANCH  14  15
HETATM   15  C13   D T 202       9.748   6.421  -4.383  1.00 51.05     0.108 C 
BRANCH  15  16
HETATM   16  C14   D T 202       8.408   5.878  -3.953  1.00 53.67     0.060 C 
BRANCH  16  17
HETATM   17  C15   D T 202       7.877   6.692  -2.790  1.00 58.14     0.252 C 
BRANCH  17  18
HETATM   18  N2    D T 202       8.463   6.338  -1.485  1.00 61.51     0.141 N 
HETATM   19  C16   D T 202       9.035   7.583  -0.956  1.00 59.93     0.285 C 
HETATM   20  C17   D T 202       9.663   7.362   0.423  1.00 61.97     0.285 C 
HETATM   21  N3    D T 202       8.769   6.654   1.386  1.00 64.22     0.143 N 
HETATM   22  C18   D T 202       7.979   5.524   0.810  1.00 64.20     0.285 C 
HETATM   23  C20   D T 202       9.607   6.109   2.451  1.00 64.68     0.285 C 
HETATM   24  C19   D T 202       7.410   5.829  -0.579  1.00 64.24     0.285 C 
ENDBRANCH  17  18
ENDBRANCH  16  17
ENDBRANCH  15  16
ENDBRANCH  14  15
BRANCH   1  25
HETATM   25  C21   D T 202      11.113   5.721  -9.464  1.00 58.14     0.419 C 
HETATM   26  F1    D T 202      11.143   6.959  -9.228  1.00 59.56    -0.166 F 
HETATM   27  F2    D T 202      10.119   5.636 -10.259  1.00 63.10    -0.166 F 
HETATM   28  F3    D T 202      12.058   5.578 -10.301  1.00 59.07    -0.166 F 
ENDBRANCH   1  25
TORSDOF 10
ENDMDL
MODEL 8
REMARK VINA RESULT:    -6.007      4.286      6.102
REMARK INTER + INTRA:          -8.494
REMARK INTER:                  -7.306
REMARK INTRA:                  -1.188
REMARK UNBOUND:                -0.731
REMARK  10 active torsions:
REMARK  status: ('A' for Active; 'I' for Inactive)
REMARK    1  A    between atoms: C1_1  and  C21_25 
REMARK    2  A    between atoms: N1_14  and  C13_15 
REMARK    3  A    between atoms: C13_15  and  C14_16 
REMARK    4  A    between atoms: C14_16  and  C15_17 
REMARK    5  A    between atoms: C15_17  and  N2_18 
REMARK    6  A    between atoms: C1_29  and  C21_53 
REMARK    7  A    between atoms: N1_42  and  C13_43 
REMARK    8  A    between atoms: C13_43  and  C14_44 
REMARK    9  A    between atoms: C14_44  and  C15_45 
REMARK   10  A    between atoms: C15_45  and  N2_46 
ROOT
HETATM    1  C1    D T 202       6.596   4.464  -2.277  1.00 54.66     0.073 A 
HETATM    2  C2    D T 202       7.122   3.194  -2.021  1.00 49.73     0.004 A 
HETATM    3  C3    D T 202       8.311   2.795  -2.608  1.00 49.21     0.008 A 
HETATM    4  C4    D T 202       8.997   3.690  -3.485  1.00 49.88     0.045 A 
HETATM    5  C5    D T 202       8.460   4.993  -3.750  1.00 48.69     0.066 A 
HETATM    6  C6    D T 202       7.234   5.365  -3.122  1.00 49.76     0.022 A 
HETATM    7  S     D T 202      10.436   3.189  -4.204  1.00 46.23    -0.084 SA
HETATM    8  C7    D T 202      10.465   4.088  -5.702  1.00 45.36     0.045 A 
HETATM    9  C8    D T 202      11.135   3.534  -6.832  1.00 43.44     0.008 A 
HETATM   10  C9    D T 202      11.162   4.245  -8.032  1.00 42.29     0.001 A 
HETATM   11  C10   D T 202      10.544   5.497  -8.151  1.00 41.73     0.002 A 
HETATM   12  C11   D T 202       9.875   6.074  -7.072  1.00 42.27     0.018 A 
HETATM   13  C12   D T 202       9.822   5.379  -5.811  1.00 46.69     0.066 A 
HETATM   14  N1    D T 202       9.148   5.889  -4.632  1.00 48.50    -0.327 N 
ENDROOT
BRANCH  14  15
HETATM   15  C13   D T 202       9.121   7.350  -4.378  1.00 51.05     0.108 C 
BRANCH  15  16
HETATM   16  C14   D T 202      10.143   7.644  -3.309  1.00 53.67     0.060 C 
BRANCH  16  17
HETATM   17  C15   D T 202       9.463   8.281  -2.114  1.00 58.14     0.252 C 
BRANCH  17  18
HETATM   18  N2    D T 202       8.114   8.806  -2.393  1.00 61.51     0.141 N 
HETATM   19  C16   D T 202       7.290   8.416  -1.241  1.00 59.93     0.285 C 
HETATM   20  C17   D T 202       5.853   8.924  -1.391  1.00 61.97     0.285 C 
HETATM   21  N3    D T 202       5.759  10.373  -1.734  1.00 64.22     0.143 N 
HETATM   22  C18   D T 202       6.758  10.858  -2.733  1.00 64.20     0.285 C 
HETATM   23  C20   D T 202       4.429  10.612  -2.288  1.00 64.68     0.285 C 
HETATM   24  C19   D T 202       8.161  10.279  -2.518  1.00 64.24     0.285 C 
ENDBRANCH  17  18
ENDBRANCH  16  17
ENDBRANCH  15  16
ENDBRANCH  14  15
BRANCH   1  25
HETATM   25  C21   D T 202       5.280   4.916  -1.641  1.00 58.14     0.419 C 
HETATM   26  F1    D T 202       4.368   4.046  -1.635  1.00 59.56    -0.166 F 
HETATM   27  F2    D T 202       4.678   5.915  -2.159  1.00 63.10    -0.166 F 
HETATM   28  F3    D T 202       5.303   5.298  -0.430  1.00 59.07    -0.166 F 
ENDBRANCH   1  25
TORSDOF 10
ENDMDL
MODEL 9
REMARK VINA RESULT:    -5.907     17.246     19.073
REMARK INTER + INTRA:          -8.365
REMARK INTER:                  -7.461
REMARK INTRA:                  -0.904
REMARK UNBOUND:                -0.731
REMARK  10 active torsions:
REMARK  status: ('A' for Active; 'I' for Inactive)
REMARK    1  A    between atoms: C1_1  and  C21_25 
REMARK    2  A    between atoms: N1_14  and  C13_15 
REMARK    3  A    between atoms: C13_15  and  C14_16 
REMARK    4  A    between atoms: C14_16  and  C15_17 
REMARK    5  A    between atoms: C15_17  and  N2_18 
REMARK    6  A    between atoms: C1_29  and  C21_53 
REMARK    7  A    between atoms: N1_42  and  C13_43 
REMARK    8  A    between atoms: C13_43  and  C14_44 
REMARK    9  A    between atoms: C14_44  and  C15_45 
REMARK   10  A    between atoms: C15_45  and  N2_46 
ROOT
HETATM    1  C1    D T 202      -4.391  -4.447  -1.215  1.00 54.66     0.073 A 
HETATM    2  C2    D T 202      -3.974  -5.483  -2.056  1.00 49.73     0.004 A 
HETATM    3  C3    D T 202      -2.730  -6.069  -1.886  1.00 49.21     0.008 A 
HETATM    4  C4    D T 202      -1.871  -5.603  -0.845  1.00 49.88     0.045 A 
HETATM    5  C5    D T 202      -2.295  -4.540   0.019  1.00 48.69     0.066 A 
HETATM    6  C6    D T 202      -3.584  -3.966  -0.188  1.00 49.76     0.022 A 
HETATM    7  S     D T 202      -0.355  -6.314  -0.656  1.00 46.23    -0.084 SA
HETATM    8  C7    D T 202       0.606  -5.024   0.027  1.00 45.36     0.045 A 
HETATM    9  C8    D T 202       2.008  -4.992  -0.229  1.00 43.44     0.008 A 
HETATM   10  C9    D T 202       2.782  -3.965   0.311  1.00 42.29     0.001 A 
HETATM   11  C10   D T 202       2.210  -2.961   1.104  1.00 41.73     0.002 A 
HETATM   12  C11   D T 202       0.843  -2.952   1.376  1.00 42.27     0.018 A 
HETATM   13  C12   D T 202       0.002  -3.993   0.842  1.00 46.69     0.066 A 
HETATM   14  N1    D T 202      -1.430  -4.072   1.062  1.00 48.50    -0.327 N 
ENDROOT
BRANCH  14  15
HETATM   15  C13   D T 202      -2.001  -3.605   2.349  1.00 51.05     0.108 C 
BRANCH  15  16
HETATM   16  C14   D T 202      -2.342  -4.827   3.165  1.00 53.67     0.060 C 
BRANCH  16  17
HETATM   17  C15   D T 202      -1.294  -5.032   4.239  1.00 58.14     0.252 C 
BRANCH  17  18
HETATM   18  N2    D T 202      -1.141  -6.430   4.677  1.00 61.51     0.141 N 
HETATM   19  C16   D T 202      -1.837  -6.521   5.969  1.00 59.93     0.285 C 
HETATM   20  C17   D T 202      -1.776  -7.943   6.532  1.00 61.97     0.285 C 
HETATM   21  N3    D T 202      -2.183  -8.996   5.556  1.00 64.22     0.143 N 
HETATM   22  C18   D T 202      -1.688  -8.797   4.161  1.00 64.20     0.285 C 
HETATM   23  C20   D T 202      -1.655 -10.271   6.033  1.00 64.68     0.285 C 
HETATM   24  C19   D T 202      -1.766  -7.340   3.692  1.00 64.24     0.285 C 
ENDBRANCH  17  18
ENDBRANCH  16  17
ENDBRANCH  15  16
ENDBRANCH  14  15
BRANCH   1  25
HETATM   25  C21   D T 202      -5.759  -3.786  -1.395  1.00 58.14     0.419 C 
HETATM   26  F1    D T 202      -5.783  -2.836  -2.223  1.00 59.56    -0.166 F 
HETATM   27  F2    D T 202      -6.301  -3.248  -0.373  1.00 63.10    -0.166 F 
HETATM   28  F3    D T 202      -6.726  -4.512  -1.781  1.00 59.07    -0.166 F 
ENDBRANCH   1  25
TORSDOF 10
ENDMDL
