MODEL 1
REMARK VINA RESULT:    -7.218      0.000      0.000
REMARK INTER + INTRA:          -8.603
REMARK INTER:                  -8.906
REMARK INTRA:                   0.304
REMARK UNBOUND:                 0.304
REMARK  4 active torsions:
REMARK  status: ('A' for Active; 'I' for Inactive)
REMARK    1  A    between atoms: C4_6  and  C5_7 
REMARK    2  A    between atoms: C5_7  and  C6_8 
REMARK    3  A    between atoms: C5_7  and  C12_16 
REMARK    4  A    between atoms: C21_27  and  C22_28 
ROOT
HETATM    1  C12   D T   1      19.007 -16.504 -16.886  1.00 23.69     0.021 A 
HETATM    2  C13   D T   1      19.941 -16.919 -17.842  1.00 23.69    -0.000 A 
HETATM    3  C14   D T   1      21.301 -17.131 -17.598  1.00 23.69     0.016 A 
HETATM    4  C15   D T   1      19.483 -16.314 -15.536  1.00 23.69    -0.000 A 
HETATM    5  C16   D T   1      20.856 -16.478 -15.175  1.00 23.69     0.017 A 
HETATM    6  C17   D T   1      21.803 -16.927 -16.120  1.00 23.69     0.062 A 
HETATM    7  N4    D T   1      23.172 -17.096 -15.842  1.00 23.69    -0.294 N 
HETATM    8  C18   D T   1      23.652 -16.878 -14.455  1.00 23.69     0.134 C 
HETATM    9  C19   D T   1      24.105 -17.533 -16.852  1.00 23.69     0.261 A 
HETATM   10  O1    D T   1      25.305 -17.702 -16.601  1.00 23.69    -0.267 OA
HETATM   11  C20   D T   1      23.626 -17.736 -18.163  1.00 23.69     0.061 A 
HETATM   12  C21   D T   1      22.256 -17.548 -18.554  1.00 23.69     0.006 A 
ENDROOT
BRANCH   1  13
HETATM   13  C5    D T   1      17.504 -16.294 -17.249  1.00 23.69     0.338 C 
HETATM   14  N3    D T   1      16.681 -17.500 -16.907  1.00 23.69     0.628 N 
BRANCH  13  15
HETATM   15  C4    D T   1      16.948 -15.163 -16.330  1.00 23.69     0.100 A 
HETATM   16  N1    D T   1      16.238 -15.481 -15.161  1.00 23.69    -0.308 N 
HETATM   17  C1    D T   1      15.907 -16.752 -14.547  1.00 23.69     0.132 C 
HETATM   18  C2    D T   1      15.915 -14.263 -14.636  1.00 23.69     0.178 A 
HETATM   19  N2    D T   1      16.317 -13.234 -15.332  1.00 23.69    -0.223 NA
HETATM   20  C3    D T   1      16.960 -13.781 -16.404  1.00 23.69     0.116 A 
ENDBRANCH  13  15
BRANCH  13  21
HETATM   21  C6    D T   1      17.359 -15.890 -18.793  1.00 23.69     0.003 A 
HETATM   22  C7    D T   1      18.393 -15.137 -19.504  1.00 23.69     0.051 A 
HETATM   23  C8    D T   1      18.229 -14.773 -20.885  1.00 23.69    -0.010 A 
HETATM   24  C9    D T   1      17.077 -15.200 -21.599  1.00 23.69     0.054 A 
HETATM   25 CL1    D T   1      16.912 -14.793 -23.239  1.00 23.69    -0.083 Cl
HETATM   26  C10   D T   1      16.045 -15.938 -20.924  1.00 23.69     0.011 A 
HETATM   27  C11   D T   1      16.198 -16.288 -19.569  1.00 23.69    -0.005 A 
ENDBRANCH  13  21
ENDBRANCH   1  13
BRANCH  12  28
HETATM   28  C22   D T   1      21.935 -17.808 -19.982  1.00 23.69     0.001 A 
HETATM   29  C23   D T   1      22.967 -18.066 -20.915  1.00 23.69     0.011 A 
HETATM   30  C24   D T   1      22.665 -18.341 -22.303  1.00 23.69     0.058 A 
HETATM   31 CL2    D T   1      23.901 -18.669 -23.408  1.00 23.69    -0.082 Cl
HETATM   32  C25   D T   1      21.291 -18.301 -22.762  1.00 23.69     0.011 A 
HETATM   33  C26   D T   1      20.243 -18.025 -21.803  1.00 23.69     0.001 A 
HETATM   34  C27   D T   1      20.574 -17.770 -20.420  1.00 23.69     0.000 A 
ENDBRANCH  12  28
TORSDOF 4
ENDMDL
MODEL 2
REMARK VINA RESULT:    -7.145     15.650     18.451
REMARK INTER + INTRA:          -8.512
REMARK INTER:                  -7.340
REMARK INTRA:                  -1.172
REMARK UNBOUND:                 0.304
REMARK  4 active torsions:
REMARK  status: ('A' for Active; 'I' for Inactive)
REMARK    1  A    between atoms: C4_6  and  C5_7 
REMARK    2  A    between atoms: C5_7  and  C6_8 
REMARK    3  A    between atoms: C5_7  and  C12_16 
REMARK    4  A    between atoms: C21_27  and  C22_28 
ROOT
HETATM    1  C12   D T   1      29.607  -2.671 -14.804  1.00 23.69     0.021 A 
HETATM    2  C13   D T   1      29.511  -2.897 -13.426  1.00 23.69    -0.000 A 
HETATM    3  C14   D T   1      29.457  -1.898 -12.450  1.00 23.69     0.016 A 
HETATM    4  C15   D T   1      29.616  -1.298 -15.249  1.00 23.69    -0.000 A 
HETATM    5  C16   D T   1      29.589  -0.194 -14.340  1.00 23.69     0.017 A 
HETATM    6  C17   D T   1      29.460  -0.406 -12.951  1.00 23.69     0.062 A 
HETATM    7  N4    D T   1      29.443   0.628 -11.996  1.00 23.69    -0.294 N 
HETATM    8  C18   D T   1      29.473   2.036 -12.466  1.00 23.69     0.134 C 
HETATM    9  C19   D T   1      29.335   0.357 -10.584  1.00 23.69     0.261 A 
HETATM   10  O1    D T   1      29.299   1.268  -9.747  1.00 23.69    -0.267 OA
HETATM   11  C20   D T   1      29.306  -0.988 -10.160  1.00 23.69     0.061 A 
HETATM   12  C21   D T   1      29.361  -2.111 -11.055  1.00 23.69     0.006 A 
ENDROOT
BRANCH   1  13
HETATM   13  C5    D T   1      29.660  -3.851 -15.823  1.00 23.69     0.338 C 
HETATM   14  N3    D T   1      28.762  -3.603 -16.999  1.00 23.69     0.628 N 
BRANCH  13  15
HETATM   15  C4    D T   1      31.098  -3.891 -16.426  1.00 23.69     0.100 A 
HETATM   16  N1    D T   1      31.406  -4.773 -17.475  1.00 23.69    -0.308 N 
HETATM   17  C1    D T   1      30.591  -5.719 -18.212  1.00 23.69     0.132 C 
HETATM   18  C2    D T   1      32.725  -4.531 -17.726  1.00 23.69     0.178 A 
HETATM   19  N2    D T   1      33.279  -3.628 -16.962  1.00 23.69    -0.223 NA
HETATM   20  C3    D T   1      32.274  -3.223 -16.134  1.00 23.69     0.116 A 
ENDBRANCH  13  15
BRANCH  13  21
HETATM   21  C6    D T   1      29.316  -5.232 -15.090  1.00 23.69     0.003 A 
HETATM   22  C7    D T   1      30.318  -5.988 -14.336  1.00 23.69     0.051 A 
HETATM   23  C8    D T   1      29.985  -7.235 -13.703  1.00 23.69    -0.010 A 
HETATM   24  C9    D T   1      28.650  -7.719 -13.746  1.00 23.69     0.054 A 
HETATM   25 CL1    D T   1      28.263  -9.176 -12.964  1.00 23.69    -0.083 Cl
HETATM   26  C10   D T   1      27.647  -6.999 -14.481  1.00 23.69     0.011 A 
HETATM   27  C11   D T   1      27.972  -5.782 -15.112  1.00 23.69    -0.005 A 
ENDBRANCH  13  21
ENDBRANCH   1  13
BRANCH  12  28
HETATM   28  C22   D T   1      29.321  -3.458 -10.426  1.00 23.69     0.001 A 
HETATM   29  C23   D T   1      29.926  -3.682  -9.167  1.00 23.69     0.011 A 
HETATM   30  C24   D T   1      29.875  -4.983  -8.537  1.00 23.69     0.058 A 
HETATM   31 CL2    D T   1      30.581  -5.239  -7.023  1.00 23.69    -0.082 Cl
HETATM   32  C25   D T   1      29.242  -6.091  -9.223  1.00 23.69     0.011 A 
HETATM   33  C26   D T   1      28.635  -5.855 -10.516  1.00 23.69     0.001 A 
HETATM   34  C27   D T   1      28.688  -4.541 -11.114  1.00 23.69     0.000 A 
ENDBRANCH  12  28
TORSDOF 4
ENDMDL
MODEL 3
REMARK VINA RESULT:    -6.997     16.959     19.179
REMARK INTER + INTRA:          -8.330
REMARK INTER:                  -7.029
REMARK INTRA:                  -1.301
REMARK UNBOUND:                 0.304
REMARK  4 active torsions:
REMARK  status: ('A' for Active; 'I' for Inactive)
REMARK    1  A    between atoms: C4_6  and  C5_7 
REMARK    2  A    between atoms: C5_7  and  C6_8 
REMARK    3  A    between atoms: C5_7  and  C12_16 
REMARK    4  A    between atoms: C21_27  and  C22_28 
ROOT
HETATM    1  C12   D T   1      29.140  -3.026 -11.063  1.00 23.69     0.021 A 
HETATM    2  C13   D T   1      29.543  -2.814 -12.387  1.00 23.69    -0.000 A 
HETATM    3  C14   D T   1      29.589  -3.796 -13.380  1.00 23.69     0.016 A 
HETATM    4  C15   D T   1      28.706  -4.357 -10.710  1.00 23.69    -0.000 A 
HETATM    5  C16   D T   1      28.733  -5.445 -11.636  1.00 23.69     0.017 A 
HETATM    6  C17   D T   1      29.106  -5.240 -12.981  1.00 23.69     0.062 A 
HETATM    7  N4    D T   1      29.172  -6.264 -13.944  1.00 23.69    -0.294 N 
HETATM    8  C18   D T   1      28.742  -7.633 -13.563  1.00 23.69     0.134 C 
HETATM    9  C19   D T   1      29.585  -6.006 -15.302  1.00 23.69     0.261 A 
HETATM   10  O1    D T   1      29.621  -6.904 -16.153  1.00 23.69    -0.267 OA
HETATM   11  C20   D T   1      29.987  -4.698 -15.643  1.00 23.69     0.061 A 
HETATM   12  C21   D T   1      29.996  -3.597 -14.720  1.00 23.69     0.006 A 
ENDROOT
BRANCH   1  13
HETATM   13  C5    D T   1      29.119  -1.866 -10.019  1.00 23.69     0.338 C 
HETATM   14  N3    D T   1      27.954  -1.990  -9.083  1.00 23.69     0.628 N 
BRANCH  13  15
HETATM   15  C4    D T   1      30.375  -2.024  -9.110  1.00 23.69     0.100 A 
HETATM   16  N1    D T   1      30.532  -1.224  -7.966  1.00 23.69    -0.308 N 
HETATM   17  C1    D T   1      29.682  -0.212  -7.372  1.00 23.69     0.132 C 
HETATM   18  C2    D T   1      31.724  -1.636  -7.444  1.00 23.69     0.178 A 
HETATM   19  N2    D T   1      32.333  -2.573  -8.119  1.00 23.69    -0.223 NA
HETATM   20  C3    D T   1      31.505  -2.821  -9.174  1.00 23.69     0.116 A 
ENDBRANCH  13  15
BRANCH  13  21
HETATM   21  C6    D T   1      29.136  -0.449 -10.766  1.00 23.69     0.003 A 
HETATM   22  C7    D T   1      30.372   0.159 -11.261  1.00 23.69     0.051 A 
HETATM   23  C8    D T   1      30.361   1.441 -11.912  1.00 23.69    -0.010 A 
HETATM   24  C9    D T   1      29.127   2.108 -12.142  1.00 23.69     0.054 A 
HETATM   25 CL1    D T   1      29.124   3.605 -12.943  1.00 23.69    -0.083 Cl
HETATM   26  C10   D T   1      27.899   1.535 -11.665  1.00 23.69     0.011 A 
HETATM   27  C11   D T   1      27.908   0.284 -11.017  1.00 23.69    -0.005 A 
ENDBRANCH  13  21
ENDBRANCH   1  13
BRANCH  12  28
HETATM   28  C22   D T   1      30.454  -2.288 -15.257  1.00 23.69     0.001 A 
HETATM   29  C23   D T   1      31.679  -2.188 -15.959  1.00 23.69     0.011 A 
HETATM   30  C24   D T   1      32.124  -0.925 -16.504  1.00 23.69     0.058 A 
HETATM   31 CL2    D T   1      33.578  -0.817 -17.360  1.00 23.69    -0.082 Cl
HETATM   32  C25   D T   1      31.335   0.271 -16.288  1.00 23.69     0.011 A 
HETATM   33  C26   D T   1      30.089   0.161 -15.560  1.00 23.69     0.001 A 
HETATM   34  C27   D T   1      29.662  -1.117 -15.040  1.00 23.69     0.000 A 
ENDBRANCH  12  28
TORSDOF 4
ENDMDL
MODEL 4
REMARK VINA RESULT:    -6.742     15.458     17.771
REMARK INTER + INTRA:          -8.015
REMARK INTER:                  -7.313
REMARK INTRA:                  -0.702
REMARK UNBOUND:                 0.304
REMARK  4 active torsions:
REMARK  status: ('A' for Active; 'I' for Inactive)
REMARK    1  A    between atoms: C4_6  and  C5_7 
REMARK    2  A    between atoms: C5_7  and  C6_8 
REMARK    3  A    between atoms: C5_7  and  C12_16 
REMARK    4  A    between atoms: C21_27  and  C22_28 
ROOT
HETATM    1  C12   D T   1      29.079  -3.394 -11.104  1.00 23.69     0.021 A 
HETATM    2  C13   D T   1      29.186  -4.064 -12.328  1.00 23.69    -0.000 A 
HETATM    3  C14   D T   1      29.159  -5.453 -12.489  1.00 23.69     0.016 A 
HETATM    4  C15   D T   1      28.893  -4.202  -9.922  1.00 23.69    -0.000 A 
HETATM    5  C16   D T   1      28.874  -5.631  -9.963  1.00 23.69     0.017 A 
HETATM    6  C17   D T   1      28.947  -6.320 -11.192  1.00 23.69     0.062 A 
HETATM    7  N4    D T   1      28.951  -7.722 -11.309  1.00 23.69    -0.294 N 
HETATM    8  C18   D T   1      28.778  -8.542 -10.084  1.00 23.69     0.134 C 
HETATM    9  C19   D T   1      29.055  -8.378 -12.590  1.00 23.69     0.261 A 
HETATM   10  O1    D T   1      29.036  -9.612 -12.693  1.00 23.69    -0.267 OA
HETATM   11  C20   D T   1      29.216  -7.579 -13.741  1.00 23.69     0.061 A 
HETATM   12  C21   D T   1      29.267  -6.143 -13.718  1.00 23.69     0.006 A 
ENDROOT
BRANCH   1  13
HETATM   13  C5    D T   1      29.118  -1.836 -11.019  1.00 23.69     0.338 C 
HETATM   14  N3    D T   1      27.777  -1.272 -10.654  1.00 23.69     0.628 N 
BRANCH  13  15
HETATM   15  C4    D T   1      30.047  -1.451  -9.828  1.00 23.69     0.100 A 
HETATM   16  N1    D T   1      31.403  -1.818  -9.834  1.00 23.69    -0.308 N 
HETATM   17  C1    D T   1      32.211  -2.515 -10.816  1.00 23.69     0.132 C 
HETATM   18  C2    D T   1      31.879  -1.324  -8.654  1.00 23.69     0.178 A 
HETATM   19  N2    D T   1      30.996  -0.712  -7.911  1.00 23.69    -0.223 NA
HETATM   20  C3    D T   1      29.838  -0.791  -8.629  1.00 23.69     0.116 A 
ENDBRANCH  13  15
BRANCH  13  21
HETATM   21  C6    D T   1      29.672  -1.222 -12.390  1.00 23.69     0.003 A 
HETATM   22  C7    D T   1      29.746  -2.005 -13.625  1.00 23.69     0.051 A 
HETATM   23  C8    D T   1      30.264  -1.433 -14.837  1.00 23.69    -0.010 A 
HETATM   24  C9    D T   1      30.654  -0.067 -14.867  1.00 23.69     0.054 A 
HETATM   25 CL1    D T   1      31.233   0.606 -16.314  1.00 23.69    -0.083 Cl
HETATM   26  C10   D T   1      30.596   0.724 -13.669  1.00 23.69     0.011 A 
HETATM   27  C11   D T   1      30.097   0.164 -12.476  1.00 23.69    -0.005 A 
ENDBRANCH  13  21
ENDBRANCH   1  13
BRANCH  12  28
HETATM   28  C22   D T   1      29.445  -5.468 -15.031  1.00 23.69     0.001 A 
HETATM   29  C23   D T   1      28.381  -4.739 -15.614  1.00 23.69     0.011 A 
HETATM   30  C24   D T   1      28.548  -4.062 -16.881  1.00 23.69     0.058 A 
HETATM   31 CL2    D T   1      27.280  -3.175 -17.561  1.00 23.69    -0.082 Cl
HETATM   32  C25   D T   1      29.805  -4.169 -17.594  1.00 23.69     0.011 A 
HETATM   33  C26   D T   1      30.884  -4.926 -16.995  1.00 23.69     0.001 A 
HETATM   34  C27   D T   1      30.692  -5.579 -15.722  1.00 23.69     0.000 A 
ENDBRANCH  12  28
TORSDOF 4
ENDMDL
MODEL 5
REMARK VINA RESULT:    -6.731      1.488      2.153
REMARK INTER + INTRA:          -8.002
REMARK INTER:                  -8.174
REMARK INTRA:                   0.173
REMARK UNBOUND:                 0.304
REMARK  4 active torsions:
REMARK  status: ('A' for Active; 'I' for Inactive)
REMARK    1  A    between atoms: C4_6  and  C5_7 
REMARK    2  A    between atoms: C5_7  and  C6_8 
REMARK    3  A    between atoms: C5_7  and  C12_16 
REMARK    4  A    between atoms: C21_27  and  C22_28 
ROOT
HETATM    1  C12   D T   1      18.047 -16.906 -16.215  1.00 23.69     0.021 A 
HETATM    2  C13   D T   1      19.261 -17.091 -16.886  1.00 23.69    -0.000 A 
HETATM    3  C14   D T   1      20.521 -17.088 -16.281  1.00 23.69     0.016 A 
HETATM    4  C15   D T   1      18.102 -16.731 -14.783  1.00 23.69    -0.000 A 
HETATM    5  C16   D T   1      19.336 -16.686 -14.062  1.00 23.69     0.017 A 
HETATM    6  C17   D T   1      20.565 -16.904 -14.718  1.00 23.69     0.062 A 
HETATM    7  N4    D T   1      21.817 -16.859 -14.079  1.00 23.69    -0.294 N 
HETATM    8  C18   D T   1      21.862 -16.659 -12.608  1.00 23.69     0.134 C 
HETATM    9  C19   D T   1      23.049 -17.063 -14.801  1.00 23.69     0.261 A 
HETATM   10  O1    D T   1      24.148 -17.045 -14.233  1.00 23.69    -0.267 OA
HETATM   11  C20   D T   1      22.983 -17.254 -16.198  1.00 23.69     0.061 A 
HETATM   12  C21   D T   1      21.756 -17.273 -16.946  1.00 23.69     0.006 A 
ENDROOT
BRANCH   1  13
HETATM   13  C5    D T   1      16.683 -16.927 -16.974  1.00 23.69     0.338 C 
HETATM   14  N3    D T   1      16.099 -18.308 -17.018  1.00 23.69     0.628 N 
BRANCH  13  15
HETATM   15  C4    D T   1      15.664 -16.093 -16.139  1.00 23.69     0.100 A 
HETATM   16  N1    D T   1      15.868 -14.719 -15.931  1.00 23.69    -0.308 N 
HETATM   17  C1    D T   1      16.901 -13.815 -16.399  1.00 23.69     0.132 C 
HETATM   18  C2    D T   1      14.800 -14.343 -15.170  1.00 23.69     0.178 A 
HETATM   19  N2    D T   1      13.970 -15.304 -14.865  1.00 23.69    -0.223 NA
HETATM   20  C3    D T   1      14.502 -16.411 -15.457  1.00 23.69     0.116 A 
ENDBRANCH  13  15
BRANCH  13  21
HETATM   21  C6    D T   1      16.856 -16.305 -18.440  1.00 23.69     0.003 A 
HETATM   22  C7    D T   1      18.080 -15.621 -18.860  1.00 23.69     0.051 A 
HETATM   23  C8    D T   1      18.201 -15.056 -20.176  1.00 23.69    -0.010 A 
HETATM   24  C9    D T   1      17.147 -15.213 -21.115  1.00 23.69     0.054 A 
HETATM   25 CL1    D T   1      17.316 -14.571 -22.677  1.00 23.69    -0.083 Cl
HETATM   26  C10   D T   1      15.932 -15.877 -20.728  1.00 23.69     0.011 A 
HETATM   27  C11   D T   1      15.806 -16.423 -19.436  1.00 23.69    -0.005 A 
ENDBRANCH  13  21
ENDBRANCH   1  13
BRANCH  12  28
HETATM   28  C22   D T   1      21.881 -17.484 -18.412  1.00 23.69     0.001 A 
HETATM   29  C23   D T   1      20.741 -17.783 -19.195  1.00 23.69     0.011 A 
HETATM   30  C24   D T   1      20.847 -17.970 -20.625  1.00 23.69     0.058 A 
HETATM   31 CL2    D T   1      19.477 -18.307 -21.557  1.00 23.69    -0.082 Cl
HETATM   32  C25   D T   1      22.145 -17.903 -21.266  1.00 23.69     0.011 A 
HETATM   33  C26   D T   1      23.307 -17.608 -20.455  1.00 23.69     0.001 A 
HETATM   34  C27   D T   1      23.168 -17.410 -19.031  1.00 23.69     0.000 A 
ENDBRANCH  12  28
TORSDOF 4
ENDMDL
MODEL 6
REMARK VINA RESULT:    -6.717      3.951      6.621
REMARK INTER + INTRA:          -7.985
REMARK INTER:                  -7.781
REMARK INTRA:                  -0.203
REMARK UNBOUND:                 0.304
REMARK  4 active torsions:
REMARK  status: ('A' for Active; 'I' for Inactive)
REMARK    1  A    between atoms: C4_6  and  C5_7 
REMARK    2  A    between atoms: C5_7  and  C6_8 
REMARK    3  A    between atoms: C5_7  and  C12_16 
REMARK    4  A    between atoms: C21_27  and  C22_28 
ROOT
HETATM    1  C12   D T   1      15.043 -17.197 -16.936  1.00 23.69     0.021 A 
HETATM    2  C13   D T   1      16.387 -16.820 -16.841  1.00 23.69    -0.000 A 
HETATM    3  C14   D T   1      17.154 -16.307 -17.891  1.00 23.69     0.016 A 
HETATM    4  C15   D T   1      14.393 -17.009 -18.211  1.00 23.69    -0.000 A 
HETATM    5  C16   D T   1      15.084 -16.515 -19.361  1.00 23.69     0.017 A 
HETATM    6  C17   D T   1      16.429 -16.100 -19.272  1.00 23.69     0.062 A 
HETATM    7  N4    D T   1      17.178 -15.620 -20.363  1.00 23.69    -0.294 N 
HETATM    8  C18   D T   1      16.503 -15.449 -21.674  1.00 23.69     0.134 C 
HETATM    9  C19   D T   1      18.560 -15.232 -20.225  1.00 23.69     0.261 A 
HETATM   10  O1    D T   1      19.211 -14.789 -21.180  1.00 23.69    -0.267 OA
HETATM   11  C20   D T   1      19.181 -15.400 -18.969  1.00 23.69     0.061 A 
HETATM   12  C21   D T   1      18.513 -15.923 -17.809  1.00 23.69     0.006 A 
ENDROOT
BRANCH   1  13
HETATM   13  C5    D T   1      14.263 -17.761 -15.708  1.00 23.69     0.338 C 
HETATM   14  N3    D T   1      13.396 -18.923 -16.092  1.00 23.69     0.628 N 
BRANCH  13  15
HETATM   15  C4    D T   1      15.309 -18.359 -14.717  1.00 23.69     0.100 A 
HETATM   16  N1    D T   1      14.910 -18.811 -13.448  1.00 23.69    -0.308 N 
HETATM   17  C1    D T   1      13.609 -18.880 -12.812  1.00 23.69     0.132 C 
HETATM   18  C2    D T   1      16.071 -19.248 -12.880  1.00 23.69     0.178 A 
HETATM   19  N2    D T   1      17.138 -19.114 -13.622  1.00 23.69    -0.223 NA
HETATM   20  C3    D T   1      16.678 -18.548 -14.775  1.00 23.69     0.116 A 
ENDBRANCH  13  15
BRANCH  13  21
HETATM   21  C6    D T   1      13.421 -16.594 -15.005  1.00 23.69     0.003 A 
HETATM   22  C7    D T   1      14.055 -15.399 -14.446  1.00 23.69     0.051 A 
HETATM   23  C8    D T   1      13.276 -14.376 -13.804  1.00 23.69    -0.010 A 
HETATM   24  C9    D T   1      11.860 -14.484 -13.762  1.00 23.69     0.054 A 
HETATM   25 CL1    D T   1      10.949 -13.252 -13.032  1.00 23.69    -0.083 Cl
HETATM   26  C10   D T   1      11.211 -15.648 -14.300  1.00 23.69     0.011 A 
HETATM   27  C11   D T   1      11.972 -16.658 -14.921  1.00 23.69    -0.005 A 
ENDBRANCH  13  21
ENDBRANCH   1  13
BRANCH  12  28
HETATM   28  C22   D T   1      19.329 -16.031 -16.571  1.00 23.69     0.001 A 
HETATM   29  C23   D T   1      20.472 -16.865 -16.534  1.00 23.69     0.011 A 
HETATM   30  C24   D T   1      21.284 -16.962 -15.342  1.00 23.69     0.058 A 
HETATM   31 CL2    D T   1      22.660 -17.944 -15.310  1.00 23.69    -0.082 Cl
HETATM   32  C25   D T   1      20.900 -16.238 -14.147  1.00 23.69     0.011 A 
HETATM   33  C26   D T   1      19.723 -15.396 -14.191  1.00 23.69     0.001 A 
HETATM   34  C27   D T   1      18.939 -15.307 -15.401  1.00 23.69     0.000 A 
ENDBRANCH  12  28
TORSDOF 4
ENDMDL
MODEL 7
REMARK VINA RESULT:    -6.675      3.866      7.343
REMARK INTER + INTRA:          -7.932
REMARK INTER:                  -6.974
REMARK INTRA:                  -0.958
REMARK UNBOUND:                 0.304
REMARK  4 active torsions:
REMARK  status: ('A' for Active; 'I' for Inactive)
REMARK    1  A    between atoms: C4_6  and  C5_7 
REMARK    2  A    between atoms: C5_7  and  C6_8 
REMARK    3  A    between atoms: C5_7  and  C12_16 
REMARK    4  A    between atoms: C21_27  and  C22_28 
ROOT
HETATM    1  C12   D T   1      17.502 -17.164 -17.955  1.00 23.69     0.021 A 
HETATM    2  C13   D T   1      17.956 -16.953 -16.648  1.00 23.69    -0.000 A 
HETATM    3  C14   D T   1      17.140 -16.652 -15.553  1.00 23.69     0.016 A 
HETATM    4  C15   D T   1      16.077 -17.097 -18.179  1.00 23.69    -0.000 A 
HETATM    5  C16   D T   1      15.150 -16.774 -17.140  1.00 23.69     0.017 A 
HETATM    6  C17   D T   1      15.589 -16.591 -15.812  1.00 23.69     0.062 A 
HETATM    7  N4    D T   1      14.739 -16.255 -14.742  1.00 23.69    -0.294 N 
HETATM    8  C18   D T   1      13.277 -16.171 -14.989  1.00 23.69     0.134 C 
HETATM    9  C19   D T   1      15.242 -16.053 -13.405  1.00 23.69     0.261 A 
HETATM   10  O1    D T   1      14.489 -15.779 -12.461  1.00 23.69    -0.267 OA
HETATM   11  C20   D T   1      16.633 -16.140 -13.192  1.00 23.69     0.061 A 
HETATM   12  C21   D T   1      17.585 -16.435 -14.228  1.00 23.69     0.006 A 
ENDROOT
BRANCH   1  13
HETATM   13  C5    D T   1      18.488 -17.497 -19.118  1.00 23.69     0.338 C 
HETATM   14  N3    D T   1      18.071 -18.736 -19.854  1.00 23.69     0.628 N 
BRANCH  13  15
HETATM   15  C4    D T   1      18.378 -16.355 -20.173  1.00 23.69     0.100 A 
HETATM   16  N1    D T   1      19.113 -16.418 -21.370  1.00 23.69    -0.308 N 
HETATM   17  C1    D T   1      20.008 -17.426 -21.901  1.00 23.69     0.132 C 
HETATM   18  C2    D T   1      18.772 -15.268 -22.020  1.00 23.69     0.178 A 
HETATM   19  N2    D T   1      17.937 -14.493 -21.381  1.00 23.69    -0.223 NA
HETATM   20  C3    D T   1      17.687 -15.157 -20.215  1.00 23.69     0.116 A 
ENDBRANCH  13  15
BRANCH  13  21
HETATM   21  C6    D T   1      19.984 -17.611 -18.560  1.00 23.69     0.003 A 
HETATM   22  C7    D T   1      20.851 -16.441 -18.402  1.00 23.69     0.051 A 
HETATM   23  C8    D T   1      22.197 -16.574 -17.915  1.00 23.69    -0.010 A 
HETATM   24  C9    D T   1      22.684 -17.848 -17.516  1.00 23.69     0.054 A 
HETATM   25 CL1    D T   1      24.264 -17.986 -16.911  1.00 23.69    -0.083 Cl
HETATM   26  C10   D T   1      21.856 -19.013 -17.663  1.00 23.69     0.011 A 
HETATM   27  C11   D T   1      20.540 -18.888 -18.149  1.00 23.69    -0.005 A 
ENDBRANCH  13  21
ENDBRANCH   1  13
BRANCH  12  28
HETATM   28  C22   D T   1      19.013 -16.484 -13.818  1.00 23.69     0.001 A 
HETATM   29  C23   D T   1      19.449 -15.816 -12.649  1.00 23.69     0.011 A 
HETATM   30  C24   D T   1      20.831 -15.874 -12.229  1.00 23.69     0.058 A 
HETATM   31 CL2    D T   1      21.341 -15.091 -10.820  1.00 23.69    -0.082 Cl
HETATM   32  C25   D T   1      21.801 -16.582 -13.040  1.00 23.69     0.011 A 
HETATM   33  C26   D T   1      21.348 -17.254 -14.240  1.00 23.69     0.001 A 
HETATM   34  C27   D T   1      19.958 -17.191 -14.626  1.00 23.69     0.000 A 
ENDBRANCH  12  28
TORSDOF 4
ENDMDL
MODEL 8
REMARK VINA RESULT:    -6.640      2.556      5.236
REMARK INTER + INTRA:          -7.889
REMARK INTER:                  -7.196
REMARK INTRA:                  -0.693
REMARK UNBOUND:                 0.304
REMARK  4 active torsions:
REMARK  status: ('A' for Active; 'I' for Inactive)
REMARK    1  A    between atoms: C4_6  and  C5_7 
REMARK    2  A    between atoms: C5_7  and  C6_8 
REMARK    3  A    between atoms: C5_7  and  C12_16 
REMARK    4  A    between atoms: C21_27  and  C22_28 
ROOT
HETATM    1  C12   D T   1      18.592 -17.081 -18.513  1.00 23.69     0.021 A 
HETATM    2  C13   D T   1      19.792 -17.066 -17.793  1.00 23.69    -0.000 A 
HETATM    3  C14   D T   1      19.922 -16.676 -16.457  1.00 23.69     0.016 A 
HETATM    4  C15   D T   1      17.393 -16.694 -17.809  1.00 23.69    -0.000 A 
HETATM    5  C16   D T   1      17.409 -16.254 -16.448  1.00 23.69     0.017 A 
HETATM    6  C17   D T   1      18.604 -16.265 -15.700  1.00 23.69     0.062 A 
HETATM    7  N4    D T   1      18.700 -15.831 -14.365  1.00 23.69    -0.294 N 
HETATM    8  C18   D T   1      17.462 -15.417 -13.656  1.00 23.69     0.134 C 
HETATM    9  C19   D T   1      19.954 -15.837 -13.650  1.00 23.69     0.261 A 
HETATM   10  O1    D T   1      20.032 -15.476 -12.469  1.00 23.69    -0.267 OA
HETATM   11  C20   D T   1      21.117 -16.236 -14.342  1.00 23.69     0.061 A 
HETATM   12  C21   D T   1      21.127 -16.654 -15.717  1.00 23.69     0.006 A 
ENDROOT
BRANCH   1  13
HETATM   13  C5    D T   1      18.541 -17.535 -20.006  1.00 23.69     0.338 C 
HETATM   14  N3    D T   1      17.744 -18.795 -20.170  1.00 23.69     0.628 N 
BRANCH  13  15
HETATM   15  C4    D T   1      17.745 -16.456 -20.801  1.00 23.69     0.100 A 
HETATM   16  N1    D T   1      18.297 -15.183 -21.023  1.00 23.69    -0.308 N 
HETATM   17  C1    D T   1      19.582 -14.612 -20.668  1.00 23.69     0.132 C 
HETATM   18  C2    D T   1      17.331 -14.529 -21.731  1.00 23.69     0.178 A 
HETATM   19  N2    D T   1      16.249 -15.222 -21.965  1.00 23.69    -0.223 NA
HETATM   20  C3    D T   1      16.488 -16.430 -21.379  1.00 23.69     0.116 A 
ENDBRANCH  13  15
BRANCH  13  21
HETATM   21  C6    D T   1      20.025 -17.687 -20.588  1.00 23.69     0.003 A 
HETATM   22  C7    D T   1      21.213 -17.595 -19.737  1.00 23.69     0.051 A 
HETATM   23  C8    D T   1      22.534 -17.717 -20.290  1.00 23.69    -0.010 A 
HETATM   24  C9    D T   1      22.701 -17.997 -21.673  1.00 23.69     0.054 A 
HETATM   25 CL1    D T   1      24.266 -18.174 -22.307  1.00 23.69    -0.083 Cl
HETATM   26  C10   D T   1      21.553 -18.090 -22.532  1.00 23.69     0.011 A 
HETATM   27  C11   D T   1      20.257 -17.960 -21.996  1.00 23.69    -0.005 A 
ENDBRANCH  13  21
ENDBRANCH   1  13
BRANCH  12  28
HETATM   28  C22   D T   1      22.449 -17.037 -16.280  1.00 23.69     0.001 A 
HETATM   29  C23   D T   1      23.294 -16.062 -16.858  1.00 23.69     0.011 A 
HETATM   30  C24   D T   1      24.590 -16.420 -17.390  1.00 23.69     0.058 A 
HETATM   31 CL2    D T   1      25.604 -15.245 -18.061  1.00 23.69    -0.082 Cl
HETATM   32  C25   D T   1      25.015 -17.805 -17.381  1.00 23.69     0.011 A 
HETATM   33  C26   D T   1      24.139 -18.798 -16.796  1.00 23.69     0.001 A 
HETATM   34  C27   D T   1      22.856 -18.408 -16.259  1.00 23.69     0.000 A 
ENDBRANCH  12  28
TORSDOF 4
ENDMDL
MODEL 9
REMARK VINA RESULT:    -6.576      6.501     10.930
REMARK INTER + INTRA:          -7.810
REMARK INTER:                  -6.718
REMARK INTRA:                  -1.093
REMARK UNBOUND:                 0.304
REMARK  4 active torsions:
REMARK  status: ('A' for Active; 'I' for Inactive)
REMARK    1  A    between atoms: C4_6  and  C5_7 
REMARK    2  A    between atoms: C5_7  and  C6_8 
REMARK    3  A    between atoms: C5_7  and  C12_16 
REMARK    4  A    between atoms: C21_27  and  C22_28 
ROOT
HETATM    1  C12   D T   1      14.550 -15.130 -12.913  1.00 23.69     0.021 A 
HETATM    2  C13   D T   1      14.827 -15.041 -11.544  1.00 23.69    -0.000 A 
HETATM    3  C14   D T   1      14.094 -14.285 -10.624  1.00 23.69     0.016 A 
HETATM    4  C15   D T   1      13.398 -14.411 -13.403  1.00 23.69    -0.000 A 
HETATM    5  C16   D T   1      12.590 -13.588 -12.559  1.00 23.69     0.017 A 
HETATM    6  C17   D T   1      12.836 -13.514 -11.172  1.00 23.69     0.062 A 
HETATM    7  N4    D T   1      12.095 -12.713 -10.283  1.00 23.69    -0.294 N 
HETATM    8  C18   D T   1      10.924 -11.963 -10.802  1.00 23.69     0.134 C 
HETATM    9  C19   D T   1      12.405 -12.652  -8.875  1.00 23.69     0.261 A 
HETATM   10  O1    D T   1      11.738 -11.964  -8.091  1.00 23.69    -0.267 OA
HETATM   11  C20   D T   1      13.521 -13.374  -8.403  1.00 23.69     0.061 A 
HETATM   12  C21   D T   1      14.363 -14.184  -9.239  1.00 23.69     0.006 A 
ENDROOT
BRANCH   1  13
HETATM   13  C5    D T   1      15.423 -16.002 -13.868  1.00 23.69     0.338 C 
HETATM   14  N3    D T   1      14.581 -16.935 -14.687  1.00 23.69     0.628 N 
BRANCH  13  15
HETATM   15  C4    D T   1      16.083 -15.048 -14.910  1.00 23.69     0.100 A 
HETATM   16  N1    D T   1      16.821 -15.569 -15.986  1.00 23.69    -0.308 N 
HETATM   17  C1    D T   1      17.100 -16.931 -16.396  1.00 23.69     0.132 C 
HETATM   18  C2    D T   1      17.237 -14.459 -16.661  1.00 23.69     0.178 A 
HETATM   19  N2    D T   1      16.869 -13.319 -16.140  1.00 23.69    -0.223 NA
HETATM   20  C3    D T   1      16.151 -13.671 -15.034  1.00 23.69     0.116 A 
ENDBRANCH  13  15
BRANCH  13  21
HETATM   21  C6    D T   1      16.542 -16.787 -13.032  1.00 23.69     0.003 A 
HETATM   22  C7    D T   1      17.820 -16.173 -12.667  1.00 23.69     0.051 A 
HETATM   23  C8    D T   1      18.813 -16.907 -11.932  1.00 23.69    -0.010 A 
HETATM   24  C9    D T   1      18.536 -18.229 -11.491  1.00 23.69     0.054 A 
HETATM   25 CL1    D T   1      19.705 -19.072 -10.594  1.00 23.69    -0.083 Cl
HETATM   26  C10   D T   1      17.291 -18.857 -11.838  1.00 23.69     0.011 A 
HETATM   27  C11   D T   1      16.319 -18.145 -12.567  1.00 23.69    -0.005 A 
ENDBRANCH  13  21
ENDBRANCH   1  13
BRANCH  12  28
HETATM   28  C22   D T   1      15.496 -14.872  -8.566  1.00 23.69     0.001 A 
HETATM   29  C23   D T   1      16.151 -14.270  -7.465  1.00 23.69     0.011 A 
HETATM   30  C24   D T   1      17.240 -14.939  -6.790  1.00 23.69     0.058 A 
HETATM   31 CL2    D T   1      18.005 -14.224  -5.462  1.00 23.69    -0.082 Cl
HETATM   32  C25   D T   1      17.708 -16.223  -7.274  1.00 23.69     0.011 A 
HETATM   33  C26   D T   1      17.039 -16.826  -8.407  1.00 23.69     0.001 A 
HETATM   34  C27   D T   1      15.944 -16.141  -9.052  1.00 23.69     0.000 A 
ENDBRANCH  12  28
TORSDOF 4
ENDMDL
