MODEL 1
REMARK VINA RESULT:    -9.070      0.000      0.000
REMARK INTER + INTRA:         -11.837
REMARK INTER:                 -11.191
REMARK INTRA:                  -0.646
REMARK UNBOUND:                -0.646
REMARK  4 active torsions:
REMARK  status: ('A' for Active; 'I' for Inactive)
REMARK    1  A    between atoms: C4_6  and  C5_7 
REMARK    2  A    between atoms: C5_7  and  C6_8 
REMARK    3  A    between atoms: C5_7  and  C12_16 
REMARK    4  A    between atoms: C21_27  and  C22_28 
ROOT
HETATM    1  C12   D T   1       8.250  -5.066   4.257  1.00 23.69     0.021 A 
HETATM    2  C13   D T   1       7.206  -5.996   4.208  1.00 23.69    -0.000 A 
HETATM    3  C14   D T   1       6.427  -6.388   5.301  1.00 23.69     0.016 A 
HETATM    4  C15   D T   1       8.518  -4.440   5.530  1.00 23.69    -0.000 A 
HETATM    5  C16   D T   1       7.803  -4.780   6.720  1.00 23.69     0.017 A 
HETATM    6  C17   D T   1       6.726  -5.691   6.680  1.00 23.69     0.062 A 
HETATM    7  N4    D T   1       5.987  -6.087   7.811  1.00 23.69    -0.294 N 
HETATM    8  C18   D T   1       6.288  -5.450   9.118  1.00 23.69     0.134 C 
HETATM    9  C19   D T   1       4.911  -7.043   7.721  1.00 23.69     0.261 A 
HETATM   10  O1    D T   1       4.249  -7.373   8.712  1.00 23.69    -0.267 OA
HETATM   11  C20   D T   1       4.644  -7.633   6.468  1.00 23.69     0.061 A 
HETATM   12  C21   D T   1       5.371  -7.327   5.266  1.00 23.69     0.006 A 
ENDROOT
BRANCH   1  13
HETATM   13  C5    D T   1       9.067  -4.687   2.982  1.00 23.69     0.338 C 
HETATM   14  N3    D T   1       9.730  -3.349   3.131  1.00 23.69     0.628 N 
BRANCH  13  15
HETATM   15  C4    D T   1      10.246  -5.699   2.858  1.00 23.69     0.100 A 
HETATM   16  N1    D T   1      11.420  -5.344   2.172  1.00 23.69    -0.308 N 
HETATM   17  C1    D T   1      11.825  -4.110   1.525  1.00 23.69     0.132 C 
HETATM   18  C2    D T   1      12.199  -6.460   2.264  1.00 23.69     0.178 A 
HETATM   19  N2    D T   1      11.661  -7.464   2.902  1.00 23.69    -0.223 NA
HETATM   20  C3    D T   1      10.428  -7.006   3.272  1.00 23.69     0.116 A 
ENDBRANCH  13  15
BRANCH  13  21
HETATM   21  C6    D T   1       8.128  -4.746   1.686  1.00 23.69     0.003 A 
HETATM   22  C7    D T   1       8.620  -5.208   0.386  1.00 23.69     0.051 A 
HETATM   23  C8    D T   1       7.760  -5.233  -0.766  1.00 23.69    -0.010 A 
HETATM   24  C9    D T   1       6.393  -4.867  -0.639  1.00 23.69     0.054 A 
HETATM   25 CL1    D T   1       5.381  -4.934  -2.001  1.00 23.69    -0.083 Cl
HETATM   26  C10   D T   1       5.885  -4.407   0.624  1.00 23.69     0.011 A 
HETATM   27  C11   D T   1       6.727  -4.371   1.753  1.00 23.69    -0.005 A 
ENDBRANCH  13  21
ENDBRANCH   1  13
BRANCH  12  28
HETATM   28  C22   D T   1       4.948  -8.050   4.037  1.00 23.69     0.001 A 
HETATM   29  C23   D T   1       4.469  -7.337   2.913  1.00 23.69     0.011 A 
HETATM   30  C24   D T   1       4.075  -8.028   1.705  1.00 23.69     0.058 A 
HETATM   31 CL2    D T   1       3.522  -7.170   0.358  1.00 23.69    -0.082 Cl
HETATM   32  C25   D T   1       4.121  -9.476   1.657  1.00 23.69     0.011 A 
HETATM   33  C26   D T   1       4.602 -10.197   2.815  1.00 23.69     0.001 A 
HETATM   34  C27   D T   1       5.004  -9.479   4.002  1.00 23.69     0.000 A 
ENDBRANCH  12  28
TORSDOF 4
ENDMDL
MODEL 2
REMARK VINA RESULT:    -8.527      1.266      1.789
REMARK INTER + INTRA:         -11.167
REMARK INTER:                 -10.374
REMARK INTRA:                  -0.793
REMARK UNBOUND:                -0.646
REMARK  4 active torsions:
REMARK  status: ('A' for Active; 'I' for Inactive)
REMARK    1  A    between atoms: C4_6  and  C5_7 
REMARK    2  A    between atoms: C5_7  and  C6_8 
REMARK    3  A    between atoms: C5_7  and  C12_16 
REMARK    4  A    between atoms: C21_27  and  C22_28 
ROOT
HETATM    1  C12   D T   1       8.547  -4.777   4.795  1.00 23.69     0.021 A 
HETATM    2  C13   D T   1       7.463  -5.653   4.931  1.00 23.69    -0.000 A 
HETATM    3  C14   D T   1       6.823  -5.957   6.136  1.00 23.69     0.016 A 
HETATM    4  C15   D T   1       9.014  -4.113   5.988  1.00 23.69    -0.000 A 
HETATM    5  C16   D T   1       8.452  -4.364   7.278  1.00 23.69     0.017 A 
HETATM    6  C17   D T   1       7.338  -5.218   7.427  1.00 23.69     0.062 A 
HETATM    7  N4    D T   1       6.742  -5.525   8.665  1.00 23.69    -0.294 N 
HETATM    8  C18   D T   1       7.246  -4.851   9.887  1.00 23.69     0.134 C 
HETATM    9  C19   D T   1       5.620  -6.427   8.766  1.00 23.69     0.261 A 
HETATM   10  O1    D T   1       5.085  -6.679   9.852  1.00 23.69    -0.267 OA
HETATM   11  C20   D T   1       5.159  -7.055   7.590  1.00 23.69     0.061 A 
HETATM   12  C21   D T   1       5.729  -6.839   6.289  1.00 23.69     0.006 A 
ENDROOT
BRANCH   1  13
HETATM   13  C5    D T   1       9.200  -4.497   3.405  1.00 23.69     0.338 C 
HETATM   14  N3    D T   1       9.947  -3.196   3.401  1.00 23.69     0.628 N 
BRANCH  13  15
HETATM   15  C4    D T   1      10.295  -5.581   3.169  1.00 23.69     0.100 A 
HETATM   16  N1    D T   1      11.386  -5.319   2.325  1.00 23.69    -0.308 N 
HETATM   17  C1    D T   1      11.771  -4.133   1.583  1.00 23.69     0.132 C 
HETATM   18  C2    D T   1      12.108  -6.476   2.359  1.00 23.69     0.178 A 
HETATM   19  N2    D T   1      11.604  -7.425   3.100  1.00 23.69    -0.223 NA
HETATM   20  C3    D T   1      10.458  -6.883   3.608  1.00 23.69     0.116 A 
ENDBRANCH  13  15
BRANCH  13  21
HETATM   21  C6    D T   1       8.090  -4.550   2.251  1.00 23.69     0.003 A 
HETATM   22  C7    D T   1       6.814  -3.840   2.362  1.00 23.69     0.051 A 
HETATM   23  C8    D T   1       5.828  -3.920   1.319  1.00 23.69    -0.010 A 
HETATM   24  C9    D T   1       6.111  -4.644   0.129  1.00 23.69     0.054 A 
HETATM   25 CL1    D T   1       4.950  -4.703  -1.108  1.00 23.69    -0.083 Cl
HETATM   26  C10   D T   1       7.353  -5.353  -0.004  1.00 23.69     0.011 A 
HETATM   27  C11   D T   1       8.318  -5.286   1.020  1.00 23.69    -0.005 A 
ENDBRANCH  13  21
ENDBRANCH   1  13
BRANCH  12  28
HETATM   28  C22   D T   1       5.111  -7.591   5.165  1.00 23.69     0.001 A 
HETATM   29  C23   D T   1       5.503  -8.922   4.889  1.00 23.69     0.011 A 
HETATM   30  C24   D T   1       4.894  -9.670   3.812  1.00 23.69     0.058 A 
HETATM   31 CL2    D T   1       5.352 -11.267   3.499  1.00 23.69    -0.082 Cl
HETATM   32  C25   D T   1       3.903  -9.036   2.966  1.00 23.69     0.011 A 
HETATM   33  C26   D T   1       3.516  -7.671   3.248  1.00 23.69     0.001 A 
HETATM   34  C27   D T   1       4.130  -6.954   4.342  1.00 23.69     0.000 A 
ENDBRANCH  12  28
TORSDOF 4
ENDMDL
MODEL 3
REMARK VINA RESULT:    -8.370      3.840      7.569
REMARK INTER + INTRA:         -10.974
REMARK INTER:                  -9.897
REMARK INTRA:                  -1.077
REMARK UNBOUND:                -0.646
REMARK  4 active torsions:
REMARK  status: ('A' for Active; 'I' for Inactive)
REMARK    1  A    between atoms: C4_6  and  C5_7 
REMARK    2  A    between atoms: C5_7  and  C6_8 
REMARK    3  A    between atoms: C5_7  and  C12_16 
REMARK    4  A    between atoms: C21_27  and  C22_28 
ROOT
HETATM    1  C12   D T   1       4.753  -7.577   3.321  1.00 23.69     0.021 A 
HETATM    2  C13   D T   1       5.853  -6.743   3.095  1.00 23.69    -0.000 A 
HETATM    3  C14   D T   1       6.131  -6.086   1.893  1.00 23.69     0.016 A 
HETATM    4  C15   D T   1       3.815  -7.742   2.236  1.00 23.69    -0.000 A 
HETATM    5  C16   D T   1       4.009  -7.139   0.954  1.00 23.69     0.017 A 
HETATM    6  C17   D T   1       5.095  -6.269   0.721  1.00 23.69     0.062 A 
HETATM    7  N4    D T   1       5.359  -5.653  -0.516  1.00 23.69    -0.294 N 
HETATM    8  C18   D T   1       4.398  -5.848  -1.630  1.00 23.69     0.134 C 
HETATM    9  C19   D T   1       6.500  -4.791  -0.709  1.00 23.69     0.261 A 
HETATM   10  O1    D T   1       6.718  -4.234  -1.792  1.00 23.69    -0.267 OA
HETATM   11  C20   D T   1       7.399  -4.621   0.364  1.00 23.69     0.061 A 
HETATM   12  C21   D T   1       7.239  -5.242   1.650  1.00 23.69     0.006 A 
ENDROOT
BRANCH   1  13
HETATM   13  C5    D T   1       4.522  -8.269   4.701  1.00 23.69     0.338 C 
HETATM   14  N3    D T   1       3.065  -8.522   4.953  1.00 23.69     0.628 N 
BRANCH  13  15
HETATM   15  C4    D T   1       5.161  -9.690   4.629  1.00 23.69     0.100 A 
HETATM   16  N1    D T   1       5.231 -10.497   5.777  1.00 23.69    -0.308 N 
HETATM   17  C1    D T   1       4.760 -10.291   7.134  1.00 23.69     0.132 C 
HETATM   18  C2    D T   1       5.846 -11.633   5.337  1.00 23.69     0.178 A 
HETATM   19  N2    D T   1       6.180 -11.632   4.075  1.00 23.69    -0.223 NA
HETATM   20  C3    D T   1       5.767 -10.413   3.618  1.00 23.69     0.116 A 
ENDBRANCH  13  15
BRANCH  13  21
HETATM   21  C6    D T   1       5.189  -7.405   5.872  1.00 23.69     0.003 A 
HETATM   22  C7    D T   1       6.634  -7.393   6.108  1.00 23.69     0.051 A 
HETATM   23  C8    D T   1       7.204  -6.622   7.179  1.00 23.69    -0.010 A 
HETATM   24  C9    D T   1       6.369  -5.804   7.988  1.00 23.69     0.054 A 
HETATM   25 CL1    D T   1       7.061  -4.873   9.228  1.00 23.69    -0.083 Cl
HETATM   26  C10   D T   1       4.947  -5.800   7.781  1.00 23.69     0.011 A 
HETATM   27  C11   D T   1       4.384  -6.562   6.739  1.00 23.69    -0.005 A 
ENDBRANCH  13  21
ENDBRANCH   1  13
BRANCH  12  28
HETATM   28  C22   D T   1       8.289  -4.946   2.661  1.00 23.69     0.001 A 
HETATM   29  C23   D T   1       8.842  -5.985   3.447  1.00 23.69     0.011 A 
HETATM   30  C24   D T   1       9.879  -5.713   4.418  1.00 23.69     0.058 A 
HETATM   31 CL2    D T   1      10.549  -6.961   5.340  1.00 23.69    -0.082 Cl
HETATM   32  C25   D T   1      10.326  -4.351   4.630  1.00 23.69     0.011 A 
HETATM   33  C26   D T   1       9.747  -3.294   3.830  1.00 23.69     0.001 A 
HETATM   34  C27   D T   1       8.725  -3.598   2.856  1.00 23.69     0.000 A 
ENDBRANCH  12  28
TORSDOF 4
ENDMDL
MODEL 4
REMARK VINA RESULT:    -8.136      3.369      6.659
REMARK INTER + INTRA:         -10.685
REMARK INTER:                  -9.989
REMARK INTRA:                  -0.696
REMARK UNBOUND:                -0.646
REMARK  4 active torsions:
REMARK  status: ('A' for Active; 'I' for Inactive)
REMARK    1  A    between atoms: C4_6  and  C5_7 
REMARK    2  A    between atoms: C5_7  and  C6_8 
REMARK    3  A    between atoms: C5_7  and  C12_16 
REMARK    4  A    between atoms: C21_27  and  C22_28 
ROOT
HETATM    1  C12   D T   1       6.364  -8.310   2.969  1.00 23.69     0.021 A 
HETATM    2  C13   D T   1       7.562  -7.631   3.216  1.00 23.69    -0.000 A 
HETATM    3  C14   D T   1       8.817  -8.234   3.340  1.00 23.69     0.016 A 
HETATM    4  C15   D T   1       6.439  -9.741   2.796  1.00 23.69    -0.000 A 
HETATM    5  C16   D T   1       7.664 -10.468   2.925  1.00 23.69     0.017 A 
HETATM    6  C17   D T   1       8.884  -9.794   3.141  1.00 23.69     0.062 A 
HETATM    7  N4    D T   1      10.125 -10.442   3.294  1.00 23.69    -0.294 N 
HETATM    8  C18   D T   1      10.185 -11.916   3.135  1.00 23.69     0.134 C 
HETATM    9  C19   D T   1      11.342  -9.707   3.540  1.00 23.69     0.261 A 
HETATM   10  O1    D T   1      12.434 -10.277   3.654  1.00 23.69    -0.267 OA
HETATM   11  C20   D T   1      11.259  -8.307   3.688  1.00 23.69     0.061 A 
HETATM   12  C21   D T   1      10.035  -7.561   3.591  1.00 23.69     0.006 A 
ENDROOT
BRANCH   1  13
HETATM   13  C5    D T   1       5.006  -7.551   2.844  1.00 23.69     0.338 C 
HETATM   14  N3    D T   1       3.852  -8.504   2.739  1.00 23.69     0.628 N 
BRANCH  13  15
HETATM   15  C4    D T   1       4.766  -6.788   4.182  1.00 23.69     0.100 A 
HETATM   16  N1    D T   1       4.374  -7.484   5.338  1.00 23.69    -0.308 N 
HETATM   17  C1    D T   1       4.160  -8.896   5.590  1.00 23.69     0.132 C 
HETATM   18  C2    D T   1       4.256  -6.504   6.281  1.00 23.69     0.178 A 
HETATM   19  N2    D T   1       4.507  -5.294   5.861  1.00 23.69    -0.223 NA
HETATM   20  C3    D T   1       4.818  -5.453   4.541  1.00 23.69     0.116 A 
ENDBRANCH  13  15
BRANCH  13  21
HETATM   21  C6    D T   1       5.052  -6.532   1.609  1.00 23.69     0.003 A 
HETATM   22  C7    D T   1       5.833  -5.294   1.648  1.00 23.69     0.051 A 
HETATM   23  C8    D T   1       5.841  -4.388   0.532  1.00 23.69    -0.010 A 
HETATM   24  C9    D T   1       5.138  -4.720  -0.658  1.00 23.69     0.054 A 
HETATM   25 CL1    D T   1       5.185  -3.657  -1.980  1.00 23.69    -0.083 Cl
HETATM   26  C10   D T   1       4.361  -5.928  -0.721  1.00 23.69     0.011 A 
HETATM   27  C11   D T   1       4.342  -6.813   0.374  1.00 23.69    -0.005 A 
ENDBRANCH  13  21
ENDBRANCH   1  13
BRANCH  12  28
HETATM   28  C22   D T   1      10.142  -6.089   3.776  1.00 23.69     0.001 A 
HETATM   29  C23   D T   1      10.342  -5.539   5.064  1.00 23.69     0.011 A 
HETATM   30  C24   D T   1      10.469  -4.111   5.254  1.00 23.69     0.058 A 
HETATM   31 CL2    D T   1      10.727  -3.462   6.793  1.00 23.69    -0.082 Cl
HETATM   32  C25   D T   1      10.340  -3.221   4.117  1.00 23.69     0.011 A 
HETATM   33  C26   D T   1      10.125  -3.791   2.805  1.00 23.69     0.001 A 
HETATM   34  C27   D T   1      10.019  -5.223   2.645  1.00 23.69     0.000 A 
ENDBRANCH  12  28
TORSDOF 4
ENDMDL
MODEL 5
REMARK VINA RESULT:    -7.804      3.791      7.371
REMARK INTER + INTRA:         -10.275
REMARK INTER:                  -9.208
REMARK INTRA:                  -1.067
REMARK UNBOUND:                -0.646
REMARK  4 active torsions:
REMARK  status: ('A' for Active; 'I' for Inactive)
REMARK    1  A    between atoms: C4_6  and  C5_7 
REMARK    2  A    between atoms: C5_7  and  C6_8 
REMARK    3  A    between atoms: C5_7  and  C12_16 
REMARK    4  A    between atoms: C21_27  and  C22_28 
ROOT
HETATM    1  C12   D T   1       5.652  -6.813   4.011  1.00 23.69     0.021 A 
HETATM    2  C13   D T   1       6.616  -6.128   3.263  1.00 23.69    -0.000 A 
HETATM    3  C14   D T   1       6.522  -5.843   1.897  1.00 23.69     0.016 A 
HETATM    4  C15   D T   1       4.453  -7.227   3.322  1.00 23.69    -0.000 A 
HETATM    5  C16   D T   1       4.257  -7.011   1.923  1.00 23.69     0.017 A 
HETATM    6  C17   D T   1       5.204  -6.293   1.162  1.00 23.69     0.062 A 
HETATM    7  N4    D T   1       5.088  -6.056  -0.220  1.00 23.69    -0.294 N 
HETATM    8  C18   D T   1       3.858  -6.505  -0.921  1.00 23.69     0.134 C 
HETATM    9  C19   D T   1       6.099  -5.338  -0.957  1.00 23.69     0.261 A 
HETATM   10  O1    D T   1       5.984  -5.113  -2.168  1.00 23.69    -0.267 OA
HETATM   11  C20   D T   1       7.258  -4.921  -0.270  1.00 23.69     0.061 A 
HETATM   12  C21   D T   1       7.488  -5.154   1.130  1.00 23.69     0.006 A 
ENDROOT
BRANCH   1  13
HETATM   13  C5    D T   1       5.844  -7.086   5.536  1.00 23.69     0.338 C 
HETATM   14  N3    D T   1       4.660  -6.618   6.330  1.00 23.69     0.628 N 
BRANCH  13  15
HETATM   15  C4    D T   1       5.870  -8.631   5.741  1.00 23.69     0.100 A 
HETATM   16  N1    D T   1       5.738  -9.181   7.027  1.00 23.69    -0.308 N 
HETATM   17  C1    D T   1       5.525  -8.566   8.324  1.00 23.69     0.132 C 
HETATM   18  C2    D T   1       5.814 -10.526   6.813  1.00 23.69     0.178 A 
HETATM   19  N2    D T   1       5.991 -10.884   5.570  1.00 23.69    -0.223 NA
HETATM   20  C3    D T   1       6.039  -9.704   4.884  1.00 23.69     0.116 A 
ENDBRANCH  13  15
BRANCH  13  21
HETATM   21  C6    D T   1       7.207  -6.421   6.050  1.00 23.69     0.003 A 
HETATM   22  C7    D T   1       8.444  -7.192   6.197  1.00 23.69     0.051 A 
HETATM   23  C8    D T   1       9.649  -6.573   6.679  1.00 23.69    -0.010 A 
HETATM   24  C9    D T   1       9.670  -5.180   6.958  1.00 23.69     0.054 A 
HETATM   25 CL1    D T   1      11.109  -4.457   7.495  1.00 23.69    -0.083 Cl
HETATM   26  C10   D T   1       8.469  -4.402   6.826  1.00 23.69     0.011 A 
HETATM   27  C11   D T   1       7.284  -5.006   6.364  1.00 23.69    -0.005 A 
ENDBRANCH  13  21
ENDBRANCH   1  13
BRANCH  12  28
HETATM   28  C22   D T   1       8.770  -4.642   1.682  1.00 23.69     0.001 A 
HETATM   29  C23   D T   1      10.004  -5.023   1.105  1.00 23.69     0.011 A 
HETATM   30  C24   D T   1      11.256  -4.516   1.620  1.00 23.69     0.058 A 
HETATM   31 CL2    D T   1      12.726  -4.960   0.915  1.00 23.69    -0.082 Cl
HETATM   32  C25   D T   1      11.257  -3.642   2.776  1.00 23.69     0.011 A 
HETATM   33  C26   D T   1       9.991  -3.265   3.366  1.00 23.69     0.001 A 
HETATM   34  C27   D T   1       8.755  -3.776   2.820  1.00 23.69     0.000 A 
ENDBRANCH  12  28
TORSDOF 4
ENDMDL
MODEL 6
REMARK VINA RESULT:    -7.544      3.735      7.688
REMARK INTER + INTRA:          -9.954
REMARK INTER:                  -8.832
REMARK INTRA:                  -1.122
REMARK UNBOUND:                -0.646
REMARK  4 active torsions:
REMARK  status: ('A' for Active; 'I' for Inactive)
REMARK    1  A    between atoms: C4_6  and  C5_7 
REMARK    2  A    between atoms: C5_7  and  C6_8 
REMARK    3  A    between atoms: C5_7  and  C12_16 
REMARK    4  A    between atoms: C21_27  and  C22_28 
ROOT
HETATM    1  C12   D T   1       4.700  -7.864   5.303  1.00 23.69     0.021 A 
HETATM    2  C13   D T   1       5.614  -6.977   4.726  1.00 23.69    -0.000 A 
HETATM    3  C14   D T   1       5.616  -6.584   3.384  1.00 23.69     0.016 A 
HETATM    4  C15   D T   1       3.657  -8.386   4.452  1.00 23.69    -0.000 A 
HETATM    5  C16   D T   1       3.574  -8.074   3.060  1.00 23.69     0.017 A 
HETATM    6  C17   D T   1       4.469  -7.155   2.470  1.00 23.69     0.062 A 
HETATM    7  N4    D T   1       4.458  -6.811   1.105  1.00 23.69    -0.294 N 
HETATM    8  C18   D T   1       3.393  -7.371   0.236  1.00 23.69     0.134 C 
HETATM    9  C19   D T   1       5.413  -5.885   0.546  1.00 23.69     0.261 A 
HETATM   10  O1    D T   1       5.388  -5.568  -0.649  1.00 23.69    -0.267 OA
HETATM   11  C20   D T   1       6.415  -5.366   1.392  1.00 23.69     0.061 A 
HETATM   12  C21   D T   1       6.534  -5.690   2.787  1.00 23.69     0.006 A 
ENDROOT
BRANCH   1  13
HETATM   13  C5    D T   1       4.775  -8.245   6.815  1.00 23.69     0.338 C 
HETATM   14  N3    D T   1       3.430  -8.150   7.473  1.00 23.69     0.628 N 
BRANCH  13  15
HETATM   15  C4    D T   1       5.151  -9.756   6.904  1.00 23.69     0.100 A 
HETATM   16  N1    D T   1       5.069 -10.438   8.130  1.00 23.69    -0.308 N 
HETATM   17  C1    D T   1       4.635 -10.012   9.447  1.00 23.69     0.132 C 
HETATM   18  C2    D T   1       5.474 -11.704   7.822  1.00 23.69     0.178 A 
HETATM   19  N2    D T   1       5.810 -11.894   6.575  1.00 23.69    -0.223 NA
HETATM   20  C3    D T   1       5.623 -10.676   5.986  1.00 23.69     0.116 A 
ENDBRANCH  13  15
BRANCH  13  21
HETATM   21  C6    D T   1       5.868  -7.342   7.560  1.00 23.69     0.003 A 
HETATM   22  C7    D T   1       7.296  -7.665   7.532  1.00 23.69     0.051 A 
HETATM   23  C8    D T   1       8.254  -6.847   8.226  1.00 23.69    -0.010 A 
HETATM   24  C9    D T   1       7.829  -5.669   8.897  1.00 23.69     0.054 A 
HETATM   25 CL1    D T   1       8.975  -4.695   9.683  1.00 23.69    -0.083 Cl
HETATM   26  C10   D T   1       6.432  -5.332   8.943  1.00 23.69     0.011 A 
HETATM   27  C11   D T   1       5.489  -6.136   8.274  1.00 23.69    -0.005 A 
ENDBRANCH  13  21
ENDBRANCH   1  13
BRANCH  12  28
HETATM   28  C22   D T   1       7.656  -5.046   3.521  1.00 23.69     0.001 A 
HETATM   29  C23   D T   1       8.879  -4.771   2.865  1.00 23.69     0.011 A 
HETATM   30  C24   D T   1       9.970  -4.127   3.562  1.00 23.69     0.058 A 
HETATM   31 CL2    D T   1      11.422  -3.784   2.769  1.00 23.69    -0.082 Cl
HETATM   32  C25   D T   1       9.832  -3.801   4.968  1.00 23.69     0.011 A 
HETATM   33  C26   D T   1       8.582  -4.095   5.633  1.00 23.69     0.001 A 
HETATM   34  C27   D T   1       7.504  -4.725   4.906  1.00 23.69     0.000 A 
ENDBRANCH  12  28
TORSDOF 4
ENDMDL
MODEL 7
REMARK VINA RESULT:    -7.489      2.725      4.847
REMARK INTER + INTRA:          -9.886
REMARK INTER:                  -9.737
REMARK INTRA:                  -0.149
REMARK UNBOUND:                -0.646
REMARK  4 active torsions:
REMARK  status: ('A' for Active; 'I' for Inactive)
REMARK    1  A    between atoms: C4_6  and  C5_7 
REMARK    2  A    between atoms: C5_7  and  C6_8 
REMARK    3  A    between atoms: C5_7  and  C12_16 
REMARK    4  A    between atoms: C21_27  and  C22_28 
ROOT
HETATM    1  C12   D T   1       7.234  -5.053   3.984  1.00 23.69     0.021 A 
HETATM    2  C13   D T   1       7.638  -5.029   5.324  1.00 23.69    -0.000 A 
HETATM    3  C14   D T   1       6.929  -5.592   6.388  1.00 23.69     0.016 A 
HETATM    4  C15   D T   1       6.003  -5.744   3.678  1.00 23.69    -0.000 A 
HETATM    5  C16   D T   1       5.183  -6.336   4.688  1.00 23.69     0.017 A 
HETATM    6  C17   D T   1       5.593  -6.349   6.038  1.00 23.69     0.062 A 
HETATM    7  N4    D T   1       4.832  -6.898   7.087  1.00 23.69    -0.294 N 
HETATM    8  C18   D T   1       3.559  -7.587   6.761  1.00 23.69     0.134 C 
HETATM    9  C19   D T   1       5.287  -6.861   8.456  1.00 23.69     0.261 A 
HETATM   10  O1    D T   1       4.626  -7.363   9.374  1.00 23.69    -0.267 OA
HETATM   11  C20   D T   1       6.500  -6.201   8.741  1.00 23.69     0.061 A 
HETATM   12  C21   D T   1       7.325  -5.574   7.745  1.00 23.69     0.006 A 
ENDROOT
BRANCH   1  13
HETATM   13  C5    D T   1       8.094  -4.397   2.859  1.00 23.69     0.338 C 
HETATM   14  N3    D T   1       8.377  -2.954   3.155  1.00 23.69     0.628 N 
BRANCH  13  15
HETATM   15  C4    D T   1       9.493  -5.084   2.872  1.00 23.69     0.100 A 
HETATM   16  N1    D T   1       9.598  -6.485   2.883  1.00 23.69    -0.308 N 
HETATM   17  C1    D T   1       8.592  -7.530   2.846  1.00 23.69     0.132 C 
HETATM   18  C2    D T   1      10.944  -6.709   2.901  1.00 23.69     0.178 A 
HETATM   19  N2    D T   1      11.687  -5.635   2.916  1.00 23.69    -0.223 NA
HETATM   20  C3    D T   1      10.790  -4.605   2.910  1.00 23.69     0.116 A 
ENDBRANCH  13  15
BRANCH  13  21
HETATM   21  C6    D T   1       7.381  -4.585   1.437  1.00 23.69     0.003 A 
HETATM   22  C7    D T   1       8.094  -5.109   0.270  1.00 23.69     0.051 A 
HETATM   23  C8    D T   1       7.434  -5.250  -0.999  1.00 23.69    -0.010 A 
HETATM   24  C9    D T   1       6.052  -4.941  -1.120  1.00 23.69     0.054 A 
HETATM   25 CL1    D T   1       5.278  -5.144  -2.617  1.00 23.69    -0.083 Cl
HETATM   26  C10   D T   1       5.330  -4.421   0.009  1.00 23.69     0.011 A 
HETATM   27  C11   D T   1       5.975  -4.272   1.252  1.00 23.69    -0.005 A 
ENDBRANCH  13  21
ENDBRANCH   1  13
BRANCH  12  28
HETATM   28  C22   D T   1       8.570  -4.925   8.234  1.00 23.69     0.001 A 
HETATM   29  C23   D T   1       8.556  -3.578   8.666  1.00 23.69     0.011 A 
HETATM   30  C24   D T   1       9.756  -2.942   9.163  1.00 23.69     0.058 A 
HETATM   31 CL2    D T   1       9.729  -1.338   9.696  1.00 23.69    -0.082 Cl
HETATM   32  C25   D T   1      11.007  -3.674   9.172  1.00 23.69     0.011 A 
HETATM   33  C26   D T   1      11.014  -5.048   8.719  1.00 23.69     0.001 A 
HETATM   34  C27   D T   1       9.796  -5.661   8.243  1.00 23.69     0.000 A 
ENDBRANCH  12  28
TORSDOF 4
ENDMDL
MODEL 8
REMARK VINA RESULT:    -7.341      2.776      6.585
REMARK INTER + INTRA:          -9.704
REMARK INTER:                  -8.586
REMARK INTRA:                  -1.117
REMARK UNBOUND:                -0.646
REMARK  4 active torsions:
REMARK  status: ('A' for Active; 'I' for Inactive)
REMARK    1  A    between atoms: C4_6  and  C5_7 
REMARK    2  A    between atoms: C5_7  and  C6_8 
REMARK    3  A    between atoms: C5_7  and  C12_16 
REMARK    4  A    between atoms: C21_27  and  C22_28 
ROOT
HETATM    1  C12   D T   1       9.630  -7.613   4.482  1.00 23.69     0.021 A 
HETATM    2  C13   D T   1       9.234  -6.725   3.476  1.00 23.69    -0.000 A 
HETATM    3  C14   D T   1      10.103  -6.018   2.639  1.00 23.69     0.016 A 
HETATM    4  C15   D T   1      11.046  -7.841   4.642  1.00 23.69    -0.000 A 
HETATM    5  C16   D T   1      12.028  -7.157   3.860  1.00 23.69     0.017 A 
HETATM    6  C17   D T   1      11.644  -6.284   2.820  1.00 23.69     0.062 A 
HETATM    7  N4    D T   1      12.552  -5.564   2.021  1.00 23.69    -0.294 N 
HETATM    8  C18   D T   1      14.007  -5.793   2.210  1.00 23.69     0.134 C 
HETATM    9  C19   D T   1      12.106  -4.663   0.986  1.00 23.69     0.261 A 
HETATM   10  O1    D T   1      12.906  -4.048   0.271  1.00 23.69    -0.267 OA
HETATM   11  C20   D T   1      10.720  -4.463   0.825  1.00 23.69     0.061 A 
HETATM   12  C21   D T   1       9.717  -5.118   1.620  1.00 23.69     0.006 A 
ENDROOT
BRANCH   1  13
HETATM   13  C5    D T   1       8.585  -8.360   5.369  1.00 23.69     0.338 C 
HETATM   14  N3    D T   1       9.211  -9.506   6.107  1.00 23.69     0.628 N 
BRANCH  13  15
HETATM   15  C4    D T   1       8.125  -7.376   6.488  1.00 23.69     0.100 A 
HETATM   16  N1    D T   1       7.156  -7.768   7.426  1.00 23.69    -0.308 N 
HETATM   17  C1    D T   1       6.451  -9.021   7.621  1.00 23.69     0.132 C 
HETATM   18  C2    D T   1       7.010  -6.668   8.220  1.00 23.69     0.178 A 
HETATM   19  N2    D T   1       7.747  -5.642   7.891  1.00 23.69    -0.223 NA
HETATM   20  C3    D T   1       8.446  -6.066   6.797  1.00 23.69     0.116 A 
ENDBRANCH  13  15
BRANCH  13  21
HETATM   21  C6    D T   1       7.340  -8.832   4.480  1.00 23.69     0.003 A 
HETATM   22  C7    D T   1       7.120 -10.236   4.127  1.00 23.69     0.051 A 
HETATM   23  C8    D T   1       6.004 -10.629   3.311  1.00 23.69    -0.010 A 
HETATM   24  C9    D T   1       5.056  -9.658   2.888  1.00 23.69     0.054 A 
HETATM   25 CL1    D T   1       3.725 -10.143   1.953  1.00 23.69    -0.083 Cl
HETATM   26  C10   D T   1       5.250  -8.273   3.217  1.00 23.69     0.011 A 
HETATM   27  C11   D T   1       6.348  -7.882   4.008  1.00 23.69    -0.005 A 
ENDBRANCH  13  21
ENDBRANCH   1  13
BRANCH  12  28
HETATM   28  C22   D T   1       8.303  -4.781   1.307  1.00 23.69     0.001 A 
HETATM   29  C23   D T   1       7.736  -5.148   0.063  1.00 23.69     0.011 A 
HETATM   30  C24   D T   1       6.356  -4.845  -0.245  1.00 23.69     0.058 A 
HETATM   31 CL2    D T   1       5.679  -5.302  -1.725  1.00 23.69    -0.082 Cl
HETATM   32  C25   D T   1       5.550  -4.110   0.710  1.00 23.69     0.011 A 
HETATM   33  C26   D T   1       6.141  -3.731   1.975  1.00 23.69     0.001 A 
HETATM   34  C27   D T   1       7.518  -4.061   2.261  1.00 23.69     0.000 A 
ENDBRANCH  12  28
TORSDOF 4
ENDMDL
MODEL 9
REMARK VINA RESULT:    -6.947      3.275      5.753
REMARK INTER + INTRA:          -9.218
REMARK INTER:                  -8.199
REMARK INTRA:                  -1.019
REMARK UNBOUND:                -0.646
REMARK  4 active torsions:
REMARK  status: ('A' for Active; 'I' for Inactive)
REMARK    1  A    between atoms: C4_6  and  C5_7 
REMARK    2  A    between atoms: C5_7  and  C6_8 
REMARK    3  A    between atoms: C5_7  and  C12_16 
REMARK    4  A    between atoms: C21_27  and  C22_28 
ROOT
HETATM    1  C12   D T   1       9.438  -6.106   4.625  1.00 23.69     0.021 A 
HETATM    2  C13   D T   1       8.386  -6.941   4.232  1.00 23.69    -0.000 A 
HETATM    3  C14   D T   1       8.519  -8.283   3.866  1.00 23.69     0.016 A 
HETATM    4  C15   D T   1      10.757  -6.690   4.687  1.00 23.69    -0.000 A 
HETATM    5  C16   D T   1      11.016  -8.044   4.312  1.00 23.69     0.017 A 
HETATM    6  C17   D T   1       9.962  -8.908   3.947  1.00 23.69     0.062 A 
HETATM    7  N4    D T   1      10.142 -10.247   3.551  1.00 23.69    -0.294 N 
HETATM    8  C18   D T   1      11.506 -10.829   3.600  1.00 23.69     0.134 C 
HETATM    9  C19   D T   1       9.031 -11.080   3.161  1.00 23.69     0.261 A 
HETATM   10  O1    D T   1       9.188 -12.263   2.834  1.00 23.69    -0.267 OA
HETATM   11  C20   D T   1       7.743 -10.505   3.123  1.00 23.69     0.061 A 
HETATM   12  C21   D T   1       7.466  -9.138   3.467  1.00 23.69     0.006 A 
ENDROOT
BRANCH   1  13
HETATM   13  C5    D T   1       9.194  -4.615   5.019  1.00 23.69     0.338 C 
HETATM   14  N3    D T   1      10.362  -3.750   4.645  1.00 23.69     0.628 N 
BRANCH  13  15
HETATM   15  C4    D T   1       8.016  -4.082   4.148  1.00 23.69     0.100 A 
HETATM   16  N1    D T   1       8.161  -3.951   2.757  1.00 23.69    -0.308 N 
HETATM   17  C1    D T   1       9.261  -4.268   1.866  1.00 23.69     0.132 C 
HETATM   18  C2    D T   1       6.954  -3.460   2.351  1.00 23.69     0.178 A 
HETATM   19  N2    D T   1       6.087  -3.256   3.304  1.00 23.69    -0.223 NA
HETATM   20  C3    D T   1       6.742  -3.631   4.443  1.00 23.69     0.116 A 
ENDBRANCH  13  15
BRANCH  13  21
HETATM   21  C6    D T   1       8.845  -4.505   6.578  1.00 23.69     0.003 A 
HETATM   22  C7    D T   1       7.900  -5.412   7.232  1.00 23.69     0.051 A 
HETATM   23  C8    D T   1       7.590  -5.278   8.629  1.00 23.69    -0.010 A 
HETATM   24  C9    D T   1       8.254  -4.296   9.413  1.00 23.69     0.054 A 
HETATM   25 CL1    D T   1       7.904  -4.172  11.069  1.00 23.69    -0.083 Cl
HETATM   26  C10   D T   1       9.184  -3.390   8.795  1.00 23.69     0.011 A 
HETATM   27  C11   D T   1       9.482  -3.511   7.424  1.00 23.69    -0.005 A 
ENDBRANCH  13  21
ENDBRANCH   1  13
BRANCH  12  28
HETATM   28  C22   D T   1       6.046  -8.707   3.366  1.00 23.69     0.001 A 
HETATM   29  C23   D T   1       5.501  -8.315   2.120  1.00 23.69     0.011 A 
HETATM   30  C24   D T   1       4.116  -7.914   2.007  1.00 23.69     0.058 A 
HETATM   31 CL2    D T   1       3.465  -7.465   0.513  1.00 23.69    -0.082 Cl
HETATM   32  C25   D T   1       3.282  -7.863   3.191  1.00 23.69     0.011 A 
HETATM   33  C26   D T   1       3.850  -8.256   4.462  1.00 23.69     0.001 A 
HETATM   34  C27   D T   1       5.233  -8.667   4.542  1.00 23.69     0.000 A 
ENDBRANCH  12  28
TORSDOF 4
ENDMDL
