MODEL 1
REMARK VINA RESULT:    -9.428      0.000      0.000
REMARK INTER + INTRA:         -12.784
REMARK INTER:                 -11.633
REMARK INTRA:                  -1.151
REMARK UNBOUND:                -1.151
REMARK  4 active torsions:
REMARK  status: ('A' for Active; 'I' for Inactive)
REMARK    1  A    between atoms: C4_6  and  C5_7 
REMARK    2  A    between atoms: C5_7  and  C6_8 
REMARK    3  A    between atoms: C5_7  and  C12_16 
REMARK    4  A    between atoms: C21_27  and  C22_28 
ROOT
HETATM    1  C12   D T   1       8.473  -6.470   2.639  1.00 23.69     0.021 A 
HETATM    2  C13   D T   1       7.330  -7.258   2.461  1.00 23.69    -0.000 A 
HETATM    3  C14   D T   1       6.548  -7.786   3.492  1.00 23.69     0.016 A 
HETATM    4  C15   D T   1       8.850  -6.151   3.996  1.00 23.69    -0.000 A 
HETATM    5  C16   D T   1       8.140  -6.654   5.130  1.00 23.69     0.017 A 
HETATM    6  C17   D T   1       6.967  -7.422   4.965  1.00 23.69     0.062 A 
HETATM    7  N4    D T   1       6.227  -7.964   6.033  1.00 23.69    -0.294 N 
HETATM    8  C18   D T   1       6.637  -7.645   7.423  1.00 23.69     0.134 C 
HETATM    9  C19   D T   1       5.048  -8.765   5.810  1.00 23.69     0.261 A 
HETATM   10  O1    D T   1       4.385  -9.223   6.749  1.00 23.69    -0.267 OA
HETATM   11  C20   D T   1       4.676  -9.055   4.480  1.00 23.69     0.061 A 
HETATM   12  C21   D T   1       5.393  -8.584   3.326  1.00 23.69     0.006 A 
ENDROOT
BRANCH   1  13
HETATM   13  C5    D T   1       9.286  -5.923   1.424  1.00 23.69     0.338 C 
HETATM   14  N3    D T   1      10.164  -4.774   1.823  1.00 23.69     0.628 N 
BRANCH  13  15
HETATM   15  C4    D T   1      10.277  -7.040   0.975  1.00 23.69     0.100 A 
HETATM   16  N1    D T   1      11.367  -6.733   0.144  1.00 23.69    -0.308 N 
HETATM   17  C1    D T   1      11.834  -5.477  -0.412  1.00 23.69     0.132 C 
HETATM   18  C2    D T   1      11.987  -7.935  -0.035  1.00 23.69     0.178 A 
HETATM   19  N2    D T   1      11.419  -8.947   0.562  1.00 23.69    -0.223 NA
HETATM   20  C3    D T   1      10.337  -8.405   1.193  1.00 23.69     0.116 A 
ENDBRANCH  13  15
BRANCH  13  21
HETATM   21  C6    D T   1       8.295  -5.528   0.228  1.00 23.69     0.003 A 
HETATM   22  C7    D T   1       8.259  -6.272  -1.033  1.00 23.69     0.051 A 
HETATM   23  C8    D T   1       7.374  -5.886  -2.097  1.00 23.69    -0.010 A 
HETATM   24  C9    D T   1       6.470  -4.806  -1.910  1.00 23.69     0.054 A 
HETATM   25 CL1    D T   1       5.405  -4.381  -3.164  1.00 23.69    -0.083 Cl
HETATM   26  C10   D T   1       6.486  -4.057  -0.683  1.00 23.69     0.011 A 
HETATM   27  C11   D T   1       7.359  -4.427   0.357  1.00 23.69    -0.005 A 
ENDBRANCH  13  21
ENDBRANCH   1  13
BRANCH  12  28
HETATM   28  C22   D T   1       4.854  -8.992   2.002  1.00 23.69     0.001 A 
HETATM   29  C23   D T   1       4.452  -8.017   1.059  1.00 23.69     0.011 A 
HETATM   30  C24   D T   1       3.946  -8.403  -0.239  1.00 23.69     0.058 A 
HETATM   31 CL2    D T   1       3.486  -7.233  -1.370  1.00 23.69    -0.082 Cl
HETATM   32  C25   D T   1       3.796  -9.806  -0.567  1.00 23.69     0.011 A 
HETATM   33  C26   D T   1       4.201 -10.797   0.408  1.00 23.69     0.001 A 
HETATM   34  C27   D T   1       4.718 -10.381   1.692  1.00 23.69     0.000 A 
ENDBRANCH  12  28
TORSDOF 4
ENDMDL
MODEL 2
REMARK VINA RESULT:    -8.917      3.660      7.070
REMARK INTER + INTRA:         -12.153
REMARK INTER:                 -11.695
REMARK INTRA:                  -0.457
REMARK UNBOUND:                -1.151
REMARK  4 active torsions:
REMARK  status: ('A' for Active; 'I' for Inactive)
REMARK    1  A    between atoms: C4_6  and  C5_7 
REMARK    2  A    between atoms: C5_7  and  C6_8 
REMARK    3  A    between atoms: C5_7  and  C12_16 
REMARK    4  A    between atoms: C21_27  and  C22_28 
ROOT
HETATM    1  C12   D T   1       5.876  -8.064   2.264  1.00 23.69     0.021 A 
HETATM    2  C13   D T   1       6.747  -7.316   1.464  1.00 23.69    -0.000 A 
HETATM    3  C14   D T   1       6.460  -6.854   0.177  1.00 23.69     0.016 A 
HETATM    4  C15   D T   1       4.567  -8.351   1.726  1.00 23.69    -0.000 A 
HETATM    5  C16   D T   1       4.171  -7.950   0.412  1.00 23.69     0.017 A 
HETATM    6  C17   D T   1       5.026  -7.167  -0.392  1.00 23.69     0.062 A 
HETATM    7  N4    D T   1       4.712  -6.751  -1.700  1.00 23.69    -0.294 N 
HETATM    8  C18   D T   1       3.370  -7.069  -2.249  1.00 23.69     0.134 C 
HETATM    9  C19   D T   1       5.632  -5.972  -2.491  1.00 23.69     0.261 A 
HETATM   10  O1    D T   1       5.346  -5.588  -3.632  1.00 23.69    -0.267 OA
HETATM   11  C20   D T   1       6.902  -5.681  -1.949  1.00 23.69     0.061 A 
HETATM   12  C21   D T   1       7.331  -6.098  -0.642  1.00 23.69     0.006 A 
ENDROOT
BRANCH   1  13
HETATM   13  C5    D T   1       6.283  -8.538   3.695  1.00 23.69     0.338 C 
HETATM   14  N3    D T   1       5.080  -8.837   4.538  1.00 23.69     0.628 N 
BRANCH  13  15
HETATM   15  C4    D T   1       7.015  -9.907   3.550  1.00 23.69     0.100 A 
HETATM   16  N1    D T   1       6.280 -11.101   3.465  1.00 23.69    -0.308 N 
HETATM   17  C1    D T   1       4.853 -11.358   3.447  1.00 23.69     0.132 C 
HETATM   18  C2    D T   1       7.240 -12.065   3.357  1.00 23.69     0.178 A 
HETATM   19  N2    D T   1       8.470 -11.630   3.378  1.00 23.69    -0.223 NA
HETATM   20  C3    D T   1       8.348 -10.277   3.509  1.00 23.69     0.116 A 
ENDBRANCH  13  15
BRANCH  13  21
HETATM   21  C6    D T   1       7.239  -7.453   4.385  1.00 23.69     0.003 A 
HETATM   22  C7    D T   1       7.300  -7.278   5.838  1.00 23.69     0.051 A 
HETATM   23  C8    D T   1       8.152  -6.284   6.430  1.00 23.69    -0.010 A 
HETATM   24  C9    D T   1       9.002  -5.497   5.607  1.00 23.69     0.054 A 
HETATM   25 CL1    D T   1      10.030  -4.350   6.323  1.00 23.69    -0.083 Cl
HETATM   26  C10   D T   1       8.961  -5.647   4.178  1.00 23.69     0.011 A 
HETATM   27  C11   D T   1       8.119  -6.612   3.594  1.00 23.69    -0.005 A 
ENDBRANCH  13  21
ENDBRANCH   1  13
BRANCH  12  28
HETATM   28  C22   D T   1       8.705  -5.700  -0.239  1.00 23.69     0.001 A 
HETATM   29  C23   D T   1       9.824  -6.463  -0.649  1.00 23.69     0.011 A 
HETATM   30  C24   D T   1      11.166  -6.073  -0.280  1.00 23.69     0.058 A 
HETATM   31 CL2    D T   1      12.500  -6.978  -0.789  1.00 23.69    -0.082 Cl
HETATM   32  C25   D T   1      11.373  -4.914   0.564  1.00 23.69     0.011 A 
HETATM   33  C26   D T   1      10.223  -4.144   0.987  1.00 23.69     0.001 A 
HETATM   34  C27   D T   1       8.893  -4.550   0.590  1.00 23.69     0.000 A 
ENDBRANCH  12  28
TORSDOF 4
ENDMDL
MODEL 3
REMARK VINA RESULT:    -8.891      2.776      5.125
REMARK INTER + INTRA:         -12.120
REMARK INTER:                 -11.133
REMARK INTRA:                  -0.988
REMARK UNBOUND:                -1.151
REMARK  4 active torsions:
REMARK  status: ('A' for Active; 'I' for Inactive)
REMARK    1  A    between atoms: C4_6  and  C5_7 
REMARK    2  A    between atoms: C5_7  and  C6_8 
REMARK    3  A    between atoms: C5_7  and  C12_16 
REMARK    4  A    between atoms: C21_27  and  C22_28 
ROOT
HETATM    1  C12   D T   1       8.230  -6.577   2.904  1.00 23.69     0.021 A 
HETATM    2  C13   D T   1       8.568  -6.395   4.251  1.00 23.69    -0.000 A 
HETATM    3  C14   D T   1       7.831  -6.875   5.337  1.00 23.69     0.016 A 
HETATM    4  C15   D T   1       7.046  -7.351   2.620  1.00 23.69    -0.000 A 
HETATM    5  C16   D T   1       6.201  -7.872   3.649  1.00 23.69     0.017 A 
HETATM    6  C17   D T   1       6.546  -7.724   5.010  1.00 23.69     0.062 A 
HETATM    7  N4    D T   1       5.756  -8.194   6.077  1.00 23.69    -0.294 N 
HETATM    8  C18   D T   1       4.530  -8.972   5.770  1.00 23.69     0.134 C 
HETATM    9  C19   D T   1       6.142  -7.995   7.452  1.00 23.69     0.261 A 
HETATM   10  O1    D T   1       5.458  -8.427   8.388  1.00 23.69    -0.267 OA
HETATM   11  C20   D T   1       7.312  -7.254   7.720  1.00 23.69     0.061 A 
HETATM   12  C21   D T   1       8.159  -6.697   6.700  1.00 23.69     0.006 A 
ENDROOT
BRANCH   1  13
HETATM   13  C5    D T   1       9.117  -6.004   1.755  1.00 23.69     0.338 C 
HETATM   14  N3    D T   1       9.982  -4.878   2.238  1.00 23.69     0.628 N 
BRANCH  13  15
HETATM   15  C4    D T   1      10.121  -7.119   1.330  1.00 23.69     0.100 A 
HETATM   16  N1    D T   1      11.239  -6.806   0.539  1.00 23.69    -0.308 N 
HETATM   17  C1    D T   1      11.727  -5.546   0.012  1.00 23.69     0.132 C 
HETATM   18  C2    D T   1      11.863  -8.007   0.370  1.00 23.69     0.178 A 
HETATM   19  N2    D T   1      11.273  -9.024   0.937  1.00 23.69    -0.223 NA
HETATM   20  C3    D T   1      10.171  -8.486   1.536  1.00 23.69     0.116 A 
ENDBRANCH  13  15
BRANCH  13  21
HETATM   21  C6    D T   1       8.200  -5.563   0.517  1.00 23.69     0.003 A 
HETATM   22  C7    D T   1       8.162  -6.322  -0.735  1.00 23.69     0.051 A 
HETATM   23  C8    D T   1       7.345  -5.894  -1.837  1.00 23.69    -0.010 A 
HETATM   24  C9    D T   1       6.509  -4.753  -1.698  1.00 23.69     0.054 A 
HETATM   25 CL1    D T   1       5.522  -4.278  -2.998  1.00 23.69    -0.083 Cl
HETATM   26  C10   D T   1       6.529  -3.989  -0.482  1.00 23.69     0.011 A 
HETATM   27  C11   D T   1       7.336  -4.400   0.596  1.00 23.69    -0.005 A 
ENDBRANCH  13  21
ENDBRANCH   1  13
BRANCH  12  28
HETATM   28  C22   D T   1       9.351  -5.944   7.171  1.00 23.69     0.001 A 
HETATM   29  C23   D T   1       9.296  -4.539   7.333  1.00 23.69     0.011 A 
HETATM   30  C24   D T   1      10.443  -3.799   7.809  1.00 23.69     0.058 A 
HETATM   31 CL2    D T   1      10.365  -2.124   8.018  1.00 23.69    -0.082 Cl
HETATM   32  C25   D T   1      11.686  -4.493   8.079  1.00 23.69     0.011 A 
HETATM   33  C26   D T   1      11.737  -5.928   7.903  1.00 23.69     0.001 A 
HETATM   34  C27   D T   1      10.570  -6.643   7.439  1.00 23.69     0.000 A 
ENDBRANCH  12  28
TORSDOF 4
ENDMDL
MODEL 4
REMARK VINA RESULT:    -8.221      4.255      7.741
REMARK INTER + INTRA:         -11.294
REMARK INTER:                 -10.796
REMARK INTRA:                  -0.499
REMARK UNBOUND:                -1.151
REMARK  4 active torsions:
REMARK  status: ('A' for Active; 'I' for Inactive)
REMARK    1  A    between atoms: C4_6  and  C5_7 
REMARK    2  A    between atoms: C5_7  and  C6_8 
REMARK    3  A    between atoms: C5_7  and  C12_16 
REMARK    4  A    between atoms: C21_27  and  C22_28 
ROOT
HETATM    1  C12   D T   1      10.595  -6.350   4.010  1.00 23.69     0.021 A 
HETATM    2  C13   D T   1      10.117  -5.913   2.769  1.00 23.69    -0.000 A 
HETATM    3  C14   D T   1      10.865  -5.870   1.589  1.00 23.69     0.016 A 
HETATM    4  C15   D T   1      11.957  -6.826   4.063  1.00 23.69    -0.000 A 
HETATM    5  C16   D T   1      12.823  -6.808   2.925  1.00 23.69     0.017 A 
HETATM    6  C17   D T   1      12.345  -6.401   1.661  1.00 23.69     0.062 A 
HETATM    7  N4    D T   1      13.142  -6.340   0.501  1.00 23.69    -0.294 N 
HETATM    8  C18   D T   1      14.547  -6.814   0.573  1.00 23.69     0.134 C 
HETATM    9  C19   D T   1      12.611  -5.891  -0.762  1.00 23.69     0.261 A 
HETATM   10  O1    D T   1      13.306  -5.859  -1.786  1.00 23.69    -0.267 OA
HETATM   11  C20   D T   1      11.273  -5.447  -0.808  1.00 23.69     0.061 A 
HETATM   12  C21   D T   1      10.395  -5.430   0.330  1.00 23.69     0.006 A 
ENDROOT
BRANCH   1  13
HETATM   13  C5    D T   1       9.685  -6.363   5.278  1.00 23.69     0.338 C 
HETATM   14  N3    D T   1       8.314  -5.839   4.975  1.00 23.69     0.628 N 
BRANCH  13  15
HETATM   15  C4    D T   1       9.459  -7.851   5.684  1.00 23.69     0.100 A 
HETATM   16  N1    D T   1       8.533  -8.183   6.687  1.00 23.69    -0.308 N 
HETATM   17  C1    D T   1       7.632  -7.366   7.478  1.00 23.69     0.132 C 
HETATM   18  C2    D T   1       8.615  -9.543   6.767  1.00 23.69     0.178 A 
HETATM   19  N2    D T   1       9.476 -10.096   5.958  1.00 23.69    -0.223 NA
HETATM   20  C3    D T   1      10.024  -9.048   5.277  1.00 23.69     0.116 A 
ENDBRANCH  13  15
BRANCH  13  21
HETATM   21  C6    D T   1      10.384  -5.550   6.469  1.00 23.69     0.003 A 
HETATM   22  C7    D T   1      10.216  -4.105   6.632  1.00 23.69     0.051 A 
HETATM   23  C8    D T   1      10.870  -3.397   7.698  1.00 23.69    -0.010 A 
HETATM   24  C9    D T   1      11.643  -4.111   8.653  1.00 23.69     0.054 A 
HETATM   25 CL1    D T   1      12.382  -3.266   9.928  1.00 23.69    -0.083 Cl
HETATM   26  C10   D T   1      11.826  -5.530   8.516  1.00 23.69     0.011 A 
HETATM   27  C11   D T   1      11.196  -6.224   7.466  1.00 23.69    -0.005 A 
ENDBRANCH  13  21
ENDBRANCH   1  13
BRANCH  12  28
HETATM   28  C22   D T   1       9.017  -4.925   0.093  1.00 23.69     0.001 A 
HETATM   29  C23   D T   1       8.213  -5.483  -0.929  1.00 23.69     0.011 A 
HETATM   30  C24   D T   1       6.865  -5.014  -1.154  1.00 23.69     0.058 A 
HETATM   31 CL2    D T   1       5.902  -5.697  -2.364  1.00 23.69    -0.082 Cl
HETATM   32  C25   D T   1       6.339  -3.922  -0.360  1.00 23.69     0.011 A 
HETATM   33  C26   D T   1       7.171  -3.351   0.678  1.00 23.69     0.001 A 
HETATM   34  C27   D T   1       8.510  -3.851   0.890  1.00 23.69     0.000 A 
ENDBRANCH  12  28
TORSDOF 4
ENDMDL
MODEL 5
REMARK VINA RESULT:    -7.941      3.353      6.352
REMARK INTER + INTRA:         -10.949
REMARK INTER:                 -10.148
REMARK INTRA:                  -0.801
REMARK UNBOUND:                -1.151
REMARK  4 active torsions:
REMARK  status: ('A' for Active; 'I' for Inactive)
REMARK    1  A    between atoms: C4_6  and  C5_7 
REMARK    2  A    between atoms: C5_7  and  C6_8 
REMARK    3  A    between atoms: C5_7  and  C12_16 
REMARK    4  A    between atoms: C21_27  and  C22_28 
ROOT
HETATM    1  C12   D T   1       5.611  -9.377   4.255  1.00 23.69     0.021 A 
HETATM    2  C13   D T   1       6.370  -8.489   5.027  1.00 23.69    -0.000 A 
HETATM    3  C14   D T   1       6.355  -8.424   6.423  1.00 23.69     0.016 A 
HETATM    4  C15   D T   1       4.776 -10.319   4.961  1.00 23.69    -0.000 A 
HETATM    5  C16   D T   1       4.663 -10.329   6.386  1.00 23.69     0.017 A 
HETATM    6  C17   D T   1       5.447  -9.463   7.179  1.00 23.69     0.062 A 
HETATM    7  N4    D T   1       5.377  -9.405   8.584  1.00 23.69    -0.294 N 
HETATM    8  C18   D T   1       4.499 -10.366   9.297  1.00 23.69     0.134 C 
HETATM    9  C19   D T   1       6.181  -8.483   9.347  1.00 23.69     0.261 A 
HETATM   10  O1    D T   1       6.136  -8.447  10.583  1.00 23.69    -0.267 OA
HETATM   11  C20   D T   1       7.009  -7.579   8.648  1.00 23.69     0.061 A 
HETATM   12  C21   D T   1       7.115  -7.532   7.215  1.00 23.69     0.006 A 
ENDROOT
BRANCH   1  13
HETATM   13  C5    D T   1       5.692  -9.378   2.696  1.00 23.69     0.338 C 
HETATM   14  N3    D T   1       6.058 -10.733   2.166  1.00 23.69     0.628 N 
BRANCH  13  15
HETATM   15  C4    D T   1       4.257  -9.114   2.147  1.00 23.69     0.100 A 
HETATM   16  N1    D T   1       3.982  -9.251   0.776  1.00 23.69    -0.308 N 
HETATM   17  C1    D T   1       4.816  -9.657  -0.340  1.00 23.69     0.132 C 
HETATM   18  C2    D T   1       2.658  -8.939   0.678  1.00 23.69     0.178 A 
HETATM   19  N2    D T   1       2.079  -8.614   1.801  1.00 23.69    -0.223 NA
HETATM   20  C3    D T   1       3.071  -8.708   2.733  1.00 23.69     0.116 A 
ENDBRANCH  13  15
BRANCH  13  21
HETATM   21  C6    D T   1       6.709  -8.247   2.193  1.00 23.69     0.003 A 
HETATM   22  C7    D T   1       8.138  -8.509   2.006  1.00 23.69     0.051 A 
HETATM   23  C8    D T   1       9.032  -7.471   1.573  1.00 23.69    -0.010 A 
HETATM   24  C9    D T   1       8.522  -6.183   1.256  1.00 23.69     0.054 A 
HETATM   25 CL1    D T   1       9.585  -4.975   0.712  1.00 23.69    -0.083 Cl
HETATM   26  C10   D T   1       7.124  -5.898   1.433  1.00 23.69     0.011 A 
HETATM   27  C11   D T   1       6.248  -6.910   1.868  1.00 23.69    -0.005 A 
ENDBRANCH  13  21
ENDBRANCH   1  13
BRANCH  12  28
HETATM   28  C22   D T   1       8.039  -6.511   6.654  1.00 23.69     0.001 A 
HETATM   29  C23   D T   1       8.701  -5.596   7.506  1.00 23.69     0.011 A 
HETATM   30  C24   D T   1       9.616  -4.612   6.973  1.00 23.69     0.058 A 
HETATM   31 CL2    D T   1      10.420  -3.534   7.997  1.00 23.69    -0.082 Cl
HETATM   32  C25   D T   1       9.825  -4.523   5.542  1.00 23.69     0.011 A 
HETATM   33  C26   D T   1       9.137  -5.456   4.677  1.00 23.69     0.001 A 
HETATM   34  C27   D T   1       8.239  -6.439   5.240  1.00 23.69     0.000 A 
ENDBRANCH  12  28
TORSDOF 4
ENDMDL
MODEL 6
REMARK VINA RESULT:    -7.933      2.588      6.190
REMARK INTER + INTRA:         -10.939
REMARK INTER:                  -9.783
REMARK INTRA:                  -1.155
REMARK UNBOUND:                -1.151
REMARK  4 active torsions:
REMARK  status: ('A' for Active; 'I' for Inactive)
REMARK    1  A    between atoms: C4_6  and  C5_7 
REMARK    2  A    between atoms: C5_7  and  C6_8 
REMARK    3  A    between atoms: C5_7  and  C12_16 
REMARK    4  A    between atoms: C21_27  and  C22_28 
ROOT
HETATM    1  C12   D T   1       7.848  -8.701   3.498  1.00 23.69     0.021 A 
HETATM    2  C13   D T   1       8.056  -7.589   2.673  1.00 23.69    -0.000 A 
HETATM    3  C14   D T   1       9.163  -6.738   2.736  1.00 23.69     0.016 A 
HETATM    4  C15   D T   1       8.875  -9.008   4.465  1.00 23.69    -0.000 A 
HETATM    5  C16   D T   1      10.039  -8.195   4.635  1.00 23.69     0.017 A 
HETATM    6  C17   D T   1      10.279  -7.091   3.789  1.00 23.69     0.062 A 
HETATM    7  N4    D T   1      11.392  -6.237   3.908  1.00 23.69    -0.294 N 
HETATM    8  C18   D T   1      12.431  -6.553   4.919  1.00 23.69     0.134 C 
HETATM    9  C19   D T   1      11.577  -5.105   3.033  1.00 23.69     0.261 A 
HETATM   10  O1    D T   1      12.567  -4.368   3.124  1.00 23.69    -0.267 OA
HETATM   11  C20   D T   1      10.577  -4.825   2.078  1.00 23.69     0.061 A 
HETATM   12  C21   D T   1       9.386  -5.612   1.910  1.00 23.69     0.006 A 
ENDROOT
BRANCH   1  13
HETATM   13  C5    D T   1       6.578  -9.597   3.355  1.00 23.69     0.338 C 
HETATM   14  N3    D T   1       6.922 -11.054   3.444  1.00 23.69     0.628 N 
BRANCH  13  15
HETATM   15  C4    D T   1       5.668  -9.330   4.593  1.00 23.69     0.100 A 
HETATM   16  N1    D T   1       4.642 -10.228   4.929  1.00 23.69    -0.308 N 
HETATM   17  C1    D T   1       4.228 -11.487   4.338  1.00 23.69     0.132 C 
HETATM   18  C2    D T   1       4.073  -9.671   6.036  1.00 23.69     0.178 A 
HETATM   19  N2    D T   1       4.599  -8.541   6.422  1.00 23.69    -0.223 NA
HETATM   20  C3    D T   1       5.596  -8.306   5.521  1.00 23.69     0.116 A 
ENDBRANCH  13  15
BRANCH  13  21
HETATM   21  C6    D T   1       5.805  -9.249   1.996  1.00 23.69     0.003 A 
HETATM   22  C7    D T   1       5.868 -10.115   0.817  1.00 23.69     0.051 A 
HETATM   23  C8    D T   1       5.180  -9.770  -0.396  1.00 23.69    -0.010 A 
HETATM   24  C9    D T   1       4.370  -8.603  -0.443  1.00 23.69     0.054 A 
HETATM   25 CL1    D T   1       3.534  -8.224  -1.873  1.00 23.69    -0.083 Cl
HETATM   26  C10   D T   1       4.291  -7.734   0.699  1.00 23.69     0.011 A 
HETATM   27  C11   D T   1       4.973  -8.065   1.885  1.00 23.69    -0.005 A 
ENDBRANCH  13  21
ENDBRANCH   1  13
BRANCH  12  28
HETATM   28  C22   D T   1       8.442  -5.163   0.853  1.00 23.69     0.001 A 
HETATM   29  C23   D T   1       8.589  -5.613  -0.480  1.00 23.69     0.011 A 
HETATM   30  C24   D T   1       7.665  -5.200  -1.512  1.00 23.69     0.058 A 
HETATM   31 CL2    D T   1       7.835  -5.756  -3.099  1.00 23.69    -0.082 Cl
HETATM   32  C25   D T   1       6.600  -4.270  -1.195  1.00 23.69     0.011 A 
HETATM   33  C26   D T   1       6.462  -3.807   0.170  1.00 23.69     0.001 A 
HETATM   34  C27   D T   1       7.392  -4.250   1.183  1.00 23.69     0.000 A 
ENDBRANCH  12  28
TORSDOF 4
ENDMDL
MODEL 7
REMARK VINA RESULT:    -7.929      3.369      6.459
REMARK INTER + INTRA:         -10.934
REMARK INTER:                 -10.358
REMARK INTRA:                  -0.576
REMARK UNBOUND:                -1.151
REMARK  4 active torsions:
REMARK  status: ('A' for Active; 'I' for Inactive)
REMARK    1  A    between atoms: C4_6  and  C5_7 
REMARK    2  A    between atoms: C5_7  and  C6_8 
REMARK    3  A    between atoms: C5_7  and  C12_16 
REMARK    4  A    between atoms: C21_27  and  C22_28 
ROOT
HETATM    1  C12   D T   1       5.973  -8.400   3.742  1.00 23.69     0.021 A 
HETATM    2  C13   D T   1       6.994  -7.500   3.415  1.00 23.69    -0.000 A 
HETATM    3  C14   D T   1       7.756  -6.778   4.338  1.00 23.69     0.016 A 
HETATM    4  C15   D T   1       5.714  -8.623   5.145  1.00 23.69    -0.000 A 
HETATM    5  C16   D T   1       6.414  -7.924   6.177  1.00 23.69     0.017 A 
HETATM    6  C17   D T   1       7.467  -7.039   5.863  1.00 23.69     0.062 A 
HETATM    7  N4    D T   1       8.188  -6.303   6.823  1.00 23.69    -0.294 N 
HETATM    8  C18   D T   1       7.898  -6.527   8.262  1.00 23.69     0.134 C 
HETATM    9  C19   D T   1       9.240  -5.391   6.448  1.00 23.69     0.261 A 
HETATM   10  O1    D T   1       9.889  -4.762   7.294  1.00 23.69    -0.267 OA
HETATM   11  C20   D T   1       9.500  -5.194   5.076  1.00 23.69     0.061 A 
HETATM   12  C21   D T   1       8.788  -5.865   4.021  1.00 23.69     0.006 A 
ENDROOT
BRANCH   1  13
HETATM   13  C5    D T   1       5.173  -9.164   2.641  1.00 23.69     0.338 C 
HETATM   14  N3    D T   1       3.753  -9.402   3.059  1.00 23.69     0.628 N 
BRANCH  13  15
HETATM   15  C4    D T   1       5.067  -8.229   1.398  1.00 23.69     0.100 A 
HETATM   16  N1    D T   1       4.459  -8.682   0.216  1.00 23.69    -0.308 N 
HETATM   17  C1    D T   1       3.817  -9.939  -0.120  1.00 23.69     0.132 C 
HETATM   18  C2    D T   1       4.558  -7.615  -0.629  1.00 23.69     0.178 A 
HETATM   19  N2    D T   1       5.159  -6.568  -0.134  1.00 23.69    -0.223 NA
HETATM   20  C3    D T   1       5.495  -6.939   1.135  1.00 23.69     0.116 A 
ENDBRANCH  13  15
BRANCH  13  21
HETATM   21  C6    D T   1       5.920 -10.530   2.261  1.00 23.69     0.003 A 
HETATM   22  C7    D T   1       7.168 -10.550   1.495  1.00 23.69     0.051 A 
HETATM   23  C8    D T   1       7.808 -11.791   1.151  1.00 23.69    -0.010 A 
HETATM   24  C9    D T   1       7.264 -13.020   1.613  1.00 23.69     0.054 A 
HETATM   25 CL1    D T   1       8.049 -14.477   1.229  1.00 23.69    -0.083 Cl
HETATM   26  C10   D T   1       6.039 -13.029   2.365  1.00 23.69     0.011 A 
HETATM   27  C11   D T   1       5.405 -11.816   2.694  1.00 23.69    -0.005 A 
ENDBRANCH  13  21
ENDBRANCH   1  13
BRANCH  12  28
HETATM   28  C22   D T   1       9.198  -5.531   2.632  1.00 23.69     0.001 A 
HETATM   29  C23   D T   1      10.397  -6.053   2.091  1.00 23.69     0.011 A 
HETATM   30  C24   D T   1      10.795  -5.751   0.735  1.00 23.69     0.058 A 
HETATM   31 CL2    D T   1      12.219  -6.393   0.088  1.00 23.69    -0.082 Cl
HETATM   32  C25   D T   1       9.985  -4.861  -0.072  1.00 23.69     0.011 A 
HETATM   33  C26   D T   1       8.765  -4.324   0.491  1.00 23.69     0.001 A 
HETATM   34  C27   D T   1       8.385  -4.656   1.846  1.00 23.69     0.000 A 
ENDBRANCH  12  28
TORSDOF 4
ENDMDL
MODEL 8
REMARK VINA RESULT:    -7.735      3.767      7.564
REMARK INTER + INTRA:         -10.695
REMARK INTER:                  -9.593
REMARK INTRA:                  -1.101
REMARK UNBOUND:                -1.151
REMARK  4 active torsions:
REMARK  status: ('A' for Active; 'I' for Inactive)
REMARK    1  A    between atoms: C4_6  and  C5_7 
REMARK    2  A    between atoms: C5_7  and  C6_8 
REMARK    3  A    between atoms: C5_7  and  C12_16 
REMARK    4  A    between atoms: C21_27  and  C22_28 
ROOT
HETATM    1  C12   D T   1       5.033  -8.605   2.773  1.00 23.69     0.021 A 
HETATM    2  C13   D T   1       6.045  -7.790   2.252  1.00 23.69    -0.000 A 
HETATM    3  C14   D T   1       6.024  -7.190   0.990  1.00 23.69     0.016 A 
HETATM    4  C15   D T   1       3.863  -8.810   1.953  1.00 23.69    -0.000 A 
HETATM    5  C16   D T   1       3.740  -8.266   0.637  1.00 23.69     0.017 A 
HETATM    6  C17   D T   1       4.738  -7.416   0.111  1.00 23.69     0.062 A 
HETATM    7  N4    D T   1       4.694  -6.859  -1.181  1.00 23.69    -0.294 N 
HETATM    8  C18   D T   1       3.494  -7.094  -2.022  1.00 23.69     0.134 C 
HETATM    9  C19   D T   1       5.753  -6.017  -1.681  1.00 23.69     0.261 A 
HETATM   10  O1    D T   1       5.703  -5.509  -2.808  1.00 23.69    -0.267 OA
HETATM   11  C20   D T   1       6.884  -5.806  -0.864  1.00 23.69     0.061 A 
HETATM   12  C21   D T   1       7.039  -6.367   0.450  1.00 23.69     0.006 A 
ENDROOT
BRANCH   1  13
HETATM   13  C5    D T   1       5.142  -9.234   4.197  1.00 23.69     0.338 C 
HETATM   14  N3    D T   1       3.937  -8.918   5.031  1.00 23.69     0.628 N 
BRANCH  13  15
HETATM   15  C4    D T   1       5.115 -10.784   4.034  1.00 23.69     0.100 A 
HETATM   16  N1    D T   1       5.017 -11.617   5.161  1.00 23.69    -0.308 N 
HETATM   17  C1    D T   1       4.889 -11.318   6.574  1.00 23.69     0.132 C 
HETATM   18  C2    D T   1       5.029 -12.876   4.635  1.00 23.69     0.178 A 
HETATM   19  N2    D T   1       5.136 -12.935   3.336  1.00 23.69    -0.223 NA
HETATM   20  C3    D T   1       5.202 -11.630   2.942  1.00 23.69     0.116 A 
ENDBRANCH  13  15
BRANCH  13  21
HETATM   21  C6    D T   1       6.499  -8.762   4.908  1.00 23.69     0.003 A 
HETATM   22  C7    D T   1       6.515  -7.749   5.966  1.00 23.69     0.051 A 
HETATM   23  C8    D T   1       7.748  -7.330   6.573  1.00 23.69    -0.010 A 
HETATM   24  C9    D T   1       8.970  -7.947   6.194  1.00 23.69     0.054 A 
HETATM   25 CL1    D T   1      10.417  -7.466   6.945  1.00 23.69    -0.083 Cl
HETATM   26  C10   D T   1       8.984  -8.941   5.156  1.00 23.69     0.011 A 
HETATM   27  C11   D T   1       7.779  -9.346   4.552  1.00 23.69    -0.005 A 
ENDBRANCH  13  21
ENDBRANCH   1  13
BRANCH  12  28
HETATM   28  C22   D T   1       8.301  -6.037   1.164  1.00 23.69     0.001 A 
HETATM   29  C23   D T   1       8.272  -5.594   2.507  1.00 23.69     0.011 A 
HETATM   30  C24   D T   1       9.494  -5.289   3.217  1.00 23.69     0.058 A 
HETATM   31 CL2    D T   1       9.454  -4.779   4.828  1.00 23.69    -0.082 Cl
HETATM   32  C25   D T   1      10.767  -5.388   2.534  1.00 23.69     0.011 A 
HETATM   33  C26   D T   1      10.788  -5.833   1.157  1.00 23.69     0.001 A 
HETATM   34  C27   D T   1       9.551  -6.145   0.478  1.00 23.69     0.000 A 
ENDBRANCH  12  28
TORSDOF 4
ENDMDL
MODEL 9
REMARK VINA RESULT:    -7.608      4.630      7.557
REMARK INTER + INTRA:         -10.538
REMARK INTER:                  -9.446
REMARK INTRA:                  -1.092
REMARK UNBOUND:                -1.151
REMARK  4 active torsions:
REMARK  status: ('A' for Active; 'I' for Inactive)
REMARK    1  A    between atoms: C4_6  and  C5_7 
REMARK    2  A    between atoms: C5_7  and  C6_8 
REMARK    3  A    between atoms: C5_7  and  C12_16 
REMARK    4  A    between atoms: C21_27  and  C22_28 
ROOT
HETATM    1  C12   D T   1      11.906  -6.980  -0.946  1.00 23.69     0.021 A 
HETATM    2  C13   D T   1      11.221  -6.434   0.147  1.00 23.69    -0.000 A 
HETATM    3  C14   D T   1       9.963  -5.830   0.086  1.00 23.69     0.016 A 
HETATM    4  C15   D T   1      11.242  -6.943  -2.227  1.00 23.69    -0.000 A 
HETATM    5  C16   D T   1       9.965  -6.329  -2.414  1.00 23.69     0.017 A 
HETATM    6  C17   D T   1       9.248  -5.805  -1.317  1.00 23.69     0.062 A 
HETATM    7  N4    D T   1       7.995  -5.172  -1.426  1.00 23.69    -0.294 N 
HETATM    8  C18   D T   1       7.332  -5.123  -2.753  1.00 23.69     0.134 C 
HETATM    9  C19   D T   1       7.315  -4.630  -0.276  1.00 23.69     0.261 A 
HETATM   10  O1    D T   1       6.204  -4.093  -0.370  1.00 23.69    -0.267 OA
HETATM   11  C20   D T   1       7.963  -4.688   0.975  1.00 23.69     0.061 A 
HETATM   12  C21   D T   1       9.260  -5.274   1.180  1.00 23.69     0.006 A 
ENDROOT
BRANCH   1  13
HETATM   13  C5    D T   1      13.312  -7.637  -0.782  1.00 23.69     0.338 C 
HETATM   14  N3    D T   1      13.380  -8.967  -1.472  1.00 23.69     0.628 N 
BRANCH  13  15
HETATM   15  C4    D T   1      14.343  -6.746  -1.541  1.00 23.69     0.100 A 
HETATM   16  N1    D T   1      15.663  -7.188  -1.729  1.00 23.69    -0.308 N 
HETATM   17  C1    D T   1      16.329  -8.425  -1.367  1.00 23.69     0.132 C 
HETATM   18  C2    D T   1      16.253  -6.163  -2.410  1.00 23.69     0.178 A 
HETATM   19  N2    D T   1      15.481  -5.141  -2.655  1.00 23.69    -0.223 NA
HETATM   20  C3    D T   1      14.279  -5.486  -2.107  1.00 23.69     0.116 A 
ENDBRANCH  13  15
BRANCH  13  21
HETATM   21  C6    D T   1      13.693  -7.751   0.770  1.00 23.69     0.003 A 
HETATM   22  C7    D T   1      14.317  -6.647   1.503  1.00 23.69     0.051 A 
HETATM   23  C8    D T   1      14.667  -6.781   2.891  1.00 23.69    -0.010 A 
HETATM   24  C9    D T   1      14.347  -7.977   3.589  1.00 23.69     0.054 A 
HETATM   25 CL1    D T   1      14.734  -8.110   5.238  1.00 23.69    -0.083 Cl
HETATM   26  C10   D T   1      13.737  -9.077   2.893  1.00 23.69     0.011 A 
HETATM   27  C11   D T   1      13.404  -8.952   1.531  1.00 23.69    -0.005 A 
ENDBRANCH  13  21
ENDBRANCH   1  13
BRANCH  12  28
HETATM   28  C22   D T   1       9.787  -5.244   2.570  1.00 23.69     0.001 A 
HETATM   29  C23   D T   1       8.937  -5.519   3.667  1.00 23.69     0.011 A 
HETATM   30  C24   D T   1       9.443  -5.511   5.021  1.00 23.69     0.058 A 
HETATM   31 CL2    D T   1       8.427  -5.860   6.326  1.00 23.69    -0.082 Cl
HETATM   32  C25   D T   1      10.828  -5.169   5.270  1.00 23.69     0.011 A 
HETATM   33  C26   D T   1      11.689  -4.880   4.143  1.00 23.69     0.001 A 
HETATM   34  C27   D T   1      11.158  -4.909   2.799  1.00 23.69     0.000 A 
ENDBRANCH  12  28
TORSDOF 4
ENDMDL
