MODEL 1
REMARK VINA RESULT:    -9.355      0.000      0.000
REMARK INTER + INTRA:         -12.660
REMARK INTER:                 -11.542
REMARK INTRA:                  -1.118
REMARK UNBOUND:                -1.118
REMARK  4 active torsions:
REMARK  status: ('A' for Active; 'I' for Inactive)
REMARK    1  A    between atoms: C4_6  and  C5_7 
REMARK    2  A    between atoms: C5_7  and  C6_8 
REMARK    3  A    between atoms: C5_7  and  C12_16 
REMARK    4  A    between atoms: C21_27  and  C22_28 
ROOT
HETATM    1  C12   D T   1       0.052   9.073  -7.097  1.00 23.69     0.021 A 
HETATM    2  C13   D T   1       1.342   8.534  -7.033  1.00 23.69    -0.000 A 
HETATM    3  C14   D T   1       2.452   9.167  -6.468  1.00 23.69     0.016 A 
HETATM    4  C15   D T   1      -0.151  10.374  -6.502  1.00 23.69    -0.000 A 
HETATM    5  C16   D T   1       0.916  11.125  -5.918  1.00 23.69     0.017 A 
HETATM    6  C17   D T   1       2.213  10.581  -5.816  1.00 23.69     0.062 A 
HETATM    7  N4    D T   1       3.314  11.267  -5.270  1.00 23.69    -0.294 N 
HETATM    8  C18   D T   1       3.097  12.612  -4.680  1.00 23.69     0.134 C 
HETATM    9  C19   D T   1       4.629  10.674  -5.213  1.00 23.69     0.261 A 
HETATM   10  O1    D T   1       5.589  11.271  -4.713  1.00 23.69    -0.267 OA
HETATM   11  C20   D T   1       4.811   9.395  -5.779  1.00 23.69     0.061 A 
HETATM   12  C21   D T   1       3.759   8.635  -6.398  1.00 23.69     0.006 A 
ENDROOT
BRANCH   1  13
HETATM   13  C5    D T   1      -1.130   8.290  -7.748  1.00 23.69     0.338 C 
HETATM   14  N3    D T   1      -2.457   8.840  -7.317  1.00 23.69     0.628 N 
BRANCH  13  15
HETATM   15  C4    D T   1      -1.078   8.544  -9.286  1.00 23.69     0.100 A 
HETATM   16  N1    D T   1      -2.202   8.288 -10.088  1.00 23.69    -0.308 N 
HETATM   17  C1    D T   1      -3.537   7.829  -9.761  1.00 23.69     0.132 C 
HETATM   18  C2    D T   1      -1.783   8.614 -11.345  1.00 23.69     0.178 A 
HETATM   19  N2    D T   1      -0.547   9.025 -11.431  1.00 23.69    -0.223 NA
HETATM   20  C3    D T   1      -0.085   8.976 -10.147  1.00 23.69     0.116 A 
ENDBRANCH  13  15
BRANCH  13  21
HETATM   21  C6    D T   1      -1.000   6.726  -7.427  1.00 23.69     0.003 A 
HETATM   22  C7    D T   1      -0.736   5.734  -8.471  1.00 23.69     0.051 A 
HETATM   23  C8    D T   1      -0.642   4.334  -8.157  1.00 23.69    -0.010 A 
HETATM   24  C9    D T   1      -0.743   3.901  -6.807  1.00 23.69     0.054 A 
HETATM   25 CL1    D T   1      -0.597   2.248  -6.447  1.00 23.69    -0.083 Cl
HETATM   26  C10   D T   1      -1.006   4.854  -5.763  1.00 23.69     0.011 A 
HETATM   27  C11   D T   1      -1.108   6.224  -6.068  1.00 23.69    -0.005 A 
ENDBRANCH  13  21
ENDBRANCH   1  13
BRANCH  12  28
HETATM   28  C22   D T   1       4.139   7.304  -6.942  1.00 23.69     0.001 A 
HETATM   29  C23   D T   1       3.536   6.126  -6.444  1.00 23.69     0.011 A 
HETATM   30  C24   D T   1       3.884   4.828  -6.981  1.00 23.69     0.058 A 
HETATM   31 CL2    D T   1       3.145   3.424  -6.395  1.00 23.69    -0.082 Cl
HETATM   32  C25   D T   1       4.900   4.722  -8.008  1.00 23.69     0.011 A 
HETATM   33  C26   D T   1       5.518   5.932  -8.504  1.00 23.69     0.001 A 
HETATM   34  C27   D T   1       5.141   7.216  -7.960  1.00 23.69     0.000 A 
ENDBRANCH  12  28
TORSDOF 4
ENDMDL
MODEL 2
REMARK VINA RESULT:    -8.979      3.655      7.062
REMARK INTER + INTRA:         -12.198
REMARK INTER:                 -11.709
REMARK INTRA:                  -0.489
REMARK UNBOUND:                -1.118
REMARK  4 active torsions:
REMARK  status: ('A' for Active; 'I' for Inactive)
REMARK    1  A    between atoms: C4_6  and  C5_7 
REMARK    2  A    between atoms: C5_7  and  C6_8 
REMARK    3  A    between atoms: C5_7  and  C12_16 
REMARK    4  A    between atoms: C21_27  and  C22_28 
ROOT
HETATM    1  C12   D T   1       2.856   7.976  -6.710  1.00 23.69     0.021 A 
HETATM    2  C13   D T   1       1.590   7.535  -7.113  1.00 23.69    -0.000 A 
HETATM    3  C14   D T   1       1.201   6.197  -7.218  1.00 23.69     0.016 A 
HETATM    4  C15   D T   1       3.823   6.967  -6.344  1.00 23.69    -0.000 A 
HETATM    5  C16   D T   1       3.544   5.568  -6.437  1.00 23.69     0.017 A 
HETATM    6  C17   D T   1       2.263   5.108  -6.808  1.00 23.69     0.062 A 
HETATM    7  N4    D T   1       1.921   3.749  -6.937  1.00 23.69    -0.294 N 
HETATM    8  C18   D T   1       2.930   2.721  -6.578  1.00 23.69     0.134 C 
HETATM    9  C19   D T   1       0.602   3.332  -7.347  1.00 23.69     0.261 A 
HETATM   10  O1    D T   1       0.298   2.137  -7.437  1.00 23.69    -0.267 OA
HETATM   11  C20   D T   1      -0.341   4.326  -7.682  1.00 23.69     0.061 A 
HETATM   12  C21   D T   1      -0.072   5.737  -7.624  1.00 23.69     0.006 A 
ENDROOT
BRANCH   1  13
HETATM   13  C5    D T   1       3.201   9.495  -6.620  1.00 23.69     0.338 C 
HETATM   14  N3    D T   1       4.373   9.739  -5.715  1.00 23.69     0.628 N 
BRANCH  13  15
HETATM   15  C4    D T   1       3.688   9.955  -8.028  1.00 23.69     0.100 A 
HETATM   16  N1    D T   1       5.010   9.716  -8.438  1.00 23.69    -0.308 N 
HETATM   17  C1    D T   1       6.115   9.040  -7.788  1.00 23.69     0.132 C 
HETATM   18  C2    D T   1       5.063  10.254  -9.691  1.00 23.69     0.178 A 
HETATM   19  N2    D T   1       3.956  10.807 -10.106  1.00 23.69    -0.223 NA
HETATM   20  C3    D T   1       3.084  10.637  -9.069  1.00 23.69     0.116 A 
ENDBRANCH  13  15
BRANCH  13  21
HETATM   21  C6    D T   1       1.912  10.329  -6.165  1.00 23.69     0.003 A 
HETATM   22  C7    D T   1       2.017  11.587  -5.421  1.00 23.69     0.051 A 
HETATM   23  C8    D T   1       0.842  12.306  -5.011  1.00 23.69    -0.010 A 
HETATM   24  C9    D T   1      -0.446  11.831  -5.380  1.00 23.69     0.054 A 
HETATM   25 CL1    D T   1      -1.823  12.710  -4.916  1.00 23.69    -0.083 Cl
HETATM   26  C10   D T   1      -0.577  10.599  -6.107  1.00 23.69     0.011 A 
HETATM   27  C11   D T   1       0.570   9.886  -6.502  1.00 23.69    -0.005 A 
ENDBRANCH  13  21
ENDBRANCH   1  13
BRANCH  12  28
HETATM   28  C22   D T   1      -1.189   6.638  -8.017  1.00 23.69     0.001 A 
HETATM   29  C23   D T   1      -1.433   6.926  -9.380  1.00 23.69     0.011 A 
HETATM   30  C24   D T   1      -2.529   7.785  -9.774  1.00 23.69     0.058 A 
HETATM   31 CL2    D T   1      -2.829   8.110 -11.406  1.00 23.69    -0.082 Cl
HETATM   32  C25   D T   1      -3.361   8.402  -8.761  1.00 23.69     0.011 A 
HETATM   33  C26   D T   1      -3.097   8.108  -7.369  1.00 23.69     0.001 A 
HETATM   34  C27   D T   1      -2.005   7.236  -7.005  1.00 23.69     0.000 A 
ENDBRANCH  12  28
TORSDOF 4
ENDMDL
MODEL 3
REMARK VINA RESULT:    -8.824      2.771      5.113
REMARK INTER + INTRA:         -12.006
REMARK INTER:                 -10.991
REMARK INTRA:                  -1.015
REMARK UNBOUND:                -1.118
REMARK  4 active torsions:
REMARK  status: ('A' for Active; 'I' for Inactive)
REMARK    1  A    between atoms: C4_6  and  C5_7 
REMARK    2  A    between atoms: C5_7  and  C6_8 
REMARK    3  A    between atoms: C5_7  and  C12_16 
REMARK    4  A    between atoms: C21_27  and  C22_28 
ROOT
HETATM    1  C12   D T   1       0.404   9.196  -6.923  1.00 23.69     0.021 A 
HETATM    2  C13   D T   1       0.313  10.494  -6.406  1.00 23.69    -0.000 A 
HETATM    3  C14   D T   1       1.360  11.193  -5.800  1.00 23.69     0.016 A 
HETATM    4  C15   D T   1       1.691   8.545  -6.851  1.00 23.69    -0.000 A 
HETATM    5  C16   D T   1       2.826   9.153  -6.231  1.00 23.69     0.017 A 
HETATM    6  C17   D T   1       2.760  10.472  -5.736  1.00 23.69     0.062 A 
HETATM    7  N4    D T   1       3.829  11.129  -5.099  1.00 23.69    -0.294 N 
HETATM    8  C18   D T   1       5.141  10.441  -5.013  1.00 23.69     0.134 C 
HETATM    9  C19   D T   1       3.700  12.472  -4.586  1.00 23.69     0.261 A 
HETATM   10  O1    D T   1       4.648  13.055  -4.046  1.00 23.69    -0.267 OA
HETATM   11  C20   D T   1       2.444  13.107  -4.680  1.00 23.69     0.061 A 
HETATM   12  C21   D T   1       1.283  12.502  -5.273  1.00 23.69     0.006 A 
ENDROOT
BRANCH   1  13
HETATM   13  C5    D T   1      -0.821   8.494  -7.587  1.00 23.69     0.338 C 
HETATM   14  N3    D T   1      -2.115   9.096  -7.126  1.00 23.69     0.628 N 
BRANCH  13  15
HETATM   15  C4    D T   1      -0.769   8.795  -9.116  1.00 23.69     0.100 A 
HETATM   16  N1    D T   1      -1.883   8.535  -9.932  1.00 23.69    -0.308 N 
HETATM   17  C1    D T   1      -3.207   8.032  -9.625  1.00 23.69     0.132 C 
HETATM   18  C2    D T   1      -1.467   8.909 -11.177  1.00 23.69     0.178 A 
HETATM   19  N2    D T   1      -0.241   9.353 -11.244  1.00 23.69    -0.223 NA
HETATM   20  C3    D T   1       0.216   9.278  -9.960  1.00 23.69     0.116 A 
ENDBRANCH  13  15
BRANCH  13  21
HETATM   21  C6    D T   1      -0.767   6.916  -7.318  1.00 23.69     0.003 A 
HETATM   22  C7    D T   1      -0.403   5.957  -8.363  1.00 23.69     0.051 A 
HETATM   23  C8    D T   1      -0.380   4.545  -8.098  1.00 23.69    -0.010 A 
HETATM   24  C9    D T   1      -0.652   4.064  -6.788  1.00 23.69     0.054 A 
HETATM   25 CL1    D T   1      -0.588   2.394  -6.482  1.00 23.69    -0.083 Cl
HETATM   26  C10   D T   1      -1.015   4.983  -5.745  1.00 23.69     0.011 A 
HETATM   27  C11   D T   1      -1.048   6.366  -6.003  1.00 23.69    -0.005 A 
ENDBRANCH  13  21
ENDBRANCH   1  13
BRANCH  12  28
HETATM   28  C22   D T   1       0.042  13.323  -5.281  1.00 23.69     0.001 A 
HETATM   29  C23   D T   1      -0.900  13.210  -4.231  1.00 23.69     0.011 A 
HETATM   30  C24   D T   1      -2.099  14.019  -4.219  1.00 23.69     0.058 A 
HETATM   31 CL2    D T   1      -3.213  13.895  -2.953  1.00 23.69    -0.082 Cl
HETATM   32  C25   D T   1      -2.370  14.923  -5.319  1.00 23.69     0.011 A 
HETATM   33  C26   D T   1      -1.405  15.024  -6.392  1.00 23.69     0.001 A 
HETATM   34  C27   D T   1      -0.208  14.215  -6.371  1.00 23.69     0.000 A 
ENDBRANCH  12  28
TORSDOF 4
ENDMDL
MODEL 4
REMARK VINA RESULT:    -8.821      1.298      1.680
REMARK INTER + INTRA:         -12.002
REMARK INTER:                 -10.620
REMARK INTRA:                  -1.383
REMARK UNBOUND:                -1.118
REMARK  4 active torsions:
REMARK  status: ('A' for Active; 'I' for Inactive)
REMARK    1  A    between atoms: C4_6  and  C5_7 
REMARK    2  A    between atoms: C5_7  and  C6_8 
REMARK    3  A    between atoms: C5_7  and  C12_16 
REMARK    4  A    between atoms: C21_27  and  C22_28 
ROOT
HETATM    1  C12   D T   1      -0.708   9.393  -6.948  1.00 23.69     0.021 A 
HETATM    2  C13   D T   1       0.684   9.325  -6.823  1.00 23.69    -0.000 A 
HETATM    3  C14   D T   1       1.481  10.274  -6.177  1.00 23.69     0.016 A 
HETATM    4  C15   D T   1      -1.373  10.518  -6.332  1.00 23.69    -0.000 A 
HETATM    5  C16   D T   1      -0.658  11.561  -5.666  1.00 23.69     0.017 A 
HETATM    6  C17   D T   1       0.741  11.490  -5.502  1.00 23.69     0.062 A 
HETATM    7  N4    D T   1       1.512  12.486  -4.875  1.00 23.69    -0.294 N 
HETATM    8  C18   D T   1       0.819  13.647  -4.263  1.00 23.69     0.134 C 
HETATM    9  C19   D T   1       2.947  12.376  -4.757  1.00 23.69     0.261 A 
HETATM   10  O1    D T   1       3.619  13.242  -4.185  1.00 23.69    -0.267 OA
HETATM   11  C20   D T   1       3.584  11.264  -5.344  1.00 23.69     0.061 A 
HETATM   12  C21   D T   1       2.887  10.218  -6.044  1.00 23.69     0.006 A 
ENDROOT
BRANCH   1  13
HETATM   13  C5    D T   1      -1.517   8.283  -7.687  1.00 23.69     0.338 C 
HETATM   14  N3    D T   1      -2.945   8.246  -7.229  1.00 23.69     0.628 N 
BRANCH  13  15
HETATM   15  C4    D T   1      -1.597   8.679  -9.194  1.00 23.69     0.100 A 
HETATM   16  N1    D T   1      -2.194   7.814 -10.126  1.00 23.69    -0.308 N 
HETATM   17  C1    D T   1      -2.846   6.528  -9.972  1.00 23.69     0.132 C 
HETATM   18  C2    D T   1      -2.072   8.481 -11.311  1.00 23.69     0.178 A 
HETATM   19  N2    D T   1      -1.467   9.636 -11.239  1.00 23.69    -0.223 NA
HETATM   20  C3    D T   1      -1.152   9.770  -9.918  1.00 23.69     0.116 A 
ENDBRANCH  13  15
BRANCH  13  21
HETATM   21  C6    D T   1      -0.797   6.863  -7.512  1.00 23.69     0.003 A 
HETATM   22  C7    D T   1       0.439   6.521  -8.218  1.00 23.69     0.051 A 
HETATM   23  C8    D T   1       1.055   5.233  -8.055  1.00 23.69    -0.010 A 
HETATM   24  C9    D T   1       0.498   4.290  -7.148  1.00 23.69     0.054 A 
HETATM   25 CL1    D T   1       1.256   2.784  -6.940  1.00 23.69    -0.083 Cl
HETATM   26  C10   D T   1      -0.716   4.599  -6.444  1.00 23.69     0.011 A 
HETATM   27  C11   D T   1      -1.327   5.856  -6.609  1.00 23.69    -0.005 A 
ENDBRANCH  13  21
ENDBRANCH   1  13
BRANCH  12  28
HETATM   28  C22   D T   1       3.727   9.124  -6.600  1.00 23.69     0.001 A 
HETATM   29  C23   D T   1       3.574   7.796  -6.136  1.00 23.69     0.011 A 
HETATM   30  C24   D T   1       4.371   6.721  -6.686  1.00 23.69     0.058 A 
HETATM   31 CL2    D T   1       4.172   5.132  -6.142  1.00 23.69    -0.082 Cl
HETATM   32  C25   D T   1       5.377   7.008  -7.688  1.00 23.69     0.011 A 
HETATM   33  C26   D T   1       5.532   8.371  -8.148  1.00 23.69     0.001 A 
HETATM   34  C27   D T   1       4.712   9.423  -7.593  1.00 23.69     0.000 A 
ENDBRANCH  12  28
TORSDOF 4
ENDMDL
MODEL 5
REMARK VINA RESULT:    -8.193      4.262      7.705
REMARK INTER + INTRA:         -11.227
REMARK INTER:                 -10.654
REMARK INTRA:                  -0.573
REMARK UNBOUND:                -1.118
REMARK  4 active torsions:
REMARK  status: ('A' for Active; 'I' for Inactive)
REMARK    1  A    between atoms: C4_6  and  C5_7 
REMARK    2  A    between atoms: C5_7  and  C6_8 
REMARK    3  A    between atoms: C5_7  and  C12_16 
REMARK    4  A    between atoms: C21_27  and  C22_28 
ROOT
HETATM    1  C12   D T   1      -1.110  11.317  -7.641  1.00 23.69     0.021 A 
HETATM    2  C13   D T   1      -1.352   9.938  -7.640  1.00 23.69    -0.000 A 
HETATM    3  C14   D T   1      -2.136   9.259  -8.577  1.00 23.69     0.016 A 
HETATM    4  C15   D T   1      -1.691  12.089  -8.714  1.00 23.69    -0.000 A 
HETATM    5  C16   D T   1      -2.530  11.506  -9.713  1.00 23.69     0.017 A 
HETATM    6  C17   D T   1      -2.756  10.114  -9.746  1.00 23.69     0.062 A 
HETATM    7  N4    D T   1      -3.581   9.472 -10.687  1.00 23.69    -0.294 N 
HETATM    8  C18   D T   1      -4.189  10.280 -11.774  1.00 23.69     0.134 C 
HETATM    9  C19   D T   1      -3.801   8.045 -10.660  1.00 23.69     0.261 A 
HETATM   10  O1    D T   1      -4.509   7.481 -11.502  1.00 23.69    -0.267 OA
HETATM   11  C20   D T   1      -3.212   7.297  -9.619  1.00 23.69     0.061 A 
HETATM   12  C21   D T   1      -2.389   7.869  -8.588  1.00 23.69     0.006 A 
ENDROOT
BRANCH   1  13
HETATM   13  C5    D T   1      -0.217  11.990  -6.553  1.00 23.69     0.338 C 
HETATM   14  N3    D T   1       0.274  10.989  -5.549  1.00 23.69     0.628 N 
BRANCH  13  15
HETATM   15  C4    D T   1       1.074  12.511  -7.255  1.00 23.69     0.100 A 
HETATM   16  N1    D T   1       2.130  13.045  -6.498  1.00 23.69    -0.308 N 
HETATM   17  C1    D T   1       2.312  13.199  -5.068  1.00 23.69     0.132 C 
HETATM   18  C2    D T   1       3.058  13.394  -7.436  1.00 23.69     0.178 A 
HETATM   19  N2    D T   1       2.712  13.160  -8.673  1.00 23.69    -0.223 NA
HETATM   20  C3    D T   1       1.464  12.616  -8.578  1.00 23.69     0.116 A 
ENDBRANCH  13  15
BRANCH  13  21
HETATM   21  C6    D T   1      -1.009  13.194  -5.855  1.00 23.69     0.003 A 
HETATM   22  C7    D T   1      -0.972  14.561  -6.379  1.00 23.69     0.051 A 
HETATM   23  C8    D T   1      -1.679  15.627  -5.722  1.00 23.69    -0.010 A 
HETATM   24  C9    D T   1      -2.479  15.350  -4.580  1.00 23.69     0.054 A 
HETATM   25 CL1    D T   1      -3.334  16.613  -3.834  1.00 23.69    -0.083 Cl
HETATM   26  C10   D T   1      -2.530  14.018  -4.043  1.00 23.69     0.011 A 
HETATM   27  C11   D T   1      -1.832  12.973  -4.678  1.00 23.69    -0.005 A 
ENDBRANCH  13  21
ENDBRANCH   1  13
BRANCH  12  28
HETATM   28  C22   D T   1      -1.855   6.924  -7.571  1.00 23.69     0.001 A 
HETATM   29  C23   D T   1      -1.063   5.819  -7.963  1.00 23.69     0.011 A 
HETATM   30  C24   D T   1      -0.522   4.906  -6.981  1.00 23.69     0.058 A 
HETATM   31 CL2    D T   1       0.441   3.598  -7.454  1.00 23.69    -0.082 Cl
HETATM   32  C25   D T   1      -0.833   5.089  -5.578  1.00 23.69     0.011 A 
HETATM   33  C26   D T   1      -1.652   6.217  -5.187  1.00 23.69     0.001 A 
HETATM   34  C27   D T   1      -2.167   7.122  -6.189  1.00 23.69     0.000 A 
ENDBRANCH  12  28
TORSDOF 4
ENDMDL
MODEL 6
REMARK VINA RESULT:    -7.950      3.382      6.473
REMARK INTER + INTRA:         -10.927
REMARK INTER:                 -10.404
REMARK INTRA:                  -0.524
REMARK UNBOUND:                -1.118
REMARK  4 active torsions:
REMARK  status: ('A' for Active; 'I' for Inactive)
REMARK    1  A    between atoms: C4_6  and  C5_7 
REMARK    2  A    between atoms: C5_7  and  C6_8 
REMARK    3  A    between atoms: C5_7  and  C12_16 
REMARK    4  A    between atoms: C21_27  and  C22_28 
ROOT
HETATM    1  C12   D T   1       3.357   9.250  -6.408  1.00 23.69     0.021 A 
HETATM    2  C13   D T   1       1.965   9.288  -6.549  1.00 23.69    -0.000 A 
HETATM    3  C14   D T   1       1.139  10.322  -6.101  1.00 23.69     0.016 A 
HETATM    4  C15   D T   1       3.988  10.387  -5.779  1.00 23.69    -0.000 A 
HETATM    5  C16   D T   1       3.242  11.490  -5.260  1.00 23.69     0.017 A 
HETATM    6  C17   D T   1       1.843  11.558  -5.425  1.00 23.69     0.062 A 
HETATM    7  N4    D T   1       1.042  12.603  -4.927  1.00 23.69    -0.294 N 
HETATM    8  C18   D T   1       1.701  13.756  -4.264  1.00 23.69     0.134 C 
HETATM    9  C19   D T   1      -0.391  12.611  -5.100  1.00 23.69     0.261 A 
HETATM   10  O1    D T   1      -1.090  13.542  -4.681  1.00 23.69    -0.267 OA
HETATM   11  C20   D T   1      -0.996  11.506  -5.734  1.00 23.69     0.061 A 
HETATM   12  C21   D T   1      -0.267  10.373  -6.236  1.00 23.69     0.006 A 
ENDROOT
BRANCH   1  13
HETATM   13  C5    D T   1       4.200   8.051  -6.943  1.00 23.69     0.338 C 
HETATM   14  N3    D T   1       5.389   7.783  -6.069  1.00 23.69     0.628 N 
BRANCH  13  15
HETATM   15  C4    D T   1       3.324   6.766  -6.822  1.00 23.69     0.100 A 
HETATM   16  N1    D T   1       3.800   5.533  -7.299  1.00 23.69    -0.308 N 
HETATM   17  C1    D T   1       5.061   5.154  -7.904  1.00 23.69     0.132 C 
HETATM   18  C2    D T   1       2.780   4.667  -7.032  1.00 23.69     0.178 A 
HETATM   19  N2    D T   1       1.730   5.200  -6.467  1.00 23.69    -0.223 NA
HETATM   20  C3    D T   1       2.052   6.521  -6.338  1.00 23.69     0.116 A 
ENDBRANCH  13  15
BRANCH  13  21
HETATM   21  C6    D T   1       4.623   8.307  -8.466  1.00 23.69     0.003 A 
HETATM   22  C7    D T   1       3.653   8.281  -9.562  1.00 23.69     0.051 A 
HETATM   23  C8    D T   1       4.064   8.497 -10.922  1.00 23.69    -0.010 A 
HETATM   24  C9    D T   1       5.422   8.804 -11.213  1.00 23.69     0.054 A 
HETATM   25 CL1    D T   1       5.886   9.090 -12.821  1.00 23.69    -0.083 Cl
HETATM   26  C10   D T   1       6.395   8.833 -10.156  1.00 23.69     0.011 A 
HETATM   27  C11   D T   1       5.998   8.612  -8.824  1.00 23.69    -0.005 A 
ENDBRANCH  13  21
ENDBRANCH   1  13
BRANCH  12  28
HETATM   28  C22   D T   1      -1.075   9.299  -6.874  1.00 23.69     0.001 A 
HETATM   29  C23   D T   1      -1.670   9.505  -8.141  1.00 23.69     0.011 A 
HETATM   30  C24   D T   1      -2.441   8.461  -8.779  1.00 23.69     0.058 A 
HETATM   31 CL2    D T   1      -3.134   8.705 -10.302  1.00 23.69    -0.082 Cl
HETATM   32  C25   D T   1      -2.652   7.201  -8.095  1.00 23.69     0.011 A 
HETATM   33  C26   D T   1      -2.048   7.004  -6.795  1.00 23.69     0.001 A 
HETATM   34  C27   D T   1      -1.271   8.059  -6.188  1.00 23.69     0.000 A 
ENDBRANCH  12  28
TORSDOF 4
ENDMDL
MODEL 7
REMARK VINA RESULT:    -7.911      2.475      4.244
REMARK INTER + INTRA:         -10.880
REMARK INTER:                  -9.644
REMARK INTRA:                  -1.235
REMARK UNBOUND:                -1.118
REMARK  4 active torsions:
REMARK  status: ('A' for Active; 'I' for Inactive)
REMARK    1  A    between atoms: C4_6  and  C5_7 
REMARK    2  A    between atoms: C5_7  and  C6_8 
REMARK    3  A    between atoms: C5_7  and  C12_16 
REMARK    4  A    between atoms: C21_27  and  C22_28 
ROOT
HETATM    1  C12   D T   1      -0.268   9.972  -6.427  1.00 23.69     0.021 A 
HETATM    2  C13   D T   1       0.972  10.533  -6.100  1.00 23.69    -0.000 A 
HETATM    3  C14   D T   1       1.155  11.760  -5.458  1.00 23.69     0.016 A 
HETATM    4  C15   D T   1      -1.449  10.708  -6.039  1.00 23.69    -0.000 A 
HETATM    5  C16   D T   1      -1.383  11.985  -5.401  1.00 23.69     0.017 A 
HETATM    6  C17   D T   1      -0.142  12.547  -5.035  1.00 23.69     0.062 A 
HETATM    7  N4    D T   1       0.001  13.805  -4.420  1.00 23.69    -0.294 N 
HETATM    8  C18   D T   1      -1.220  14.560  -4.045  1.00 23.69     0.134 C 
HETATM    9  C19   D T   1       1.297  14.347  -4.089  1.00 23.69     0.261 A 
HETATM   10  O1    D T   1       1.419  15.443  -3.529  1.00 23.69    -0.267 OA
HETATM   11  C20   D T   1       2.443  13.611  -4.454  1.00 23.69     0.061 A 
HETATM   12  C21   D T   1       2.400  12.339  -5.123  1.00 23.69     0.006 A 
ENDROOT
BRANCH   1  13
HETATM   13  C5    D T   1      -0.376   8.591  -7.144  1.00 23.69     0.338 C 
HETATM   14  N3    D T   1      -1.515   7.778  -6.602  1.00 23.69     0.628 N 
BRANCH  13  15
HETATM   15  C4    D T   1      -0.756   8.858  -8.633  1.00 23.69     0.100 A 
HETATM   16  N1    D T   1      -0.973   7.788  -9.516  1.00 23.69    -0.308 N 
HETATM   17  C1    D T   1      -0.953   6.352  -9.316  1.00 23.69     0.132 C 
HETATM   18  C2    D T   1      -1.270   8.399 -10.699  1.00 23.69     0.178 A 
HETATM   19  N2    D T   1      -1.252   9.704 -10.671  1.00 23.69    -0.223 NA
HETATM   20  C3    D T   1      -0.921  10.009  -9.383  1.00 23.69     0.116 A 
ENDBRANCH  13  15
BRANCH  13  21
HETATM   21  C6    D T   1       1.017   7.806  -7.047  1.00 23.69     0.003 A 
HETATM   22  C7    D T   1       1.187   6.617  -6.211  1.00 23.69     0.051 A 
HETATM   23  C8    D T   1       2.454   5.942  -6.129  1.00 23.69    -0.010 A 
HETATM   24  C9    D T   1       3.549   6.391  -6.917  1.00 23.69     0.054 A 
HETATM   25 CL1    D T   1       5.030   5.564  -6.835  1.00 23.69    -0.083 Cl
HETATM   26  C10   D T   1       3.409   7.558  -7.744  1.00 23.69     0.011 A 
HETATM   27  C11   D T   1       2.173   8.227  -7.819  1.00 23.69    -0.005 A 
ENDBRANCH  13  21
ENDBRANCH   1  13
BRANCH  12  28
HETATM   28  C22   D T   1       3.713  11.710  -5.430  1.00 23.69     0.001 A 
HETATM   29  C23   D T   1       4.151  11.581  -6.769  1.00 23.69     0.011 A 
HETATM   30  C24   D T   1       5.434  10.989  -7.078  1.00 23.69     0.058 A 
HETATM   31 CL2    D T   1       5.961  10.855  -8.679  1.00 23.69    -0.082 Cl
HETATM   32  C25   D T   1       6.266  10.474  -6.009  1.00 23.69     0.011 A 
HETATM   33  C26   D T   1       5.804  10.602  -4.644  1.00 23.69     0.001 A 
HETATM   34  C27   D T   1       4.525  11.211  -4.363  1.00 23.69     0.000 A 
ENDBRANCH  12  28
TORSDOF 4
ENDMDL
MODEL 8
REMARK VINA RESULT:    -7.766      3.419      5.995
REMARK INTER + INTRA:         -10.700
REMARK INTER:                 -10.806
REMARK INTRA:                   0.106
REMARK UNBOUND:                -1.118
REMARK  4 active torsions:
REMARK  status: ('A' for Active; 'I' for Inactive)
REMARK    1  A    between atoms: C4_6  and  C5_7 
REMARK    2  A    between atoms: C5_7  and  C6_8 
REMARK    3  A    between atoms: C5_7  and  C12_16 
REMARK    4  A    between atoms: C21_27  and  C22_28 
ROOT
HETATM    1  C12   D T   1       3.061   8.729  -7.216  1.00 23.69     0.021 A 
HETATM    2  C13   D T   1       2.452   9.802  -6.554  1.00 23.69    -0.000 A 
HETATM    3  C14   D T   1       3.121  10.749  -5.774  1.00 23.69     0.016 A 
HETATM    4  C15   D T   1       4.497   8.615  -7.110  1.00 23.69    -0.000 A 
HETATM    5  C16   D T   1       5.281   9.511  -6.320  1.00 23.69     0.017 A 
HETATM    6  C17   D T   1       4.687  10.616  -5.674  1.00 23.69     0.062 A 
HETATM    7  N4    D T   1       5.392  11.529  -4.868  1.00 23.69    -0.294 N 
HETATM    8  C18   D T   1       6.865  11.389  -4.750  1.00 23.69     0.134 C 
HETATM    9  C19   D T   1       4.731  12.629  -4.207  1.00 23.69     0.261 A 
HETATM   10  O1    D T   1       5.357  13.443  -3.517  1.00 23.69    -0.267 OA
HETATM   11  C20   D T   1       3.331  12.743  -4.335  1.00 23.69     0.061 A 
HETATM   12  C21   D T   1       2.520  11.835  -5.100  1.00 23.69     0.006 A 
ENDROOT
BRANCH   1  13
HETATM   13  C5    D T   1       2.232   7.719  -8.069  1.00 23.69     0.338 C 
HETATM   14  N3    D T   1       2.685   7.704  -9.499  1.00 23.69     0.628 N 
BRANCH  13  15
HETATM   15  C4    D T   1       2.545   6.285  -7.541  1.00 23.69     0.100 A 
HETATM   16  N1    D T   1       3.585   5.530  -8.107  1.00 23.69    -0.308 N 
HETATM   17  C1    D T   1       4.545   5.836  -9.149  1.00 23.69     0.132 C 
HETATM   18  C2    D T   1       3.552   4.358  -7.408  1.00 23.69     0.178 A 
HETATM   19  N2    D T   1       2.621   4.280  -6.496  1.00 23.69    -0.223 NA
HETATM   20  C3    D T   1       1.972   5.479  -6.574  1.00 23.69     0.116 A 
ENDBRANCH  13  15
BRANCH  13  21
HETATM   21  C6    D T   1       0.668   8.041  -7.942  1.00 23.69     0.003 A 
HETATM   22  C7    D T   1      -0.136   7.577  -6.810  1.00 23.69     0.051 A 
HETATM   23  C8    D T   1      -1.542   7.866  -6.731  1.00 23.69    -0.010 A 
HETATM   24  C9    D T   1      -2.159   8.666  -7.730  1.00 23.69     0.054 A 
HETATM   25 CL1    D T   1      -3.814   9.027  -7.606  1.00 23.69    -0.083 Cl
HETATM   26  C10   D T   1      -1.394   9.131  -8.854  1.00 23.69     0.011 A 
HETATM   27  C11   D T   1      -0.019   8.843  -8.940  1.00 23.69    -0.005 A 
ENDBRANCH  13  21
ENDBRANCH   1  13
BRANCH  12  28
HETATM   28  C22   D T   1       1.058  12.112  -5.118  1.00 23.69     0.001 A 
HETATM   29  C23   D T   1       0.541  13.279  -4.507  1.00 23.69     0.011 A 
HETATM   30  C24   D T   1      -0.876  13.568  -4.537  1.00 23.69     0.058 A 
HETATM   31 CL2    D T   1      -1.487  14.973  -3.821  1.00 23.69    -0.082 Cl
HETATM   32  C25   D T   1      -1.790  12.629  -5.155  1.00 23.69     0.011 A 
HETATM   33  C26   D T   1      -1.252  11.434  -5.769  1.00 23.69     0.001 A 
HETATM   34  C27   D T   1       0.169  11.178  -5.738  1.00 23.69     0.000 A 
ENDBRANCH  12  28
TORSDOF 4
ENDMDL
MODEL 9
REMARK VINA RESULT:    -7.703      3.779      7.691
REMARK INTER + INTRA:         -10.623
REMARK INTER:                  -9.464
REMARK INTRA:                  -1.159
REMARK UNBOUND:                -1.118
REMARK  4 active torsions:
REMARK  status: ('A' for Active; 'I' for Inactive)
REMARK    1  A    between atoms: C4_6  and  C5_7 
REMARK    2  A    between atoms: C5_7  and  C6_8 
REMARK    3  A    between atoms: C5_7  and  C12_16 
REMARK    4  A    between atoms: C21_27  and  C22_28 
ROOT
HETATM    1  C12   D T   1       4.144   8.281  -6.227  1.00 23.69     0.021 A 
HETATM    2  C13   D T   1       2.793   8.183  -6.581  1.00 23.69    -0.000 A 
HETATM    3  C14   D T   1       2.100   6.987  -6.781  1.00 23.69     0.016 A 
HETATM    4  C15   D T   1       4.865   7.046  -6.021  1.00 23.69    -0.000 A 
HETATM    5  C16   D T   1       4.265   5.764  -6.222  1.00 23.69     0.017 A 
HETATM    6  C17   D T   1       2.897   5.649  -6.546  1.00 23.69     0.062 A 
HETATM    7  N4    D T   1       2.243   4.424  -6.774  1.00 23.69    -0.294 N 
HETATM    8  C18   D T   1       3.000   3.162  -6.579  1.00 23.69     0.134 C 
HETATM    9  C19   D T   1       0.845   4.362  -7.129  1.00 23.69     0.261 A 
HETATM   10  O1    D T   1       0.267   3.283  -7.307  1.00 23.69    -0.267 OA
HETATM   11  C20   D T   1       0.145   5.573  -7.307  1.00 23.69     0.061 A 
HETATM   12  C21   D T   1       0.737   6.873  -7.140  1.00 23.69     0.006 A 
ENDROOT
BRANCH   1  13
HETATM   13  C5    D T   1       4.836   9.664  -6.022  1.00 23.69     0.338 C 
HETATM   14  N3    D T   1       5.562   9.726  -4.711  1.00 23.69     0.628 N 
BRANCH  13  15
HETATM   15  C4    D T   1       5.957   9.797  -7.100  1.00 23.69     0.100 A 
HETATM   16  N1    D T   1       6.925  10.809  -6.998  1.00 23.69    -0.308 N 
HETATM   17  C1    D T   1       7.152  11.832  -5.996  1.00 23.69     0.132 C 
HETATM   18  C2    D T   1       7.711  10.617  -8.097  1.00 23.69     0.178 A 
HETATM   19  N2    D T   1       7.351   9.631  -8.873  1.00 23.69    -0.223 NA
HETATM   20  C3    D T   1       6.243   9.111  -8.266  1.00 23.69     0.116 A 
ENDBRANCH  13  15
BRANCH  13  21
HETATM   21  C6    D T   1       3.766  10.846  -6.169  1.00 23.69     0.003 A 
HETATM   22  C7    D T   1       3.220  11.554  -5.009  1.00 23.69     0.051 A 
HETATM   23  C8    D T   1       2.247  12.600  -5.169  1.00 23.69    -0.010 A 
HETATM   24  C9    D T   1       1.847  13.004  -6.472  1.00 23.69     0.054 A 
HETATM   25 CL1    D T   1       0.722  14.264  -6.647  1.00 23.69    -0.083 Cl
HETATM   26  C10   D T   1       2.365  12.324  -7.627  1.00 23.69     0.011 A 
HETATM   27  C11   D T   1       3.311  11.292  -7.474  1.00 23.69    -0.005 A 
ENDBRANCH  13  21
ENDBRANCH   1  13
BRANCH  12  28
HETATM   28  C22   D T   1      -0.156   8.039  -7.372  1.00 23.69     0.001 A 
HETATM   29  C23   D T   1      -0.257   9.069  -6.407  1.00 23.69     0.011 A 
HETATM   30  C24   D T   1      -1.107  10.218  -6.632  1.00 23.69     0.058 A 
HETATM   31 CL2    D T   1      -1.208  11.456  -5.484  1.00 23.69    -0.082 Cl
HETATM   32  C25   D T   1      -1.908  10.297  -7.837  1.00 23.69     0.011 A 
HETATM   33  C26   D T   1      -1.805   9.234  -8.813  1.00 23.69     0.001 A 
HETATM   34  C27   D T   1      -0.937   8.105  -8.569  1.00 23.69     0.000 A 
ENDBRANCH  12  28
TORSDOF 4
ENDMDL
