MODEL 1
REMARK VINA RESULT:    -9.570      0.000      0.000
REMARK INTER + INTRA:         -17.302
REMARK INTER:                 -15.724
REMARK INTRA:                  -1.577
REMARK UNBOUND:                -1.577
REMARK  11 active torsions:
REMARK  status: ('A' for Active; 'I' for Inactive)
REMARK    1  A    between atoms: S2_2  and  C5_5 
REMARK    2  A    between atoms: C5_5  and  C6_6 
REMARK    3  A    between atoms: C6_6  and  N7_7 
REMARK    4  A    between atoms: N7_7  and  C8_8 
REMARK    5  A    between atoms: C8_8  and  C9_9 
REMARK    6  A    between atoms: C12_12  and  C14_14 
REMARK    7  A    between atoms: C21_21  and  N22_22 
REMARK    8  A    between atoms: N22_22  and  C23_23 
REMARK    9  A    between atoms: C26_26  and  O27_27 
REMARK   10  A    between atoms: O27_27  and  C28_28 
REMARK   11  A    between atoms: C28_28  and  C29_29 
ROOT
HETATM    1  C14   D T  91      10.591   2.049   1.188  1.00 38.14     0.023 A 
HETATM    2  C15   D T  91      11.399   2.930   1.904  1.00 35.17     0.004 A 
HETATM    3  C16   D T  91      11.249   4.285   1.736  1.00 34.68     0.019 A 
HETATM    4  C17   D T  91      10.298   4.785   0.847  1.00 33.31     0.086 A 
HETATM    5  N18   D T  91      10.160   6.150   0.691  1.00 32.08    -0.224 NA
HETATM    6  C19   D T  91       9.224   6.660  -0.185  1.00 32.80     0.200 A 
HETATM    7  N20   D T  91       8.417   5.809  -0.913  1.00 33.06    -0.205 NA
HETATM    8  C21   D T  91       8.539   4.441  -0.773  1.00 33.11     0.166 A 
HETATM    9  C39   D T  91       9.493   3.920   0.121  1.00 33.77     0.054 A 
HETATM   10  C40   D T  91       9.632   2.553   0.283  1.00 34.65     0.006 A 
ENDROOT
BRANCH   8  11
HETATM   11  N22   D T  91       7.724   3.581  -1.508  1.00 33.98    -0.227 NA
BRANCH  11  12
HETATM   12  C23   D T  91       7.755   3.542  -2.913  1.00 33.25     0.084 A 
HETATM   13  C24   D T  91       6.570   3.382  -3.635  1.00 31.98     0.021 A 
HETATM   14  C25   D T  91       6.610   3.342  -5.026  1.00 31.39     0.027 A 
HETATM   15  C26   D T  91       7.828   3.462  -5.685  1.00 32.78     0.105 A 
HETATM   16  C36   D T  91       8.982   3.615  -4.974  1.00 33.04     0.082 A 
HETATM   17 CL3    D T  91      10.446   3.756  -5.810  1.00 34.74    -0.080 Cl
HETATM   18  C38   D T  91       8.962   3.657  -3.597  1.00 32.28     0.033 A 
BRANCH  15  19
HETATM   19  O27   D T  91       7.903   3.434  -7.102  1.00 32.72    -0.325 OA
BRANCH  19  20
HETATM   20  C28   D T  91       7.547   4.678  -7.719  1.00 34.20     0.175 C 
BRANCH  20  21
HETATM   21  C29   D T  91       6.184   4.595  -8.435  1.00 33.41     0.010 A 
HETATM   22  C30   D T  91       6.016   3.697  -9.467  1.00 32.49    -0.002 A 
HETATM   23  C31   D T  91       4.799   3.609 -10.112  1.00 32.79     0.002 A 
HETATM   24  C32   D T  91       3.750   4.416  -9.725  1.00 32.60     0.030 A 
HETATM   25  C33   D T  91       3.913   5.312  -8.696  1.00 33.26     0.140 A 
HETATM   26  F34   D T  91       2.909   6.075  -8.327  1.00 33.03    -0.204 F 
HETATM   27  C35   D T  91       5.124   5.411  -8.047  1.00 33.74     0.028 A 
ENDBRANCH  20  21
ENDBRANCH  19  20
ENDBRANCH  15  19
ENDBRANCH  11  12
ENDBRANCH   8  11
BRANCH   1  28
HETATM   28  C12   D T  91      10.728   0.604   1.391  1.00 40.70     0.100 A 
HETATM   29  C11   D T  91      10.181  -0.059   2.461  1.00 42.97     0.026 A 
HETATM   30  C10   D T  91      10.451  -1.315   2.329  1.00 44.99     0.024 A 
HETATM   31  C9    D T  91      11.166  -1.457   1.194  1.00 47.90     0.114 A 
HETATM   32  O13   D T  91      11.413  -0.221   0.495  1.00 44.76    -0.309 OA
BRANCH  31  33
HETATM   33  C8    D T  91      11.666  -2.791   0.695  1.00 53.94     0.341 C 
BRANCH  33  34
HETATM   34  N7    D T  91      12.220  -2.632  -0.652  1.00 60.98     0.347 N 
BRANCH  34  35
HETATM   35  C6    D T  91      11.738  -3.720  -1.515  1.00 65.50     0.308 C 
BRANCH  35  36
HETATM   36  C5    D T  91      12.073  -5.068  -0.866  1.00 70.88     0.161 C 
BRANCH  36  37
HETATM   37  S2    D T  91      12.888  -6.141  -2.082  1.00 75.43     0.173 S 
HETATM   38  C1    D T  91      13.291  -5.196  -3.526  1.00 73.29     0.140 C 
HETATM   39  O3    D T  91      14.100  -6.687  -1.511  1.00 74.33    -0.226 OA
HETATM   40  O4    D T  91      11.996  -7.219  -2.446  1.00 74.26    -0.226 OA
ENDBRANCH  36  37
ENDBRANCH  35  36
ENDBRANCH  34  35
ENDBRANCH  33  34
ENDBRANCH  31  33
ENDBRANCH   1  28
TORSDOF 11
ENDMDL
MODEL 2
REMARK VINA RESULT:    -9.367      1.912      2.234
REMARK INTER + INTRA:         -16.969
REMARK INTER:                 -15.600
REMARK INTRA:                  -1.368
REMARK UNBOUND:                -1.577
REMARK  11 active torsions:
REMARK  status: ('A' for Active; 'I' for Inactive)
REMARK    1  A    between atoms: S2_2  and  C5_5 
REMARK    2  A    between atoms: C5_5  and  C6_6 
REMARK    3  A    between atoms: C6_6  and  N7_7 
REMARK    4  A    between atoms: N7_7  and  C8_8 
REMARK    5  A    between atoms: C8_8  and  C9_9 
REMARK    6  A    between atoms: C12_12  and  C14_14 
REMARK    7  A    between atoms: C21_21  and  N22_22 
REMARK    8  A    between atoms: N22_22  and  C23_23 
REMARK    9  A    between atoms: C26_26  and  O27_27 
REMARK   10  A    between atoms: O27_27  and  C28_28 
REMARK   11  A    between atoms: C28_28  and  C29_29 
ROOT
HETATM    1  C14   D T  91      11.123   1.457   1.354  1.00 38.14     0.023 A 
HETATM    2  C15   D T  91      11.031   2.499   2.275  1.00 35.17     0.004 A 
HETATM    3  C16   D T  91      10.820   3.783   1.834  1.00 34.68     0.019 A 
HETATM    4  C17   D T  91      10.705   4.051   0.471  1.00 33.31     0.086 A 
HETATM    5  N18   D T  91      10.491   5.347   0.045  1.00 32.08    -0.224 NA
HETATM    6  C19   D T  91      10.375   5.629  -1.300  1.00 32.80     0.200 A 
HETATM    7  N20   D T  91      10.471   4.617  -2.233  1.00 33.06    -0.205 NA
HETATM    8  C21   D T  91      10.685   3.314  -1.830  1.00 33.11     0.166 A 
HETATM    9  C39   D T  91      10.802   3.026  -0.457  1.00 33.77     0.054 A 
HETATM   10  C40   D T  91      11.012   1.727  -0.027  1.00 34.65     0.006 A 
ENDROOT
BRANCH   8  11
HETATM   11  N22   D T  91      10.780   2.290  -2.772  1.00 33.98    -0.227 NA
BRANCH  11  12
HETATM   12  C23   D T  91       9.718   1.969  -3.635  1.00 33.25     0.084 A 
HETATM   13  C24   D T  91       9.862   0.939  -4.568  1.00 31.98     0.021 A 
HETATM   14  C25   D T  91       8.806   0.628  -5.420  1.00 31.39     0.027 A 
HETATM   15  C26   D T  91       7.618   1.345  -5.337  1.00 32.78     0.105 A 
HETATM   16  C36   D T  91       7.485   2.352  -4.426  1.00 33.04     0.082 A 
HETATM   17 CL3    D T  91       6.025   3.204  -4.355  1.00 34.74    -0.080 Cl
HETATM   18  C38   D T  91       8.519   2.673  -3.574  1.00 32.28     0.033 A 
BRANCH  15  19
HETATM   19  O27   D T  91       6.520   1.048  -6.185  1.00 32.72    -0.325 OA
BRANCH  19  20
HETATM   20  C28   D T  91       6.836   1.130  -7.582  1.00 34.20     0.175 C 
BRANCH  20  21
HETATM   21  C29   D T  91       6.284   2.419  -8.221  1.00 33.41     0.010 A 
HETATM   22  C30   D T  91       6.779   3.640  -7.817  1.00 32.49    -0.002 A 
HETATM   23  C31   D T  91       6.298   4.801  -8.386  1.00 32.79     0.002 A 
HETATM   24  C32   D T  91       5.323   4.743  -9.360  1.00 32.60     0.030 A 
HETATM   25  C33   D T  91       4.827   3.528  -9.767  1.00 33.26     0.140 A 
HETATM   26  F34   D T  91       3.902   3.478 -10.699  1.00 33.03    -0.204 F 
HETATM   27  C35   D T  91       5.298   2.363  -9.203  1.00 33.74     0.028 A 
ENDBRANCH  20  21
ENDBRANCH  19  20
ENDBRANCH  15  19
ENDBRANCH  11  12
ENDBRANCH   8  11
BRANCH   1  28
HETATM   28  C12   D T  91      11.316   0.082   1.825  1.00 40.70     0.100 A 
HETATM   29  C11   D T  91      10.761  -0.398   2.985  1.00 42.97     0.026 A 
HETATM   30  C10   D T  91      11.089  -1.643   3.095  1.00 44.99     0.024 A 
HETATM   31  C9    D T  91      11.850  -1.956   2.026  1.00 47.90     0.114 A 
HETATM   32  O13   D T  91      12.067  -0.859   1.117  1.00 44.76    -0.309 OA
BRANCH  31  33
HETATM   33  C8    D T  91      12.425  -3.333   1.797  1.00 53.94     0.341 C 
BRANCH  33  34
HETATM   34  N7    D T  91      11.341  -4.270   1.494  1.00 60.98     0.347 N 
BRANCH  34  35
HETATM   35  C6    D T  91      11.837  -5.322   0.595  1.00 65.50     0.308 C 
BRANCH  35  36
HETATM   36  C5    D T  91      12.176  -4.705  -0.767  1.00 70.88     0.161 C 
BRANCH  36  37
HETATM   37  S2    D T  91      12.794  -5.998  -1.882  1.00 75.43     0.173 S 
HETATM   38  C1    D T  91      13.144  -5.291  -3.468  1.00 73.29     0.140 C 
HETATM   39  O3    D T  91      14.004  -6.572  -1.334  1.00 74.33    -0.226 OA
HETATM   40  O4    D T  91      11.790  -7.028  -2.025  1.00 74.26    -0.226 OA
ENDBRANCH  36  37
ENDBRANCH  35  36
ENDBRANCH  34  35
ENDBRANCH  33  34
ENDBRANCH  31  33
ENDBRANCH   1  28
TORSDOF 11
ENDMDL
MODEL 3
REMARK VINA RESULT:    -9.125      2.108      2.850
REMARK INTER + INTRA:         -16.571
REMARK INTER:                 -14.873
REMARK INTRA:                  -1.698
REMARK UNBOUND:                -1.577
REMARK  11 active torsions:
REMARK  status: ('A' for Active; 'I' for Inactive)
REMARK    1  A    between atoms: S2_2  and  C5_5 
REMARK    2  A    between atoms: C5_5  and  C6_6 
REMARK    3  A    between atoms: C6_6  and  N7_7 
REMARK    4  A    between atoms: N7_7  and  C8_8 
REMARK    5  A    between atoms: C8_8  and  C9_9 
REMARK    6  A    between atoms: C12_12  and  C14_14 
REMARK    7  A    between atoms: C21_21  and  N22_22 
REMARK    8  A    between atoms: N22_22  and  C23_23 
REMARK    9  A    between atoms: C26_26  and  O27_27 
REMARK   10  A    between atoms: O27_27  and  C28_28 
REMARK   11  A    between atoms: C28_28  and  C29_29 
ROOT
HETATM    1  C14   D T  91      10.471   4.337   1.360  1.00 38.14     0.023 A 
HETATM    2  C15   D T  91      10.076   5.258   2.327  1.00 35.17     0.004 A 
HETATM    3  C16   D T  91       9.690   6.522   1.950  1.00 34.68     0.019 A 
HETATM    4  C17   D T  91       9.699   6.890   0.605  1.00 33.31     0.086 A 
HETATM    5  N18   D T  91       9.307   8.164   0.243  1.00 32.08    -0.224 NA
HETATM    6  C19   D T  91       9.312   8.544  -1.083  1.00 32.80     0.200 A 
HETATM    7  N20   D T  91       9.708   7.653  -2.060  1.00 33.06    -0.205 NA
HETATM    8  C21   D T  91      10.104   6.375  -1.720  1.00 33.11     0.166 A 
HETATM    9  C39   D T  91      10.099   5.987  -0.367  1.00 33.77     0.054 A 
HETATM   10  C40   D T  91      10.487   4.710  -0.001  1.00 34.65     0.006 A 
ENDROOT
BRANCH   8  11
HETATM   11  N22   D T  91      10.503   5.474  -2.707  1.00 33.98    -0.227 NA
BRANCH  11  12
HETATM   12  C23   D T  91       9.576   4.812  -3.531  1.00 33.25     0.084 A 
HETATM   13  C24   D T  91       9.539   5.085  -4.901  1.00 31.98     0.021 A 
HETATM   14  C25   D T  91       8.617   4.426  -5.711  1.00 31.39     0.027 A 
HETATM   15  C26   D T  91       7.742   3.504  -5.150  1.00 32.78     0.105 A 
HETATM   16  C36   D T  91       7.781   3.244  -3.811  1.00 33.04     0.082 A 
HETATM   17 CL3    D T  91       6.699   2.116  -3.164  1.00 34.74    -0.080 Cl
HETATM   18  C38   D T  91       8.687   3.886  -2.995  1.00 32.28     0.033 A 
BRANCH  15  19
HETATM   19  O27   D T  91       6.796   2.809  -5.948  1.00 32.72    -0.325 OA
BRANCH  19  20
HETATM   20  C28   D T  91       7.099   2.837  -7.350  1.00 34.20     0.175 C 
BRANCH  20  21
HETATM   21  C29   D T  91       5.981   3.515  -8.166  1.00 33.41     0.010 A 
HETATM   22  C30   D T  91       5.580   4.791  -7.835  1.00 32.49    -0.002 A 
HETATM   23  C31   D T  91       4.585   5.411  -8.562  1.00 32.79     0.002 A 
HETATM   24  C32   D T  91       3.991   4.758  -9.620  1.00 32.60     0.030 A 
HETATM   25  C33   D T  91       4.388   3.486  -9.956  1.00 33.26     0.140 A 
HETATM   26  F34   D T  91       3.823   2.869 -10.969  1.00 33.03    -0.204 F 
HETATM   27  C35   D T  91       5.379   2.856  -9.235  1.00 33.74     0.028 A 
ENDBRANCH  20  21
ENDBRANCH  19  20
ENDBRANCH  15  19
ENDBRANCH  11  12
ENDBRANCH   8  11
BRANCH   1  28
HETATM   28  C12   D T  91      10.852   2.979   1.759  1.00 40.70     0.100 A 
HETATM   29  C11   D T  91      11.672   2.713   2.827  1.00 42.97     0.026 A 
HETATM   30  C10   D T  91      11.782   1.430   2.932  1.00 44.99     0.024 A 
HETATM   31  C9    D T  91      11.049   0.880   1.943  1.00 47.90     0.114 A 
HETATM   32  O13   D T  91      10.390   1.840   1.094  1.00 44.76    -0.309 OA
BRANCH  31  33
HETATM   33  C8    D T  91      10.925  -0.611   1.739  1.00 53.94     0.341 C 
BRANCH  33  34
HETATM   34  N7    D T  91      11.714  -1.311   2.756  1.00 60.98     0.347 N 
BRANCH  34  35
HETATM   35  C6    D T  91      12.795  -2.067   2.106  1.00 65.50     0.308 C 
BRANCH  35  36
HETATM   36  C5    D T  91      12.620  -3.560   2.407  1.00 70.88     0.161 C 
BRANCH  36  37
HETATM   37  S2    D T  91      11.681  -4.344   1.067  1.00 75.43     0.173 S 
HETATM   38  C1    D T  91      11.965  -3.466  -0.445  1.00 73.29     0.140 C 
HETATM   39  O3    D T  91      12.110  -5.717   0.914  1.00 74.33    -0.226 OA
HETATM   40  O4    D T  91      10.271  -4.310   1.385  1.00 74.26    -0.226 OA
ENDBRANCH  36  37
ENDBRANCH  35  36
ENDBRANCH  34  35
ENDBRANCH  33  34
ENDBRANCH  31  33
ENDBRANCH   1  28
TORSDOF 11
ENDMDL
MODEL 4
REMARK VINA RESULT:    -8.812      5.790      9.868
REMARK INTER + INTRA:         -16.056
REMARK INTER:                 -14.319
REMARK INTRA:                  -1.736
REMARK UNBOUND:                -1.577
REMARK  11 active torsions:
REMARK  status: ('A' for Active; 'I' for Inactive)
REMARK    1  A    between atoms: S2_2  and  C5_5 
REMARK    2  A    between atoms: C5_5  and  C6_6 
REMARK    3  A    between atoms: C6_6  and  N7_7 
REMARK    4  A    between atoms: N7_7  and  C8_8 
REMARK    5  A    between atoms: C8_8  and  C9_9 
REMARK    6  A    between atoms: C12_12  and  C14_14 
REMARK    7  A    between atoms: C21_21  and  N22_22 
REMARK    8  A    between atoms: N22_22  and  C23_23 
REMARK    9  A    between atoms: C26_26  and  O27_27 
REMARK   10  A    between atoms: O27_27  and  C28_28 
REMARK   11  A    between atoms: C28_28  and  C29_29 
ROOT
HETATM    1  C14   D T  91       9.711   6.478   0.492  1.00 38.14     0.023 A 
HETATM    2  C15   D T  91       9.786   6.095   1.829  1.00 35.17     0.004 A 
HETATM    3  C16   D T  91      10.165   4.815   2.154  1.00 34.68     0.019 A 
HETATM    4  C17   D T  91      10.468   3.893   1.152  1.00 33.31     0.086 A 
HETATM    5  N18   D T  91      10.849   2.611   1.495  1.00 32.08    -0.224 NA
HETATM    6  C19   D T  91      11.151   1.688   0.516  1.00 32.80     0.200 A 
HETATM    7  N20   D T  91      11.076   2.039  -0.817  1.00 33.06    -0.205 NA
HETATM    8  C21   D T  91      10.697   3.315  -1.183  1.00 33.11     0.166 A 
HETATM    9  C39   D T  91      10.389   4.258  -0.184  1.00 33.77     0.054 A 
HETATM   10  C40   D T  91      10.011   5.545  -0.524  1.00 34.65     0.006 A 
ENDROOT
BRANCH   8  11
HETATM   11  N22   D T  91      10.622   3.670  -2.529  1.00 33.98    -0.227 NA
BRANCH  11  12
HETATM   12  C23   D T  91       9.659   3.120  -3.393  1.00 33.25     0.084 A 
HETATM   13  C24   D T  91       9.992   2.040  -4.215  1.00 31.98     0.021 A 
HETATM   14  C25   D T  91       9.033   1.502  -5.069  1.00 31.39     0.027 A 
HETATM   15  C26   D T  91       7.753   2.042  -5.097  1.00 32.78     0.105 A 
HETATM   16  C36   D T  91       7.435   3.099  -4.294  1.00 33.04     0.082 A 
HETATM   17 CL3    D T  91       5.867   3.731  -4.357  1.00 34.74    -0.080 Cl
HETATM   18  C38   D T  91       8.370   3.644  -3.442  1.00 32.28     0.033 A 
BRANCH  15  19
HETATM   19  O27   D T  91       6.750   1.512  -5.950  1.00 32.72    -0.325 OA
BRANCH  19  20
HETATM   20  C28   D T  91       7.117   1.514  -7.336  1.00 34.20     0.175 C 
BRANCH  20  21
HETATM   21  C29   D T  91       6.418   2.648  -8.113  1.00 33.41     0.010 A 
HETATM   22  C30   D T  91       6.793   3.954  -7.886  1.00 32.49    -0.002 A 
HETATM   23  C31   D T  91       6.180   4.978  -8.580  1.00 32.79     0.002 A 
HETATM   24  C32   D T  91       5.193   4.695  -9.500  1.00 32.60     0.030 A 
HETATM   25  C33   D T  91       4.816   3.394  -9.731  1.00 33.26     0.140 A 
HETATM   26  F34   D T  91       3.879   3.131 -10.613  1.00 33.03    -0.204 F 
HETATM   27  C35   D T  91       5.420   2.365  -9.042  1.00 33.74     0.028 A 
ENDBRANCH  20  21
ENDBRANCH  19  20
ENDBRANCH  15  19
ENDBRANCH  11  12
ENDBRANCH   8  11
BRANCH   1  28
HETATM   28  C12   D T  91       9.338   7.852   0.146  1.00 40.70     0.100 A 
HETATM   29  C11   D T  91       8.999   8.796   1.083  1.00 42.97     0.026 A 
HETATM   30  C10   D T  91       8.759   9.903   0.462  1.00 44.99     0.024 A 
HETATM   31  C9    D T  91       8.935   9.673  -0.855  1.00 47.90     0.114 A 
HETATM   32  O13   D T  91       9.317   8.319  -1.171  1.00 44.76    -0.309 OA
BRANCH  31  33
HETATM   33  C8    D T  91       8.750  10.736  -1.910  1.00 53.94     0.341 C 
BRANCH  33  34
HETATM   34  N7    D T  91       7.408  11.313  -1.792  1.00 60.98     0.347 N 
BRANCH  34  35
HETATM   35  C6    D T  91       7.511  12.774  -1.660  1.00 65.50     0.308 C 
BRANCH  35  36
HETATM   36  C5    D T  91       6.131  13.349  -1.316  1.00 70.88     0.161 C 
BRANCH  36  37
HETATM   37  S2    D T  91       6.327  15.002  -0.594  1.00 75.43     0.173 S 
HETATM   38  C1    D T  91       7.509  15.923  -1.538  1.00 73.29     0.140 C 
HETATM   39  O3    D T  91       5.055  15.692  -0.611  1.00 74.33    -0.226 OA
HETATM   40  O4    D T  91       6.792  14.879   0.770  1.00 74.26    -0.226 OA
ENDBRANCH  36  37
ENDBRANCH  35  36
ENDBRANCH  34  35
ENDBRANCH  33  34
ENDBRANCH  31  33
ENDBRANCH   1  28
TORSDOF 11
ENDMDL
MODEL 5
REMARK VINA RESULT:    -8.768      5.124      8.737
REMARK INTER + INTRA:         -15.983
REMARK INTER:                 -14.364
REMARK INTRA:                  -1.619
REMARK UNBOUND:                -1.577
REMARK  11 active torsions:
REMARK  status: ('A' for Active; 'I' for Inactive)
REMARK    1  A    between atoms: S2_2  and  C5_5 
REMARK    2  A    between atoms: C5_5  and  C6_6 
REMARK    3  A    between atoms: C6_6  and  N7_7 
REMARK    4  A    between atoms: N7_7  and  C8_8 
REMARK    5  A    between atoms: C8_8  and  C9_9 
REMARK    6  A    between atoms: C12_12  and  C14_14 
REMARK    7  A    between atoms: C21_21  and  N22_22 
REMARK    8  A    between atoms: N22_22  and  C23_23 
REMARK    9  A    between atoms: C26_26  and  O27_27 
REMARK   10  A    between atoms: O27_27  and  C28_28 
REMARK   11  A    between atoms: C28_28  and  C29_29 
ROOT
HETATM    1  C14   D T  91      10.125   6.206   0.670  1.00 38.14     0.023 A 
HETATM    2  C15   D T  91      11.137   5.682   1.471  1.00 35.17     0.004 A 
HETATM    3  C16   D T  91      11.342   4.324   1.511  1.00 34.68     0.019 A 
HETATM    4  C17   D T  91      10.539   3.466   0.760  1.00 33.31     0.086 A 
HETATM    5  N18   D T  91      10.760   2.104   0.810  1.00 32.08    -0.224 NA
HETATM    6  C19   D T  91       9.974   1.243   0.073  1.00 32.80     0.200 A 
HETATM    7  N20   D T  91       8.959   1.736  -0.721  1.00 33.06    -0.205 NA
HETATM    8  C21   D T  91       8.720   3.094  -0.786  1.00 33.11     0.166 A 
HETATM    9  C39   D T  91       9.523   3.973  -0.035  1.00 33.77     0.054 A 
HETATM   10  C40   D T  91       9.307   5.340  -0.086  1.00 34.65     0.006 A 
ENDROOT
BRANCH   8  11
HETATM   11  N22   D T  91       7.695   3.593  -1.589  1.00 33.98    -0.227 NA
BRANCH  11  12
HETATM   12  C23   D T  91       7.791   3.616  -2.992  1.00 33.25     0.084 A 
HETATM   13  C24   D T  91       8.807   4.348  -3.611  1.00 31.98     0.021 A 
HETATM   14  C25   D T  91       8.895   4.368  -5.000  1.00 31.39     0.027 A 
HETATM   15  C26   D T  91       7.971   3.659  -5.760  1.00 32.78     0.105 A 
HETATM   16  C36   D T  91       6.980   2.947  -5.149  1.00 33.04     0.082 A 
HETATM   17 CL3    D T  91       5.874   2.098  -6.106  1.00 34.74    -0.080 Cl
HETATM   18  C38   D T  91       6.878   2.916  -3.775  1.00 32.28     0.033 A 
BRANCH  15  19
HETATM   19  O27   D T  91       8.037   3.651  -7.177  1.00 32.72    -0.325 OA
BRANCH  19  20
HETATM   20  C28   D T  91       7.599   4.877  -7.779  1.00 34.20     0.175 C 
BRANCH  20  21
HETATM   21  C29   D T  91       6.207   4.735  -8.424  1.00 33.41     0.010 A 
HETATM   22  C30   D T  91       6.010   3.791  -9.409  1.00 32.49    -0.002 A 
HETATM   23  C31   D T  91       4.767   3.650  -9.989  1.00 32.79     0.002 A 
HETATM   24  C32   D T  91       3.719   4.450  -9.585  1.00 32.60     0.030 A 
HETATM   25  C33   D T  91       3.909   5.391  -8.602  1.00 33.26     0.140 A 
HETATM   26  F34   D T  91       2.906   6.147  -8.217  1.00 33.03    -0.204 F 
HETATM   27  C35   D T  91       5.147   5.543  -8.018  1.00 33.74     0.028 A 
ENDBRANCH  20  21
ENDBRANCH  19  20
ENDBRANCH  15  19
ENDBRANCH  11  12
ENDBRANCH   8  11
BRANCH   1  28
HETATM   28  C12   D T  91       9.926   7.657   0.602  1.00 40.70     0.100 A 
HETATM   29  C11   D T  91       8.778   8.277   1.028  1.00 42.97     0.026 A 
HETATM   30  C10   D T  91       8.933   9.550   0.868  1.00 44.99     0.024 A 
HETATM   31  C9    D T  91      10.158   9.744   0.340  1.00 47.90     0.114 A 
HETATM   32  O13   D T  91      10.903   8.530   0.116  1.00 44.76    -0.309 OA
BRANCH  31  33
HETATM   33  C8    D T  91      10.709  11.111   0.012  1.00 53.94     0.341 C 
BRANCH  33  34
HETATM   34  N7    D T  91      10.326  11.476  -1.354  1.00 60.98     0.347 N 
BRANCH  34  35
HETATM   35  C6    D T  91       8.886  11.773  -1.399  1.00 65.50     0.308 C 
BRANCH  35  36
HETATM   36  C5    D T  91       8.257  11.049  -2.595  1.00 70.88     0.161 C 
BRANCH  36  37
HETATM   37  S2    D T  91       6.668  11.825  -3.006  1.00 75.43     0.173 S 
HETATM   38  C1    D T  91       6.064  11.158  -4.532  1.00 73.29     0.140 C 
HETATM   39  O3    D T  91       5.712  11.559  -1.954  1.00 74.33    -0.226 OA
HETATM   40  O4    D T  91       6.853  13.252  -3.144  1.00 74.26    -0.226 OA
ENDBRANCH  36  37
ENDBRANCH  35  36
ENDBRANCH  34  35
ENDBRANCH  33  34
ENDBRANCH  31  33
ENDBRANCH   1  28
TORSDOF 11
ENDMDL
MODEL 6
REMARK VINA RESULT:    -8.750      2.430      3.281
REMARK INTER + INTRA:         -15.954
REMARK INTER:                 -14.384
REMARK INTRA:                  -1.570
REMARK UNBOUND:                -1.577
REMARK  11 active torsions:
REMARK  status: ('A' for Active; 'I' for Inactive)
REMARK    1  A    between atoms: S2_2  and  C5_5 
REMARK    2  A    between atoms: C5_5  and  C6_6 
REMARK    3  A    between atoms: C6_6  and  N7_7 
REMARK    4  A    between atoms: N7_7  and  C8_8 
REMARK    5  A    between atoms: C8_8  and  C9_9 
REMARK    6  A    between atoms: C12_12  and  C14_14 
REMARK    7  A    between atoms: C21_21  and  N22_22 
REMARK    8  A    between atoms: N22_22  and  C23_23 
REMARK    9  A    between atoms: C26_26  and  O27_27 
REMARK   10  A    between atoms: O27_27  and  C28_28 
REMARK   11  A    between atoms: C28_28  and  C29_29 
ROOT
HETATM    1  C14   D T  91      12.395   3.428   0.752  1.00 38.14     0.023 A 
HETATM    2  C15   D T  91      13.786   3.500   0.756  1.00 35.17     0.004 A 
HETATM    3  C16   D T  91      14.416   4.586   0.198  1.00 34.68     0.019 A 
HETATM    4  C17   D T  91      13.671   5.614  -0.380  1.00 33.31     0.086 A 
HETATM    5  N18   D T  91      14.320   6.699  -0.936  1.00 32.08    -0.224 NA
HETATM    6  C19   D T  91      13.598   7.723  -1.512  1.00 32.80     0.200 A 
HETATM    7  N20   D T  91      12.219   7.672  -1.538  1.00 33.06    -0.205 NA
HETATM    8  C21   D T  91      11.550   6.596  -0.989  1.00 33.11     0.166 A 
HETATM    9  C39   D T  91      12.286   5.551  -0.400  1.00 33.77     0.054 A 
HETATM   10  C40   D T  91      11.639   4.464   0.162  1.00 34.65     0.006 A 
ENDROOT
BRANCH   8  11
HETATM   11  N22   D T  91      10.156   6.544  -1.013  1.00 33.98    -0.227 NA
BRANCH  11  12
HETATM   12  C23   D T  91       9.459   5.620  -1.811  1.00 33.25     0.084 A 
HETATM   13  C24   D T  91       8.353   4.942  -1.291  1.00 31.98     0.021 A 
HETATM   14  C25   D T  91       7.668   4.028  -2.086  1.00 31.39     0.027 A 
HETATM   15  C26   D T  91       8.090   3.797  -3.391  1.00 32.78     0.105 A 
HETATM   16  C36   D T  91       9.171   4.460  -3.891  1.00 33.04     0.082 A 
HETATM   17 CL3    D T  91       9.656   4.152  -5.483  1.00 34.74    -0.080 Cl
HETATM   18  C38   D T  91       9.861   5.369  -3.119  1.00 32.28     0.033 A 
BRANCH  15  19
HETATM   19  O27   D T  91       7.409   2.878  -4.231  1.00 32.72    -0.325 OA
BRANCH  19  20
HETATM   20  C28   D T  91       6.181   3.391  -4.767  1.00 34.20     0.175 C 
BRANCH  20  21
HETATM   21  C29   D T  91       6.094   3.194  -6.293  1.00 33.41     0.010 A 
HETATM   22  C30   D T  91       6.098   1.917  -6.812  1.00 32.49    -0.002 A 
HETATM   23  C31   D T  91       6.014   1.728  -8.176  1.00 32.79     0.002 A 
HETATM   24  C32   D T  91       5.925   2.813  -9.021  1.00 32.60     0.030 A 
HETATM   25  C33   D T  91       5.919   4.088  -8.509  1.00 33.26     0.140 A 
HETATM   26  F34   D T  91       5.828   5.118  -9.319  1.00 33.03    -0.204 F 
HETATM   27  C35   D T  91       6.006   4.289  -7.149  1.00 33.74     0.028 A 
ENDBRANCH  20  21
ENDBRANCH  19  20
ENDBRANCH  15  19
ENDBRANCH  11  12
ENDBRANCH   8  11
BRANCH   1  28
HETATM   28  C12   D T  91      11.722   2.286   1.376  1.00 40.70     0.100 A 
HETATM   29  C11   D T  91      10.564   1.737   0.884  1.00 42.97     0.026 A 
HETATM   30  C10   D T  91      10.252   0.732   1.634  1.00 44.99     0.024 A 
HETATM   31  C9    D T  91      11.191   0.641   2.597  1.00 47.90     0.114 A 
HETATM   32  O13   D T  91      12.219   1.647   2.515  1.00 44.76    -0.309 OA
BRANCH  31  33
HETATM   33  C8    D T  91      11.172  -0.421   3.670  1.00 53.94     0.341 C 
BRANCH  33  34
HETATM   34  N7    D T  91      10.791  -1.706   3.078  1.00 60.98     0.347 N 
BRANCH  34  35
HETATM   35  C6    D T  91      11.999  -2.499   2.804  1.00 65.50     0.308 C 
BRANCH  35  36
HETATM   36  C5    D T  91      12.234  -2.557   1.290  1.00 70.88     0.161 C 
BRANCH  36  37
HETATM   37  S2    D T  91      11.558  -4.107   0.630  1.00 75.43     0.173 S 
HETATM   38  C1    D T  91      12.503  -5.473   1.246  1.00 73.29     0.140 C 
HETATM   39  O3    D T  91      10.179  -4.250   1.046  1.00 74.33    -0.226 OA
HETATM   40  O4    D T  91      11.628  -4.085  -0.814  1.00 74.26    -0.226 OA
ENDBRANCH  36  37
ENDBRANCH  35  36
ENDBRANCH  34  35
ENDBRANCH  33  34
ENDBRANCH  31  33
ENDBRANCH   1  28
TORSDOF 11
ENDMDL
MODEL 7
REMARK VINA RESULT:    -8.748      4.753      8.305
REMARK INTER + INTRA:         -15.951
REMARK INTER:                 -13.976
REMARK INTRA:                  -1.975
REMARK UNBOUND:                -1.577
REMARK  11 active torsions:
REMARK  status: ('A' for Active; 'I' for Inactive)
REMARK    1  A    between atoms: S2_2  and  C5_5 
REMARK    2  A    between atoms: C5_5  and  C6_6 
REMARK    3  A    between atoms: C6_6  and  N7_7 
REMARK    4  A    between atoms: N7_7  and  C8_8 
REMARK    5  A    between atoms: C8_8  and  C9_9 
REMARK    6  A    between atoms: C12_12  and  C14_14 
REMARK    7  A    between atoms: C21_21  and  N22_22 
REMARK    8  A    between atoms: N22_22  and  C23_23 
REMARK    9  A    between atoms: C26_26  and  O27_27 
REMARK   10  A    between atoms: O27_27  and  C28_28 
REMARK   11  A    between atoms: C28_28  and  C29_29 
ROOT
HETATM    1  C14   D T  91       9.862   5.621  -0.041  1.00 38.14     0.023 A 
HETATM    2  C15   D T  91       9.825   5.343   1.323  1.00 35.17     0.004 A 
HETATM    3  C16   D T  91      10.094   4.072   1.770  1.00 34.68     0.019 A 
HETATM    4  C17   D T  91      10.397   3.055   0.865  1.00 33.31     0.086 A 
HETATM    5  N18   D T  91      10.667   1.784   1.330  1.00 32.08    -0.224 NA
HETATM    6  C19   D T  91      10.968   0.768   0.448  1.00 32.80     0.200 A 
HETATM    7  N20   D T  91      11.003   1.013  -0.910  1.00 33.06    -0.205 NA
HETATM    8  C21   D T  91      10.736   2.277  -1.397  1.00 33.11     0.166 A 
HETATM    9  C39   D T  91      10.429   3.315  -0.497  1.00 33.77     0.054 A 
HETATM   10  C40   D T  91      10.163   4.592  -0.960  1.00 34.65     0.006 A 
ENDROOT
BRANCH   8  11
HETATM   11  N22   D T  91      10.772   2.527  -2.769  1.00 33.98    -0.227 NA
BRANCH  11  12
HETATM   12  C23   D T  91       9.695   2.207  -3.614  1.00 33.25     0.084 A 
HETATM   13  C24   D T  91       9.791   1.122  -4.489  1.00 31.98     0.021 A 
HETATM   14  C25   D T  91       8.721   0.812  -5.324  1.00 31.39     0.027 A 
HETATM   15  C26   D T  91       7.566   1.584  -5.279  1.00 32.78     0.105 A 
HETATM   16  C36   D T  91       7.479   2.644  -4.424  1.00 33.04     0.082 A 
HETATM   17 CL3    D T  91       6.058   3.561  -4.399  1.00 34.74    -0.080 Cl
HETATM   18  C38   D T  91       8.528   2.964  -3.591  1.00 32.28     0.033 A 
BRANCH  15  19
HETATM   19  O27   D T  91       6.453   1.290  -6.111  1.00 32.72    -0.325 OA
BRANCH  19  20
HETATM   20  C28   D T  91       6.767   1.295  -7.510  1.00 34.20     0.175 C 
BRANCH  20  21
HETATM   21  C29   D T  91       6.147   2.507  -8.233  1.00 33.41     0.010 A 
HETATM   22  C30   D T  91       6.546   3.780  -7.885  1.00 32.49    -0.002 A 
HETATM   23  C31   D T  91       6.002   4.872  -8.529  1.00 32.79     0.002 A 
HETATM   24  C32   D T  91       5.062   4.694  -9.521  1.00 32.60     0.030 A 
HETATM   25  C33   D T  91       4.662   3.428  -9.874  1.00 33.26     0.140 A 
HETATM   26  F34   D T  91       3.771   3.263 -10.824  1.00 33.03    -0.204 F 
HETATM   27  C35   D T  91       5.196   2.330  -9.235  1.00 33.74     0.028 A 
ENDBRANCH  20  21
ENDBRANCH  19  20
ENDBRANCH  15  19
ENDBRANCH  11  12
ENDBRANCH   8  11
BRANCH   1  28
HETATM   28  C12   D T  91       9.606   6.983  -0.516  1.00 40.70     0.100 A 
HETATM   29  C11   D T  91       9.737   7.357  -1.830  1.00 42.97     0.026 A 
HETATM   30  C10   D T  91       9.408   8.603  -1.922  1.00 44.99     0.024 A 
HETATM   31  C9    D T  91       9.077   9.025  -0.685  1.00 47.90     0.114 A 
HETATM   32  O13   D T  91       9.186   8.011   0.333  1.00 44.76    -0.309 OA
BRANCH  31  33
HETATM   33  C8    D T  91       8.629  10.436  -0.386  1.00 53.94     0.341 C 
BRANCH  33  34
HETATM   34  N7    D T  91       9.331  11.369  -1.272  1.00 60.98     0.347 N 
BRANCH  34  35
HETATM   35  C6    D T  91      10.518  11.899  -0.587  1.00 65.50     0.308 C 
BRANCH  35  36
HETATM   36  C5    D T  91      11.773  11.527  -1.386  1.00 70.88     0.161 C 
BRANCH  36  37
HETATM   37  S2    D T  91      12.926  10.620  -0.317  1.00 75.43     0.173 S 
HETATM   38  C1    D T  91      14.429  10.308  -1.201  1.00 73.29     0.140 C 
HETATM   39  O3    D T  91      13.216  11.408   0.861  1.00 74.33    -0.226 OA
HETATM   40  O4    D T  91      12.329   9.363   0.076  1.00 74.26    -0.226 OA
ENDBRANCH  36  37
ENDBRANCH  35  36
ENDBRANCH  34  35
ENDBRANCH  33  34
ENDBRANCH  31  33
ENDBRANCH   1  28
TORSDOF 11
ENDMDL
MODEL 8
REMARK VINA RESULT:    -8.600      3.970      6.729
REMARK INTER + INTRA:         -15.707
REMARK INTER:                 -12.942
REMARK INTRA:                  -2.766
REMARK UNBOUND:                -1.577
REMARK  11 active torsions:
REMARK  status: ('A' for Active; 'I' for Inactive)
REMARK    1  A    between atoms: S2_2  and  C5_5 
REMARK    2  A    between atoms: C5_5  and  C6_6 
REMARK    3  A    between atoms: C6_6  and  N7_7 
REMARK    4  A    between atoms: N7_7  and  C8_8 
REMARK    5  A    between atoms: C8_8  and  C9_9 
REMARK    6  A    between atoms: C12_12  and  C14_14 
REMARK    7  A    between atoms: C21_21  and  N22_22 
REMARK    8  A    between atoms: N22_22  and  C23_23 
REMARK    9  A    between atoms: C26_26  and  O27_27 
REMARK   10  A    between atoms: O27_27  and  C28_28 
REMARK   11  A    between atoms: C28_28  and  C29_29 
ROOT
HETATM    1  C14   D T  91      11.087   3.090   1.713  1.00 38.14     0.023 A 
HETATM    2  C15   D T  91      11.230   2.267   2.827  1.00 35.17     0.004 A 
HETATM    3  C16   D T  91      11.509   0.932   2.660  1.00 34.68     0.019 A 
HETATM    4  C17   D T  91      11.642   0.394   1.380  1.00 33.31     0.086 A 
HETATM    5  N18   D T  91      11.923  -0.949   1.229  1.00 32.08    -0.224 NA
HETATM    6  C19   D T  91      12.057  -1.496  -0.030  1.00 32.80     0.200 A 
HETATM    7  N20   D T  91      11.911  -0.704  -1.151  1.00 33.06    -0.205 NA
HETATM    8  C21   D T  91      11.629   0.641  -1.023  1.00 33.11     0.166 A 
HETATM    9  C39   D T  91      11.493   1.200   0.261  1.00 33.77     0.054 A 
HETATM   10  C40   D T  91      11.215   2.547   0.416  1.00 34.65     0.006 A 
ENDROOT
BRANCH   8  11
HETATM   11  N22   D T  91      11.482   1.442  -2.155  1.00 33.98    -0.227 NA
BRANCH  11  12
HETATM   12  C23   D T  91      10.342   1.374  -2.975  1.00 33.25     0.084 A 
HETATM   13  C24   D T  91      10.314   0.497  -4.063  1.00 31.98     0.021 A 
HETATM   14  C25   D T  91       9.182   0.436  -4.871  1.00 31.39     0.027 A 
HETATM   15  C26   D T  91       8.089   1.247  -4.589  1.00 32.78     0.105 A 
HETATM   16  C36   D T  91       8.124   2.103  -3.527  1.00 33.04     0.082 A 
HETATM   17 CL3    D T  91       6.775   3.076  -3.216  1.00 34.74    -0.080 Cl
HETATM   18  C38   D T  91       9.235   2.176  -2.716  1.00 32.28     0.033 A 
BRANCH  15  19
HETATM   19  O27   D T  91       6.917   1.203  -5.387  1.00 32.72    -0.325 OA
BRANCH  19  20
HETATM   20  C28   D T  91       7.181   1.006  -6.783  1.00 34.20     0.175 C 
BRANCH  20  21
HETATM   21  C29   D T  91       6.687   2.192  -7.634  1.00 33.41     0.010 A 
HETATM   22  C30   D T  91       5.754   1.973  -8.624  1.00 32.49    -0.002 A 
HETATM   23  C31   D T  91       5.300   3.028  -9.389  1.00 32.79     0.002 A 
HETATM   24  C32   D T  91       5.777   4.302  -9.163  1.00 32.60     0.030 A 
HETATM   25  C33   D T  91       6.706   4.526  -8.177  1.00 33.26     0.140 A 
HETATM   26  F34   D T  91       7.152   5.743  -7.962  1.00 33.03    -0.204 F 
HETATM   27  C35   D T  91       7.169   3.480  -7.409  1.00 33.74     0.028 A 
ENDBRANCH  20  21
ENDBRANCH  19  20
ENDBRANCH  15  19
ENDBRANCH  11  12
ENDBRANCH   8  11
BRANCH   1  28
HETATM   28  C12   D T  91      10.822   4.520   1.892  1.00 40.70     0.100 A 
HETATM   29  C11   D T  91       9.822   5.003   2.699  1.00 42.97     0.026 A 
HETATM   30  C10   D T  91       9.875   6.293   2.667  1.00 44.99     0.024 A 
HETATM   31  C9    D T  91      10.889   6.635   1.847  1.00 47.90     0.114 A 
HETATM   32  O13   D T  91      11.584   5.512   1.269  1.00 44.76    -0.309 OA
BRANCH  31  33
HETATM   33  C8    D T  91      11.269   8.067   1.557  1.00 53.94     0.341 C 
BRANCH  33  34
HETATM   34  N7    D T  91      11.493   8.232   0.119  1.00 60.98     0.347 N 
BRANCH  34  35
HETATM   35  C6    D T  91      10.206   8.171  -0.589  1.00 65.50     0.308 C 
BRANCH  35  36
HETATM   36  C5    D T  91      10.436   7.655  -2.015  1.00 70.88     0.161 C 
BRANCH  36  37
HETATM   37  S2    D T  91       9.927   5.916  -2.121  1.00 75.43     0.173 S 
HETATM   38  C1    D T  91       8.582   5.626  -1.006  1.00 73.29     0.140 C 
HETATM   39  O3    D T  91       9.504   5.617  -3.472  1.00 74.33    -0.226 OA
HETATM   40  O4    D T  91      11.041   5.067  -1.763  1.00 74.26    -0.226 OA
ENDBRANCH  36  37
ENDBRANCH  35  36
ENDBRANCH  34  35
ENDBRANCH  33  34
ENDBRANCH  31  33
ENDBRANCH   1  28
TORSDOF 11
ENDMDL
MODEL 9
REMARK VINA RESULT:    -8.532      4.861      8.563
REMARK INTER + INTRA:         -15.596
REMARK INTER:                 -13.513
REMARK INTRA:                  -2.083
REMARK UNBOUND:                -1.577
REMARK  11 active torsions:
REMARK  status: ('A' for Active; 'I' for Inactive)
REMARK    1  A    between atoms: S2_2  and  C5_5 
REMARK    2  A    between atoms: C5_5  and  C6_6 
REMARK    3  A    between atoms: C6_6  and  N7_7 
REMARK    4  A    between atoms: N7_7  and  C8_8 
REMARK    5  A    between atoms: C8_8  and  C9_9 
REMARK    6  A    between atoms: C12_12  and  C14_14 
REMARK    7  A    between atoms: C21_21  and  N22_22 
REMARK    8  A    between atoms: N22_22  and  C23_23 
REMARK    9  A    between atoms: C26_26  and  O27_27 
REMARK   10  A    between atoms: O27_27  and  C28_28 
REMARK   11  A    between atoms: C28_28  and  C29_29 
ROOT
HETATM    1  C14   D T  91      10.274   6.070   0.178  1.00 38.14     0.023 A 
HETATM    2  C15   D T  91      10.174   5.837   1.548  1.00 35.17     0.004 A 
HETATM    3  C16   D T  91      10.249   4.553   2.030  1.00 34.68     0.019 A 
HETATM    4  C17   D T  91      10.415   3.480   1.156  1.00 33.31     0.086 A 
HETATM    5  N18   D T  91      10.490   2.195   1.657  1.00 32.08    -0.224 NA
HETATM    6  C19   D T  91      10.654   1.123   0.805  1.00 32.80     0.200 A 
HETATM    7  N20   D T  91      10.746   1.325  -0.556  1.00 33.06    -0.205 NA
HETATM    8  C21   D T  91      10.673   2.601  -1.079  1.00 33.11     0.166 A 
HETATM    9  C39   D T  91      10.507   3.695  -0.210  1.00 33.77     0.054 A 
HETATM   10  C40   D T  91      10.436   4.985  -0.709  1.00 34.65     0.006 A 
ENDROOT
BRANCH   8  11
HETATM   11  N22   D T  91      10.767   2.806  -2.456  1.00 33.98    -0.227 NA
BRANCH  11  12
HETATM   12  C23   D T  91       9.745   2.415  -3.339  1.00 33.25     0.084 A 
HETATM   13  C24   D T  91       9.935   1.322  -4.188  1.00 31.98     0.021 A 
HETATM   14  C25   D T  91       8.920   0.942  -5.061  1.00 31.39     0.027 A 
HETATM   15  C26   D T  91       7.726   1.653  -5.082  1.00 32.78     0.105 A 
HETATM   16  C36   D T  91       7.548   2.722  -4.252  1.00 33.04     0.082 A 
HETATM   17 CL3    D T  91       6.082   3.564  -4.306  1.00 34.74    -0.080 Cl
HETATM   18  C38   D T  91       8.541   3.111  -3.381  1.00 32.28     0.033 A 
BRANCH  15  19
HETATM   19  O27   D T  91       6.668   1.287  -5.954  1.00 32.72    -0.325 OA
BRANCH  19  20
HETATM   20  C28   D T  91       7.031   1.321  -7.341  1.00 34.20     0.175 C 
BRANCH  20  21
HETATM   21  C29   D T  91       6.390   2.516  -8.074  1.00 33.41     0.010 A 
HETATM   22  C30   D T  91       6.793   3.796  -7.759  1.00 32.49    -0.002 A 
HETATM   23  C31   D T  91       6.232   4.875  -8.412  1.00 32.79     0.002 A 
HETATM   24  C32   D T  91       5.271   4.674  -9.380  1.00 32.60     0.030 A 
HETATM   25  C33   D T  91       4.867   3.400  -9.699  1.00 33.26     0.140 A 
HETATM   26  F34   D T  91       3.955   3.214 -10.625  1.00 33.03    -0.204 F 
HETATM   27  C35   D T  91       5.418   2.316  -9.051  1.00 33.74     0.028 A 
ENDBRANCH  20  21
ENDBRANCH  19  20
ENDBRANCH  15  19
ENDBRANCH  11  12
ENDBRANCH   8  11
BRANCH   1  28
HETATM   28  C12   D T  91      10.226   7.443  -0.334  1.00 40.70     0.100 A 
HETATM   29  C11   D T  91       9.146   7.955  -1.007  1.00 42.97     0.026 A 
HETATM   30  C10   D T  91       9.404   9.189  -1.290  1.00 44.99     0.024 A 
HETATM   31  C9    D T  91      10.635   9.464  -0.811  1.00 47.90     0.114 A 
HETATM   32  O13   D T  91      11.275   8.350  -0.158  1.00 44.76    -0.309 OA
BRANCH  31  33
HETATM   33  C8    D T  91      11.289  10.818  -0.944  1.00 53.94     0.341 C 
BRANCH  33  34
HETATM   34  N7    D T  91      10.745  11.725   0.070  1.00 60.98     0.347 N 
BRANCH  34  35
HETATM   35  C6    D T  91      11.402  11.471   1.360  1.00 65.50     0.308 C 
BRANCH  35  36
HETATM   36  C5    D T  91      10.479  11.926   2.497  1.00 70.88     0.161 C 
BRANCH  36  37
HETATM   37  S2    D T  91      10.024  10.496   3.518  1.00 75.43     0.173 S 
HETATM   38  C1    D T  91       8.974   9.416   2.587  1.00 73.29     0.140 C 
HETATM   39  O3    D T  91      11.219   9.783   3.912  1.00 74.33    -0.226 OA
HETATM   40  O4    D T  91       9.321  10.952   4.697  1.00 74.26    -0.226 OA
ENDBRANCH  36  37
ENDBRANCH  35  36
ENDBRANCH  34  35
ENDBRANCH  33  34
ENDBRANCH  31  33
ENDBRANCH   1  28
TORSDOF 11
ENDMDL
