MODEL 1
REMARK VINA RESULT:    -7.684      0.000      0.000
REMARK INTER + INTRA:         -11.853
REMARK INTER:                 -10.379
REMARK INTRA:                  -1.474
REMARK UNBOUND:                -1.474
REMARK  6 active torsions:
REMARK  status: ('A' for Active; 'I' for Inactive)
REMARK    1  A    between atoms: NBC_2  and  CBB_4 
REMARK    2  A    between atoms: CBB_4  and  CBA_5 
REMARK    3  A    between atoms: CBA_5  and  CAY_6 
REMARK    4  A    between atoms: CAY_6  and  NAH_7 
REMARK    5  A    between atoms: CAG_15  and  CAI_16 
REMARK    6  A    between atoms: CAJ_22  and  CAK_23 
ROOT
HETATM    1  CAI   D T1001      -5.291  -3.905  -5.904  1.00 35.40     0.064 A 
HETATM    2  CAT   D T1001      -3.930  -3.950  -5.303  1.00 36.13     0.282 A 
HETATM    3  OAZ   D T1001      -3.378  -2.958  -4.704  1.00 33.53    -0.265 OA
HETATM    4  NAU   D T1001      -3.266  -5.106  -5.522  1.00 33.87    -0.169 NA
HETATM    5  CAV   D T1001      -4.133  -5.898  -6.169  1.00 34.90     0.282 A 
HETATM    6  OAX   D T1001      -3.808  -7.083  -6.510  1.00 35.00    -0.265 OA
HETATM    7  CAJ   D T1001      -5.440  -5.265  -6.451  1.00 32.88     0.064 A 
ENDROOT
BRANCH   1   8
HETATM    8  CAG   D T1001      -6.286  -2.789  -5.720  1.00 35.34     0.023 A 
HETATM    9  CAW   D T1001      -6.048  -1.546  -6.259  1.00 34.78     0.076 A 
HETATM   10  NAH   D T1001      -7.172  -0.818  -5.981  1.00 36.88    -0.326 N 
HETATM   11  CAE   D T1001      -8.085  -1.560  -5.341  1.00 36.88     0.060 A 
HETATM   12  CAF   D T1001      -9.377  -1.298  -4.875  1.00 37.02     0.017 A 
HETATM   13  CAD   D T1001      -7.566  -2.849  -5.191  1.00 36.79     0.017 A 
HETATM   14  CAA   D T1001     -10.103  -2.285  -4.239  1.00 37.13     0.002 A 
HETATM   15  CAB   D T1001      -9.564  -3.572  -4.066  1.00 38.67     0.000 A 
HETATM   16  CAC   D T1001      -8.276  -3.855  -4.527  1.00 38.70     0.002 A 
BRANCH  10  17
HETATM   17  CAY   D T1001      -7.343   0.567  -6.376  1.00 39.32     0.108 C 
BRANCH  17  18
HETATM   18  CBA   D T1001      -7.460   0.709  -7.874  1.00 40.15     0.048 C 
BRANCH  18  19
HETATM   19  CBB   D T1001      -8.937   0.465  -8.139  1.00 46.58     0.099 C 
BRANCH  19  20
HETATM   20  NBC   D T1001      -9.116  -0.675  -9.034  1.00 44.62    -0.365 N 
HETATM   21  CBD   D T1001      -8.144  -0.786 -10.115  1.00 48.91     0.121 C 
HETATM   22  CBE   D T1001     -10.145  -1.690  -8.870  1.00 49.55     0.121 C 
ENDBRANCH  19  20
ENDBRANCH  18  19
ENDBRANCH  17  18
ENDBRANCH  10  17
ENDBRANCH   1   8
BRANCH   7  23
HETATM   23  CAK   D T1001      -6.592  -5.939  -7.134  1.00 34.11     0.025 A 
HETATM   24  CAM   D T1001      -7.058  -7.254  -6.935  1.00 33.58     0.019 A 
HETATM   25  CAP   D T1001      -6.667  -8.298  -6.086  1.00 31.36     0.002 A 
HETATM   26  CAN   D T1001      -8.114  -7.367  -7.841  1.00 34.83     0.081 A 
HETATM   27  CAQ   D T1001      -7.360  -9.502  -6.146  1.00 33.71     0.000 A 
HETATM   28  CAR   D T1001      -8.423  -9.629  -7.040  1.00 32.72     0.002 A 
HETATM   29  CAS   D T1001      -8.824  -8.581  -7.888  1.00 35.56     0.019 A 
HETATM   30  NAO   D T1001      -8.259  -6.177  -8.511  1.00 33.95    -0.244 NA
HETATM   31  CAL   D T1001      -7.338  -5.264  -8.099  1.00 33.68     0.099 A 
ENDBRANCH   7  23
TORSDOF 6
ENDMDL
MODEL 2
REMARK VINA RESULT:    -7.659      4.580      7.318
REMARK INTER + INTRA:         -11.819
REMARK INTER:                 -10.192
REMARK INTRA:                  -1.627
REMARK UNBOUND:                -1.474
REMARK  6 active torsions:
REMARK  status: ('A' for Active; 'I' for Inactive)
REMARK    1  A    between atoms: NBC_2  and  CBB_4 
REMARK    2  A    between atoms: CBB_4  and  CBA_5 
REMARK    3  A    between atoms: CBA_5  and  CAY_6 
REMARK    4  A    between atoms: CAY_6  and  NAH_7 
REMARK    5  A    between atoms: CAG_15  and  CAI_16 
REMARK    6  A    between atoms: CAJ_22  and  CAK_23 
ROOT
HETATM    1  CAI   D T1001     -10.270   0.674  -6.302  1.00 35.40     0.064 A 
HETATM    2  CAT   D T1001     -11.488   0.408  -7.115  1.00 36.13     0.282 A 
HETATM    3  OAZ   D T1001     -12.336   1.311  -7.452  1.00 33.53    -0.265 OA
HETATM    4  NAU   D T1001     -11.691  -0.897  -7.398  1.00 33.87    -0.169 NA
HETATM    5  CAV   D T1001     -10.626  -1.540  -6.899  1.00 34.90     0.282 A 
HETATM    6  OAX   D T1001     -10.508  -2.804  -7.018  1.00 35.00    -0.265 OA
HETATM    7  CAJ   D T1001      -9.658  -0.663  -6.203  1.00 32.88     0.064 A 
ENDROOT
BRANCH   1   8
HETATM    8  CAG   D T1001      -9.747   2.039  -5.941  1.00 35.34     0.023 A 
HETATM    9  CAW   D T1001      -8.643   2.556  -6.577  1.00 34.78     0.076 A 
HETATM   10  NAH   D T1001      -8.503   3.820  -6.075  1.00 36.88    -0.326 N 
HETATM   11  CAE   D T1001      -9.479   4.108  -5.204  1.00 36.88     0.060 A 
HETATM   12  CAF   D T1001      -9.793   5.248  -4.458  1.00 37.02     0.017 A 
HETATM   13  CAD   D T1001     -10.325   2.998  -5.122  1.00 36.79     0.017 A 
HETATM   14  CAA   D T1001     -10.894   5.255  -3.624  1.00 37.13     0.002 A 
HETATM   15  CAB   D T1001     -11.724   4.126  -3.525  1.00 38.67     0.000 A 
HETATM   16  CAC   D T1001     -11.430   2.977  -4.263  1.00 38.70     0.002 A 
BRANCH  10  17
HETATM   17  CAY   D T1001      -7.447   4.728  -6.481  1.00 39.32     0.108 C 
BRANCH  17  18
HETATM   18  CBA   D T1001      -7.885   5.619  -7.619  1.00 40.15     0.048 C 
BRANCH  18  19
HETATM   19  CBB   D T1001      -7.143   6.920  -7.355  1.00 46.58     0.099 C 
BRANCH  19  20
HETATM   20  NBC   D T1001      -5.805   6.875  -7.939  1.00 44.62    -0.365 N 
HETATM   21  CBD   D T1001      -4.724   7.330  -7.072  1.00 48.91     0.121 C 
HETATM   22  CBE   D T1001      -5.510   6.369  -9.270  1.00 49.55     0.121 C 
ENDBRANCH  19  20
ENDBRANCH  18  19
ENDBRANCH  17  18
ENDBRANCH  10  17
ENDBRANCH   1   8
BRANCH   7  23
HETATM   23  CAK   D T1001      -8.374  -1.123  -5.582  1.00 34.11     0.025 A 
HETATM   24  CAM   D T1001      -7.099  -1.170  -6.181  1.00 33.58     0.019 A 
HETATM   25  CAP   D T1001      -6.613  -0.811  -7.445  1.00 31.36     0.002 A 
HETATM   26  CAN   D T1001      -6.287  -1.704  -5.179  1.00 34.83     0.081 A 
HETATM   27  CAQ   D T1001      -5.262  -0.993  -7.717  1.00 33.71     0.000 A 
HETATM   28  CAR   D T1001      -4.435  -1.518  -6.724  1.00 32.72     0.002 A 
HETATM   29  CAS   D T1001      -4.916  -1.873  -5.451  1.00 35.56     0.019 A 
HETATM   30  NAO   D T1001      -7.049  -1.935  -4.060  1.00 33.95    -0.244 NA
HETATM   31  CAL   D T1001      -8.347  -1.583  -4.267  1.00 33.68     0.099 A 
ENDBRANCH   7  23
TORSDOF 6
ENDMDL
MODEL 3
REMARK VINA RESULT:    -7.532      4.136      9.079
REMARK INTER + INTRA:         -11.647
REMARK INTER:                 -10.018
REMARK INTRA:                  -1.630
REMARK UNBOUND:                -1.474
REMARK  6 active torsions:
REMARK  status: ('A' for Active; 'I' for Inactive)
REMARK    1  A    between atoms: NBC_2  and  CBB_4 
REMARK    2  A    between atoms: CBB_4  and  CBA_5 
REMARK    3  A    between atoms: CBA_5  and  CAY_6 
REMARK    4  A    between atoms: CAY_6  and  NAH_7 
REMARK    5  A    between atoms: CAG_15  and  CAI_16 
REMARK    6  A    between atoms: CAJ_22  and  CAK_23 
ROOT
HETATM    1  CAI   D T1001     -10.235   1.214  -6.718  1.00 35.40     0.064 A 
HETATM    2  CAT   D T1001     -11.577   0.723  -7.135  1.00 36.13     0.282 A 
HETATM    3  OAZ   D T1001     -11.837  -0.502  -7.415  1.00 33.53    -0.265 OA
HETATM    4  NAU   D T1001     -12.499   1.698  -7.292  1.00 33.87    -0.169 NA
HETATM    5  CAV   D T1001     -11.887   2.831  -6.919  1.00 34.90     0.282 A 
HETATM    6  OAX   D T1001     -12.505   3.946  -6.938  1.00 35.00    -0.265 OA
HETATM    7  CAJ   D T1001     -10.472   2.655  -6.523  1.00 32.88     0.064 A 
ENDROOT
BRANCH   1   8
HETATM    8  CAG   D T1001      -9.061   0.339  -6.365  1.00 35.34     0.023 A 
HETATM    9  CAW   D T1001      -7.808   0.620  -6.856  1.00 34.78     0.076 A 
HETATM   10  NAH   D T1001      -6.984  -0.305  -6.277  1.00 36.88    -0.326 N 
HETATM   11  CAE   D T1001      -7.660  -1.101  -5.439  1.00 36.88     0.060 A 
HETATM   12  CAF   D T1001      -7.281  -2.155  -4.604  1.00 37.02     0.017 A 
HETATM   13  CAD   D T1001      -8.996  -0.690  -5.437  1.00 36.79     0.017 A 
HETATM   14  CAA   D T1001      -8.222  -2.804  -3.828  1.00 37.13     0.002 A 
HETATM   15  CAB   D T1001      -9.569  -2.405  -3.853  1.00 38.67     0.000 A 
HETATM   16  CAC   D T1001      -9.969  -1.351  -4.679  1.00 38.70     0.002 A 
BRANCH  10  17
HETATM   17  CAY   D T1001      -5.556  -0.368  -6.526  1.00 39.32     0.108 C 
BRANCH  17  18
HETATM   18  CBA   D T1001      -5.242  -1.154  -7.775  1.00 40.15     0.048 C 
BRANCH  18  19
HETATM   19  CBB   D T1001      -3.924  -1.835  -7.443  1.00 46.58     0.099 C 
BRANCH  19  20
HETATM   20  NBC   D T1001      -4.154  -3.041  -6.652  1.00 44.62    -0.365 N 
HETATM   21  CBD   D T1001      -5.083  -4.005  -7.228  1.00 48.91     0.121 C 
HETATM   22  CBE   D T1001      -3.485  -3.333  -5.393  1.00 49.55     0.121 C 
ENDBRANCH  19  20
ENDBRANCH  18  19
ENDBRANCH  17  18
ENDBRANCH  10  17
ENDBRANCH   1   8
BRANCH   7  23
HETATM   23  CAK   D T1001      -9.572   3.752  -6.038  1.00 34.11     0.025 A 
HETATM   24  CAM   D T1001      -8.731   4.577  -6.811  1.00 33.58     0.019 A 
HETATM   25  CAP   D T1001      -8.478   4.680  -8.185  1.00 31.36     0.002 A 
HETATM   26  CAN   D T1001      -8.105   5.385  -5.861  1.00 34.83     0.081 A 
HETATM   27  CAQ   D T1001      -7.562   5.628  -8.626  1.00 33.71     0.000 A 
HETATM   28  CAR   D T1001      -6.934   6.450  -7.691  1.00 32.72     0.002 A 
HETATM   29  CAS   D T1001      -7.190   6.356  -6.311  1.00 35.56     0.019 A 
HETATM   30  NAO   D T1001      -8.573   5.056  -4.612  1.00 33.95    -0.244 NA
HETATM   31  CAL   D T1001      -9.488   4.051  -4.680  1.00 33.68     0.099 A 
ENDBRANCH   7  23
TORSDOF 6
ENDMDL
MODEL 4
REMARK VINA RESULT:    -7.304      1.855      3.622
REMARK INTER + INTRA:         -11.339
REMARK INTER:                  -9.536
REMARK INTRA:                  -1.803
REMARK UNBOUND:                -1.474
REMARK  6 active torsions:
REMARK  status: ('A' for Active; 'I' for Inactive)
REMARK    1  A    between atoms: NBC_2  and  CBB_4 
REMARK    2  A    between atoms: CBB_4  and  CBA_5 
REMARK    3  A    between atoms: CBA_5  and  CAY_6 
REMARK    4  A    between atoms: CAY_6  and  NAH_7 
REMARK    5  A    between atoms: CAG_15  and  CAI_16 
REMARK    6  A    between atoms: CAJ_22  and  CAK_23 
ROOT
HETATM    1  CAI   D T1001      -5.165  -2.474  -5.782  1.00 35.40     0.064 A 
HETATM    2  CAT   D T1001      -3.950  -1.705  -5.398  1.00 36.13     0.282 A 
HETATM    3  OAZ   D T1001      -3.929  -0.431  -5.240  1.00 33.53    -0.265 OA
HETATM    4  NAU   D T1001      -2.824  -2.448  -5.322  1.00 33.87    -0.169 NA
HETATM    5  CAV   D T1001      -3.216  -3.711  -5.545  1.00 34.90     0.282 A 
HETATM    6  OAX   D T1001      -2.376  -4.671  -5.524  1.00 35.00    -0.265 OA
HETATM    7  CAJ   D T1001      -4.661  -3.858  -5.829  1.00 32.88     0.064 A 
ENDROOT
BRANCH   1   8
HETATM    8  CAG   D T1001      -6.564  -1.920  -5.832  1.00 35.34     0.023 A 
HETATM    9  CAW   D T1001      -7.381  -1.983  -4.727  1.00 34.78     0.076 A 
HETATM   10  NAH   D T1001      -8.522  -1.322  -5.092  1.00 36.88    -0.326 N 
HETATM   11  CAE   D T1001      -8.425  -0.834  -6.335  1.00 36.88     0.060 A 
HETATM   12  CAF   D T1001      -9.284  -0.078  -7.137  1.00 37.02     0.017 A 
HETATM   13  CAD   D T1001      -7.160  -1.164  -6.830  1.00 36.79     0.017 A 
HETATM   14  CAA   D T1001      -8.903   0.294  -8.411  1.00 37.13     0.002 A 
HETATM   15  CAB   D T1001      -7.641  -0.065  -8.914  1.00 38.67     0.000 A 
HETATM   16  CAC   D T1001      -6.765  -0.819  -8.128  1.00 38.70     0.002 A 
BRANCH  10  17
HETATM   17  CAY   D T1001      -9.661  -1.152  -4.209  1.00 39.32     0.108 C 
BRANCH  17  18
HETATM   18  CBA   D T1001     -10.279  -2.478  -3.836  1.00 40.15     0.048 C 
BRANCH  18  19
HETATM   19  CBB   D T1001     -11.617  -2.460  -4.558  1.00 46.58     0.099 C 
BRANCH  19  20
HETATM   20  NBC   D T1001     -11.729  -3.605  -5.458  1.00 44.62    -0.365 N 
HETATM   21  CBD   D T1001     -11.166  -3.417  -6.790  1.00 48.91     0.121 C 
HETATM   22  CBE   D T1001     -12.304  -4.887  -5.083  1.00 49.55     0.121 C 
ENDBRANCH  19  20
ENDBRANCH  18  19
ENDBRANCH  17  18
ENDBRANCH  10  17
ENDBRANCH   1   8
BRANCH   7  23
HETATM   23  CAK   D T1001      -5.359  -5.160  -6.084  1.00 34.11     0.025 A 
HETATM   24  CAM   D T1001      -6.447  -5.396  -6.948  1.00 33.58     0.019 A 
HETATM   25  CAP   D T1001      -7.181  -4.582  -7.820  1.00 31.36     0.002 A 
HETATM   26  CAN   D T1001      -6.714  -6.755  -6.773  1.00 34.83     0.081 A 
HETATM   27  CAQ   D T1001      -8.223  -5.149  -8.546  1.00 33.71     0.000 A 
HETATM   28  CAR   D T1001      -8.497  -6.507  -8.388  1.00 32.72     0.002 A 
HETATM   29  CAS   D T1001      -7.758  -7.331  -7.520  1.00 35.56     0.019 A 
HETATM   30  NAO   D T1001      -5.818  -7.276  -5.871  1.00 33.95    -0.244 NA
HETATM   31  CAL   D T1001      -4.958  -6.320  -5.424  1.00 33.68     0.099 A 
ENDBRANCH   7  23
TORSDOF 6
ENDMDL
MODEL 5
REMARK VINA RESULT:    -7.188      4.295      9.372
REMARK INTER + INTRA:         -11.183
REMARK INTER:                  -9.151
REMARK INTRA:                  -2.032
REMARK UNBOUND:                -1.474
REMARK  6 active torsions:
REMARK  status: ('A' for Active; 'I' for Inactive)
REMARK    1  A    between atoms: NBC_2  and  CBB_4 
REMARK    2  A    between atoms: CBB_4  and  CBA_5 
REMARK    3  A    between atoms: CBA_5  and  CAY_6 
REMARK    4  A    between atoms: CAY_6  and  NAH_7 
REMARK    5  A    between atoms: CAG_15  and  CAI_16 
REMARK    6  A    between atoms: CAJ_22  and  CAK_23 
ROOT
HETATM    1  CAI   D T1001     -10.584   1.424  -6.615  1.00 35.40     0.064 A 
HETATM    2  CAT   D T1001     -11.964   1.047  -7.023  1.00 36.13     0.282 A 
HETATM    3  OAZ   D T1001     -12.344  -0.162  -7.232  1.00 33.53    -0.265 OA
HETATM    4  NAU   D T1001     -12.780   2.098  -7.257  1.00 33.87    -0.169 NA
HETATM    5  CAV   D T1001     -12.059   3.184  -6.944  1.00 34.90     0.282 A 
HETATM    6  OAX   D T1001     -12.560   4.353  -7.043  1.00 35.00    -0.265 OA
HETATM    7  CAJ   D T1001     -10.674   2.892  -6.513  1.00 32.88     0.064 A 
ENDROOT
BRANCH   1   8
HETATM    8  CAG   D T1001      -9.509   0.459  -6.188  1.00 35.34     0.023 A 
HETATM    9  CAW   D T1001      -9.660  -0.296  -5.049  1.00 34.78     0.076 A 
HETATM   10  NAH   D T1001      -8.560  -1.108  -5.013  1.00 36.88    -0.326 N 
HETATM   11  CAE   D T1001      -7.776  -0.913  -6.081  1.00 36.88     0.060 A 
HETATM   12  CAF   D T1001      -6.584  -1.498  -6.514  1.00 37.02     0.017 A 
HETATM   13  CAD   D T1001      -8.376   0.062  -6.884  1.00 36.79     0.017 A 
HETATM   14  CAA   D T1001      -5.991  -1.085  -7.691  1.00 37.13     0.002 A 
HETATM   15  CAB   D T1001      -6.584  -0.085  -8.480  1.00 38.67     0.000 A 
HETATM   16  CAC   D T1001      -7.778   0.512  -8.066  1.00 38.70     0.002 A 
BRANCH  10  17
HETATM   17  CAY   D T1001      -8.318  -2.076  -3.960  1.00 39.32     0.108 C 
BRANCH  17  18
HETATM   18  CBA   D T1001      -9.293  -3.227  -4.027  1.00 40.15     0.048 C 
BRANCH  18  19
HETATM   19  CBB   D T1001      -8.438  -4.388  -4.508  1.00 46.58     0.099 C 
BRANCH  19  20
HETATM   20  NBC   D T1001      -8.545  -4.539  -5.957  1.00 44.62    -0.365 N 
HETATM   21  CBD   D T1001      -7.403  -5.167  -6.611  1.00 48.91     0.121 C 
HETATM   22  CBE   D T1001      -9.712  -4.156  -6.735  1.00 49.55     0.121 C 
ENDBRANCH  19  20
ENDBRANCH  18  19
ENDBRANCH  17  18
ENDBRANCH  10  17
ENDBRANCH   1   8
BRANCH   7  23
HETATM   23  CAK   D T1001      -9.672   3.920  -6.082  1.00 34.11     0.025 A 
HETATM   24  CAM   D T1001      -8.795   4.659  -6.900  1.00 33.58     0.019 A 
HETATM   25  CAP   D T1001      -8.582   4.716  -8.283  1.00 31.36     0.002 A 
HETATM   26  CAN   D T1001      -8.072   5.432  -5.988  1.00 34.83     0.081 A 
HETATM   27  CAQ   D T1001      -7.609   5.579  -8.775  1.00 33.71     0.000 A 
HETATM   28  CAR   D T1001      -6.884   6.364  -7.878  1.00 32.72     0.002 A 
HETATM   29  CAS   D T1001      -7.099   6.317  -6.489  1.00 35.56     0.019 A 
HETATM   30  NAO   D T1001      -8.521   5.164  -4.718  1.00 33.95    -0.244 NA
HETATM   31  CAL   D T1001      -9.516   4.236  -4.734  1.00 33.68     0.099 A 
ENDBRANCH   7  23
TORSDOF 6
ENDMDL
MODEL 6
REMARK VINA RESULT:    -7.173      2.333      6.355
REMARK INTER + INTRA:         -11.163
REMARK INTER:                  -9.561
REMARK INTRA:                  -1.601
REMARK UNBOUND:                -1.474
REMARK  6 active torsions:
REMARK  status: ('A' for Active; 'I' for Inactive)
REMARK    1  A    between atoms: NBC_2  and  CBB_4 
REMARK    2  A    between atoms: CBB_4  and  CBA_5 
REMARK    3  A    between atoms: CBA_5  and  CAY_6 
REMARK    4  A    between atoms: CAY_6  and  NAH_7 
REMARK    5  A    between atoms: CAG_15  and  CAI_16 
REMARK    6  A    between atoms: CAJ_22  and  CAK_23 
ROOT
HETATM    1  CAI   D T1001      -6.794  -2.258  -6.546  1.00 35.40     0.064 A 
HETATM    2  CAT   D T1001      -6.202  -1.219  -7.432  1.00 36.13     0.282 A 
HETATM    3  OAZ   D T1001      -5.067  -1.341  -8.019  1.00 33.53    -0.265 OA
HETATM    4  NAU   D T1001      -6.916  -0.074  -7.499  1.00 33.87    -0.169 NA
HETATM    5  CAV   D T1001      -8.021  -0.301  -6.774  1.00 34.90     0.282 A 
HETATM    6  OAX   D T1001      -8.920   0.595  -6.652  1.00 35.00    -0.265 OA
HETATM    7  CAJ   D T1001      -8.068  -1.638  -6.140  1.00 32.88     0.064 A 
ENDROOT
BRANCH   1   8
HETATM    8  CAG   D T1001      -6.268  -3.659  -6.376  1.00 35.34     0.023 A 
HETATM    9  CAW   D T1001      -7.002  -4.738  -6.810  1.00 34.78     0.076 A 
HETATM   10  NAH   D T1001      -6.203  -5.824  -6.582  1.00 36.88    -0.326 N 
HETATM   11  CAE   D T1001      -5.019  -5.459  -6.074  1.00 36.88     0.060 A 
HETATM   12  CAF   D T1001      -3.874  -6.171  -5.705  1.00 37.02     0.017 A 
HETATM   13  CAD   D T1001      -5.008  -4.066  -5.965  1.00 36.79     0.017 A 
HETATM   14  CAA   D T1001      -2.772  -5.508  -5.201  1.00 37.13     0.002 A 
HETATM   15  CAB   D T1001      -2.778  -4.109  -5.067  1.00 38.67     0.000 A 
HETATM   16  CAC   D T1001      -3.912  -3.378  -5.432  1.00 38.70     0.002 A 
BRANCH  10  17
HETATM   17  CAY   D T1001      -6.597  -7.184  -6.899  1.00 39.32     0.108 C 
BRANCH  17  18
HETATM   18  CBA   D T1001      -7.886  -7.222  -7.684  1.00 40.15     0.048 C 
BRANCH  18  19
HETATM   19  CBB   D T1001      -7.988  -8.673  -8.127  1.00 46.58     0.099 C 
BRANCH  19  20
HETATM   20  NBC   D T1001      -9.267  -9.247  -7.715  1.00 44.62    -0.365 N 
HETATM   21  CBD   D T1001      -9.182 -10.407  -6.835  1.00 48.91     0.121 C 
HETATM   22  CBE   D T1001     -10.564  -8.704  -8.085  1.00 49.55     0.121 C 
ENDBRANCH  19  20
ENDBRANCH  18  19
ENDBRANCH  17  18
ENDBRANCH  10  17
ENDBRANCH   1   8
BRANCH   7  23
HETATM   23  CAK   D T1001      -9.201  -2.153  -5.304  1.00 34.11     0.025 A 
HETATM   24  CAM   D T1001     -10.154  -3.129  -5.658  1.00 33.58     0.019 A 
HETATM   25  CAP   D T1001     -10.352  -3.916  -6.800  1.00 31.36     0.002 A 
HETATM   26  CAN   D T1001     -10.984  -3.196  -4.537  1.00 34.83     0.081 A 
HETATM   27  CAQ   D T1001     -11.421  -4.804  -6.823  1.00 33.71     0.000 A 
HETATM   28  CAR   D T1001     -12.255  -4.889  -5.708  1.00 32.72     0.002 A 
HETATM   29  CAS   D T1001     -12.056  -4.108  -4.556  1.00 35.56     0.019 A 
HETATM   30  NAO   D T1001     -10.523  -2.320  -3.585  1.00 33.95    -0.244 NA
HETATM   31  CAL   D T1001      -9.416  -1.658  -4.020  1.00 33.68     0.099 A 
ENDBRANCH   7  23
TORSDOF 6
ENDMDL
MODEL 7
REMARK VINA RESULT:    -6.962      2.299      4.004
REMARK INTER + INTRA:         -10.878
REMARK INTER:                  -9.093
REMARK INTRA:                  -1.784
REMARK UNBOUND:                -1.474
REMARK  6 active torsions:
REMARK  status: ('A' for Active; 'I' for Inactive)
REMARK    1  A    between atoms: NBC_2  and  CBB_4 
REMARK    2  A    between atoms: CBB_4  and  CBA_5 
REMARK    3  A    between atoms: CBA_5  and  CAY_6 
REMARK    4  A    between atoms: CAY_6  and  NAH_7 
REMARK    5  A    between atoms: CAG_15  and  CAI_16 
REMARK    6  A    between atoms: CAJ_22  and  CAK_23 
ROOT
HETATM    1  CAI   D T1001      -7.009  -2.106  -6.936  1.00 35.40     0.064 A 
HETATM    2  CAT   D T1001      -6.461  -0.784  -7.347  1.00 36.13     0.282 A 
HETATM    3  OAZ   D T1001      -7.168   0.282  -7.458  1.00 33.53    -0.265 OA
HETATM    4  NAU   D T1001      -5.156  -0.809  -7.695  1.00 33.87    -0.169 NA
HETATM    5  CAV   D T1001      -4.748  -2.064  -7.460  1.00 34.90     0.282 A 
HETATM    6  OAX   D T1001      -3.541  -2.412  -7.675  1.00 35.00    -0.265 OA
HETATM    7  CAJ   D T1001      -5.813  -2.967  -6.967  1.00 32.88     0.064 A 
ENDROOT
BRANCH   1   8
HETATM    8  CAG   D T1001      -8.395  -2.342  -6.396  1.00 35.34     0.023 A 
HETATM    9  CAW   D T1001      -8.656  -2.196  -5.054  1.00 34.78     0.076 A 
HETATM   10  NAH   D T1001     -10.003  -2.397  -4.931  1.00 36.88    -0.326 N 
HETATM   11  CAE   D T1001     -10.573  -2.618  -6.123  1.00 36.88     0.060 A 
HETATM   12  CAF   D T1001     -11.891  -2.843  -6.528  1.00 37.02     0.017 A 
HETATM   13  CAD   D T1001      -9.573  -2.549  -7.098  1.00 36.79     0.017 A 
HETATM   14  CAA   D T1001     -12.187  -3.039  -7.863  1.00 37.13     0.002 A 
HETATM   15  CAB   D T1001     -11.173  -2.997  -8.835  1.00 38.67     0.000 A 
HETATM   16  CAC   D T1001      -9.849  -2.771  -8.452  1.00 38.70     0.002 A 
BRANCH  10  17
HETATM   17  CAY   D T1001     -10.707  -2.333  -3.664  1.00 39.32     0.108 C 
BRANCH  17  18
HETATM   18  CBA   D T1001     -11.743  -1.236  -3.656  1.00 40.15     0.048 C 
BRANCH  18  19
HETATM   19  CBB   D T1001     -10.915   0.033  -3.781  1.00 46.58     0.099 C 
BRANCH  19  20
HETATM   20  NBC   D T1001     -11.295   0.778  -4.979  1.00 44.62    -0.365 N 
HETATM   21  CBD   D T1001     -10.200   1.427  -5.691  1.00 48.91     0.121 C 
HETATM   22  CBE   D T1001     -12.651   0.852  -5.501  1.00 49.55     0.121 C 
ENDBRANCH  19  20
ENDBRANCH  18  19
ENDBRANCH  17  18
ENDBRANCH  10  17
ENDBRANCH   1   8
BRANCH   7  23
HETATM   23  CAK   D T1001      -5.618  -4.407  -6.601  1.00 34.11     0.025 A 
HETATM   24  CAM   D T1001      -6.406  -5.507  -6.996  1.00 33.58     0.019 A 
HETATM   25  CAP   D T1001      -7.532  -5.643  -7.818  1.00 31.36     0.002 A 
HETATM   26  CAN   D T1001      -5.804  -6.588  -6.349  1.00 34.83     0.081 A 
HETATM   27  CAQ   D T1001      -8.078  -6.908  -8.000  1.00 33.71     0.000 A 
HETATM   28  CAR   D T1001      -7.483  -8.000  -7.368  1.00 32.72     0.002 A 
HETATM   29  CAS   D T1001      -6.348  -7.871  -6.548  1.00 35.56     0.019 A 
HETATM   30  NAO   D T1001      -4.720  -6.137  -5.636  1.00 33.95    -0.244 NA
HETATM   31  CAL   D T1001      -4.568  -4.792  -5.770  1.00 33.68     0.099 A 
ENDBRANCH   7  23
TORSDOF 6
ENDMDL
MODEL 8
REMARK VINA RESULT:    -6.918      2.920      5.361
REMARK INTER + INTRA:         -10.818
REMARK INTER:                  -8.698
REMARK INTRA:                  -2.119
REMARK UNBOUND:                -1.474
REMARK  6 active torsions:
REMARK  status: ('A' for Active; 'I' for Inactive)
REMARK    1  A    between atoms: NBC_2  and  CBB_4 
REMARK    2  A    between atoms: CBB_4  and  CBA_5 
REMARK    3  A    between atoms: CBA_5  and  CAY_6 
REMARK    4  A    between atoms: CAY_6  and  NAH_7 
REMARK    5  A    between atoms: CAG_15  and  CAI_16 
REMARK    6  A    between atoms: CAJ_22  and  CAK_23 
ROOT
HETATM    1  CAI   D T1001      -9.976  -1.887  -5.477  1.00 35.40     0.064 A 
HETATM    2  CAT   D T1001     -10.922  -1.162  -4.586  1.00 36.13     0.282 A 
HETATM    3  OAZ   D T1001     -10.671  -0.023  -4.049  1.00 33.53    -0.265 OA
HETATM    4  NAU   D T1001     -12.050  -1.848  -4.299  1.00 33.87    -0.169 NA
HETATM    5  CAV   D T1001     -11.974  -2.976  -5.019  1.00 34.90     0.282 A 
HETATM    6  OAX   D T1001     -12.908  -3.843  -4.980  1.00 35.00    -0.265 OA
HETATM    7  CAJ   D T1001     -10.730  -3.109  -5.810  1.00 32.88     0.064 A 
ENDROOT
BRANCH   1   8
HETATM    8  CAG   D T1001      -8.703  -1.315  -6.041  1.00 35.34     0.023 A 
HETATM    9  CAW   D T1001      -7.604  -1.128  -5.236  1.00 34.78     0.076 A 
HETATM   10  NAH   D T1001      -6.620  -0.686  -6.076  1.00 36.88    -0.326 N 
HETATM   11  CAE   D T1001      -7.050  -0.632  -7.343  1.00 36.88     0.060 A 
HETATM   12  CAF   D T1001      -6.436  -0.282  -8.549  1.00 37.02     0.017 A 
HETATM   13  CAD   D T1001      -8.377  -1.070  -7.367  1.00 36.79     0.017 A 
HETATM   14  CAA   D T1001      -7.147  -0.328  -9.733  1.00 37.13     0.002 A 
HETATM   15  CAB   D T1001      -8.490  -0.742  -9.746  1.00 38.67     0.000 A 
HETATM   16  CAC   D T1001      -9.122  -1.098  -8.551  1.00 38.70     0.002 A 
BRANCH  10  17
HETATM   17  CAY   D T1001      -5.277  -0.362  -5.631  1.00 39.32     0.108 C 
BRANCH  17  18
HETATM   18  CBA   D T1001      -4.673  -1.483  -4.821  1.00 40.15     0.048 C 
BRANCH  18  19
HETATM   19  CBB   D T1001      -3.528  -1.973  -5.693  1.00 46.58     0.099 C 
BRANCH  19  20
HETATM   20  NBC   D T1001      -3.819  -3.303  -6.223  1.00 44.62    -0.365 N 
HETATM   21  CBD   D T1001      -3.244  -4.417  -5.478  1.00 48.91     0.121 C 
HETATM   22  CBE   D T1001      -4.664  -3.556  -7.379  1.00 49.55     0.121 C 
ENDBRANCH  19  20
ENDBRANCH  18  19
ENDBRANCH  17  18
ENDBRANCH  10  17
ENDBRANCH   1   8
BRANCH   7  23
HETATM   23  CAK   D T1001     -10.408  -4.256  -6.720  1.00 34.11     0.025 A 
HETATM   24  CAM   D T1001      -9.227  -5.025  -6.747  1.00 33.58     0.019 A 
HETATM   25  CAP   D T1001      -8.051  -5.015  -5.986  1.00 31.36     0.002 A 
HETATM   26  CAN   D T1001      -9.445  -5.921  -7.795  1.00 34.83     0.081 A 
HETATM   27  CAQ   D T1001      -7.053  -5.936  -6.285  1.00 33.71     0.000 A 
HETATM   28  CAR   D T1001      -7.259  -6.843  -7.324  1.00 32.72     0.002 A 
HETATM   29  CAS   D T1001      -8.441  -6.863  -8.086  1.00 35.56     0.019 A 
HETATM   30  NAO   D T1001     -10.689  -5.691  -8.330  1.00 33.95    -0.244 NA
HETATM   31  CAL   D T1001     -11.320  -4.670  -7.688  1.00 33.68     0.099 A 
ENDBRANCH   7  23
TORSDOF 6
ENDMDL
MODEL 9
REMARK VINA RESULT:    -6.826      3.913      6.533
REMARK INTER + INTRA:         -10.695
REMARK INTER:                  -8.957
REMARK INTRA:                  -1.738
REMARK UNBOUND:                -1.474
REMARK  6 active torsions:
REMARK  status: ('A' for Active; 'I' for Inactive)
REMARK    1  A    between atoms: NBC_2  and  CBB_4 
REMARK    2  A    between atoms: CBB_4  and  CBA_5 
REMARK    3  A    between atoms: CBA_5  and  CAY_6 
REMARK    4  A    between atoms: CAY_6  and  NAH_7 
REMARK    5  A    between atoms: CAG_15  and  CAI_16 
REMARK    6  A    between atoms: CAJ_22  and  CAK_23 
ROOT
HETATM    1  CAI   D T1001      -9.881  -0.957  -7.238  1.00 35.40     0.064 A 
HETATM    2  CAT   D T1001     -10.701  -1.638  -8.277  1.00 36.13     0.282 A 
HETATM    3  OAZ   D T1001     -11.751  -1.126  -8.810  1.00 33.53    -0.265 OA
HETATM    4  NAU   D T1001     -10.308  -2.900  -8.555  1.00 33.87    -0.169 NA
HETATM    5  CAV   D T1001      -9.201  -3.097  -7.825  1.00 34.90     0.282 A 
HETATM    6  OAX   D T1001      -8.569  -4.203  -7.877  1.00 35.00    -0.265 OA
HETATM    7  CAJ   D T1001      -8.823  -1.948  -6.972  1.00 32.88     0.064 A 
ENDROOT
BRANCH   1   8
HETATM    8  CAG   D T1001     -10.029   0.482  -6.820  1.00 35.34     0.023 A 
HETATM    9  CAW   D T1001      -9.160   1.439  -7.290  1.00 34.78     0.076 A 
HETATM   10  NAH   D T1001      -9.629   2.621  -6.788  1.00 36.88    -0.326 N 
HETATM   11  CAE   D T1001     -10.749   2.437  -6.077  1.00 36.88     0.060 A 
HETATM   12  CAF   D T1001     -11.609   3.308  -5.402  1.00 37.02     0.017 A 
HETATM   13  CAD   D T1001     -11.061   1.075  -6.109  1.00 36.79     0.017 A 
HETATM   14  CAA   D T1001     -12.720   2.819  -4.742  1.00 37.13     0.002 A 
HETATM   15  CAB   D T1001     -13.012   1.445  -4.754  1.00 38.67     0.000 A 
HETATM   16  CAC   D T1001     -12.167   0.557  -5.425  1.00 38.70     0.002 A 
BRANCH  10  17
HETATM   17  CAY   D T1001      -8.998   3.902  -7.044  1.00 39.32     0.108 C 
BRANCH  17  18
HETATM   18  CBA   D T1001      -7.853   4.159  -6.094  1.00 40.15     0.048 C 
BRANCH  18  19
HETATM   19  CBB   D T1001      -7.961   5.647  -5.803  1.00 46.58     0.099 C 
BRANCH  19  20
HETATM   20  NBC   D T1001      -8.990   5.900  -4.798  1.00 44.62    -0.365 N 
HETATM   21  CBD   D T1001      -8.946   5.040  -3.620  1.00 48.91     0.121 C 
HETATM   22  CBE   D T1001      -9.981   6.961  -4.890  1.00 49.55     0.121 C 
ENDBRANCH  19  20
ENDBRANCH  18  19
ENDBRANCH  17  18
ENDBRANCH  10  17
ENDBRANCH   1   8
BRANCH   7  23
HETATM   23  CAK   D T1001      -7.616  -1.896  -6.084  1.00 34.11     0.025 A 
HETATM   24  CAM   D T1001      -6.269  -1.762  -6.474  1.00 33.58     0.019 A 
HETATM   25  CAP   D T1001      -5.633  -1.614  -7.714  1.00 31.36     0.002 A 
HETATM   26  CAN   D T1001      -5.573  -1.807  -5.265  1.00 34.83     0.081 A 
HETATM   27  CAQ   D T1001      -4.247  -1.507  -7.745  1.00 33.71     0.000 A 
HETATM   28  CAR   D T1001      -3.537  -1.541  -6.545  1.00 32.72     0.002 A 
HETATM   29  CAS   D T1001      -4.171  -1.682  -5.297  1.00 35.56     0.019 A 
HETATM   30  NAO   D T1001      -6.472  -1.942  -4.235  1.00 33.95    -0.244 NA
HETATM   31  CAL   D T1001      -7.749  -1.996  -4.701  1.00 33.68     0.099 A 
ENDBRANCH   7  23
TORSDOF 6
ENDMDL
