MODEL 1
REMARK VINA RESULT:    -8.380      0.000      0.000
REMARK INTER + INTRA:         -12.896
REMARK INTER:                 -11.320
REMARK INTRA:                  -1.577
REMARK UNBOUND:                -1.577
REMARK  6 active torsions:
REMARK  status: ('A' for Active; 'I' for Inactive)
REMARK    1  A    between atoms: NBC_2  and  CBB_4 
REMARK    2  A    between atoms: CBB_4  and  CBA_5 
REMARK    3  A    between atoms: CBA_5  and  CAY_6 
REMARK    4  A    between atoms: CAY_6  and  NAH_7 
REMARK    5  A    between atoms: CAG_15  and  CAI_16 
REMARK    6  A    between atoms: CAJ_22  and  CAK_23 
ROOT
HETATM    1  CAI   D T1001      -2.645   0.240 -12.043  1.00 35.40     0.064 A 
HETATM    2  CAT   D T1001      -2.958   1.437 -12.872  1.00 36.13     0.282 A 
HETATM    3  OAZ   D T1001      -3.962   1.513 -13.667  1.00 33.53    -0.265 OA
HETATM    4  NAU   D T1001      -2.034   2.419 -12.797  1.00 33.87    -0.169 NA
HETATM    5  CAV   D T1001      -1.142   2.003 -11.888  1.00 34.90     0.282 A 
HETATM    6  OAX   D T1001      -0.139   2.724 -11.573  1.00 35.00    -0.265 OA
HETATM    7  CAJ   D T1001      -1.424   0.660 -11.331  1.00 32.88     0.064 A 
ENDROOT
BRANCH   1   8
HETATM    8  CAG   D T1001      -3.551  -0.947 -11.854  1.00 35.34     0.023 A 
HETATM    9  CAW   D T1001      -4.861  -0.772 -11.473  1.00 34.78     0.076 A 
HETATM   10  NAH   D T1001      -5.404  -2.028 -11.481  1.00 36.88    -0.326 N 
HETATM   11  CAE   D T1001      -4.509  -2.941 -11.881  1.00 36.88     0.060 A 
HETATM   12  CAF   D T1001      -4.575  -4.322 -12.083  1.00 37.02     0.017 A 
HETATM   13  CAD   D T1001      -3.314  -2.276 -12.171  1.00 36.79     0.017 A 
HETATM   14  CAA   D T1001      -3.463  -5.018 -12.516  1.00 37.13     0.002 A 
HETATM   15  CAB   D T1001      -2.256  -4.349 -12.778  1.00 38.67     0.000 A 
HETATM   16  CAC   D T1001      -2.170  -2.967 -12.585  1.00 38.70     0.002 A 
BRANCH  10  17
HETATM   17  CAY   D T1001      -6.785  -2.302 -11.137  1.00 39.32     0.108 C 
BRANCH  17  18
HETATM   18  CBA   D T1001      -7.677  -2.283 -12.355  1.00 40.15     0.048 C 
BRANCH  18  19
HETATM   19  CBB   D T1001      -8.678  -1.181 -12.044  1.00 46.58     0.099 C 
BRANCH  19  20
HETATM   20  NBC   D T1001      -8.203   0.103 -12.557  1.00 44.62    -0.365 N 
HETATM   21  CBD   D T1001      -7.562   0.060 -13.866  1.00 48.91     0.121 C 
HETATM   22  CBE   D T1001      -8.380   1.373 -11.871  1.00 49.55     0.121 C 
ENDBRANCH  19  20
ENDBRANCH  18  19
ENDBRANCH  17  18
ENDBRANCH  10  17
ENDBRANCH   1   8
BRANCH   7  23
HETATM   23  CAK   D T1001      -0.603  -0.027 -10.281  1.00 34.11     0.025 A 
HETATM   24  CAM   D T1001       0.149  -1.211 -10.416  1.00 33.58     0.019 A 
HETATM   25  CAP   D T1001       0.400  -2.077 -11.488  1.00 31.36     0.002 A 
HETATM   26  CAN   D T1001       0.676  -1.410  -9.139  1.00 34.83     0.081 A 
HETATM   27  CAQ   D T1001       1.208  -3.187 -11.274  1.00 33.71     0.000 A 
HETATM   28  CAR   D T1001       1.748  -3.397 -10.005  1.00 32.72     0.002 A 
HETATM   29  CAS   D T1001       1.507  -2.526  -8.928  1.00 35.56     0.019 A 
HETATM   30  NAO   D T1001       0.264  -0.389  -8.319  1.00 33.95    -0.244 NA
HETATM   31  CAL   D T1001      -0.526   0.493  -8.990  1.00 33.68     0.099 A 
ENDBRANCH   7  23
TORSDOF 6
ENDMDL
MODEL 2
REMARK VINA RESULT:    -8.357      2.327      6.291
REMARK INTER + INTRA:         -12.864
REMARK INTER:                 -10.717
REMARK INTRA:                  -2.147
REMARK UNBOUND:                -1.577
REMARK  6 active torsions:
REMARK  status: ('A' for Active; 'I' for Inactive)
REMARK    1  A    between atoms: NBC_2  and  CBB_4 
REMARK    2  A    between atoms: CBB_4  and  CBA_5 
REMARK    3  A    between atoms: CBA_5  and  CAY_6 
REMARK    4  A    between atoms: CAY_6  and  NAH_7 
REMARK    5  A    between atoms: CAG_15  and  CAI_16 
REMARK    6  A    between atoms: CAJ_22  and  CAK_23 
ROOT
HETATM    1  CAI   D T1001      -4.002  -1.675 -11.866  1.00 35.40     0.064 A 
HETATM    2  CAT   D T1001      -5.037  -2.741 -11.960  1.00 36.13     0.282 A 
HETATM    3  OAZ   D T1001      -4.853  -3.952 -11.578  1.00 33.53    -0.265 OA
HETATM    4  NAU   D T1001      -6.175  -2.356 -12.578  1.00 33.87    -0.169 NA
HETATM    5  CAV   D T1001      -6.016  -1.051 -12.836  1.00 34.90     0.282 A 
HETATM    6  OAX   D T1001      -6.936  -0.378 -13.409  1.00 35.00    -0.265 OA
HETATM    7  CAJ   D T1001      -4.704  -0.504 -12.423  1.00 32.88     0.064 A 
ENDROOT
BRANCH   1   8
HETATM    8  CAG   D T1001      -2.693  -1.797 -11.133  1.00 35.34     0.023 A 
HETATM    9  CAW   D T1001      -2.442  -1.032 -10.018  1.00 34.78     0.076 A 
HETATM   10  NAH   D T1001      -1.222  -1.453  -9.565  1.00 36.88    -0.326 N 
HETATM   11  CAE   D T1001      -0.743  -2.452 -10.319  1.00 36.88     0.060 A 
HETATM   12  CAF   D T1001       0.419  -3.227 -10.257  1.00 37.02     0.017 A 
HETATM   13  CAD   D T1001      -1.683  -2.730 -11.315  1.00 36.79     0.017 A 
HETATM   14  CAA   D T1001       0.649  -4.215 -11.193  1.00 37.13     0.002 A 
HETATM   15  CAB   D T1001      -0.286  -4.471 -12.210  1.00 38.67     0.000 A 
HETATM   16  CAC   D T1001      -1.456  -3.709 -12.288  1.00 38.70     0.002 A 
BRANCH  10  17
HETATM   17  CAY   D T1001      -0.572  -0.901  -8.393  1.00 39.32     0.108 C 
BRANCH  17  18
HETATM   18  CBA   D T1001      -0.986   0.531  -8.149  1.00 40.15     0.048 C 
BRANCH  18  19
HETATM   19  CBB   D T1001       0.220   1.331  -8.617  1.00 46.58     0.099 C 
BRANCH  19  20
HETATM   20  NBC   D T1001      -0.175   2.305  -9.633  1.00 44.62    -0.365 N 
HETATM   21  CBD   D T1001      -0.194   3.697  -9.197  1.00 48.91     0.121 C 
HETATM   22  CBE   D T1001      -0.484   1.967 -11.013  1.00 49.55     0.121 C 
ENDBRANCH  19  20
ENDBRANCH  18  19
ENDBRANCH  17  18
ENDBRANCH  10  17
ENDBRANCH   1   8
BRANCH   7  23
HETATM   23  CAK   D T1001      -4.282   0.927 -12.570  1.00 34.11     0.025 A 
HETATM   24  CAM   D T1001      -4.171   1.899 -11.556  1.00 33.58     0.019 A 
HETATM   25  CAP   D T1001      -4.370   1.873 -10.170  1.00 31.36     0.002 A 
HETATM   26  CAN   D T1001      -3.778   3.047 -12.246  1.00 34.83     0.081 A 
HETATM   27  CAQ   D T1001      -4.169   3.042  -9.445  1.00 33.71     0.000 A 
HETATM   28  CAR   D T1001      -3.770   4.197 -10.118  1.00 32.72     0.002 A 
HETATM   29  CAS   D T1001      -3.560   4.226 -11.509  1.00 35.56     0.019 A 
HETATM   30  NAO   D T1001      -3.653   2.749 -13.580  1.00 33.95    -0.244 NA
HETATM   31  CAL   D T1001      -3.951   1.443 -13.822  1.00 33.68     0.099 A 
ENDBRANCH   7  23
TORSDOF 6
ENDMDL
MODEL 3
REMARK VINA RESULT:    -8.324      2.414      5.904
REMARK INTER + INTRA:         -12.821
REMARK INTER:                 -11.444
REMARK INTRA:                  -1.377
REMARK UNBOUND:                -1.577
REMARK  6 active torsions:
REMARK  status: ('A' for Active; 'I' for Inactive)
REMARK    1  A    between atoms: NBC_2  and  CBB_4 
REMARK    2  A    between atoms: CBB_4  and  CBA_5 
REMARK    3  A    between atoms: CBA_5  and  CAY_6 
REMARK    4  A    between atoms: CAY_6  and  NAH_7 
REMARK    5  A    between atoms: CAG_15  and  CAI_16 
REMARK    6  A    between atoms: CAJ_22  and  CAK_23 
ROOT
HETATM    1  CAI   D T1001      -3.536   0.092 -11.256  1.00 35.40     0.064 A 
HETATM    2  CAT   D T1001      -4.552   0.077 -10.168  1.00 36.13     0.282 A 
HETATM    3  OAZ   D T1001      -5.004  -0.995  -9.626  1.00 33.53    -0.265 OA
HETATM    4  NAU   D T1001      -5.044   1.295  -9.852  1.00 33.87    -0.169 NA
HETATM    5  CAV   D T1001      -4.355   2.164 -10.604  1.00 34.90     0.282 A 
HETATM    6  OAX   D T1001      -4.574   3.418 -10.527  1.00 35.00    -0.265 OA
HETATM    7  CAJ   D T1001      -3.369   1.534 -11.513  1.00 32.88     0.064 A 
ENDROOT
BRANCH   1   8
HETATM    8  CAG   D T1001      -2.749  -1.103 -11.726  1.00 35.34     0.023 A 
HETATM    9  CAW   D T1001      -1.386  -1.154 -11.549  1.00 34.78     0.076 A 
HETATM   10  NAH   D T1001      -1.016  -2.390 -12.004  1.00 36.88    -0.326 N 
HETATM   11  CAE   D T1001      -2.080  -3.098 -12.408  1.00 36.88     0.060 A 
HETATM   12  CAF   D T1001      -2.233  -4.391 -12.914  1.00 37.02     0.017 A 
HETATM   13  CAD   D T1001      -3.220  -2.316 -12.205  1.00 36.79     0.017 A 
HETATM   14  CAA   D T1001      -3.487  -4.865 -13.248  1.00 37.13     0.002 A 
HETATM   15  CAB   D T1001      -4.627  -4.064 -13.069  1.00 38.67     0.000 A 
HETATM   16  CAC   D T1001      -4.495  -2.768 -12.562  1.00 38.70     0.002 A 
BRANCH  10  17
HETATM   17  CAY   D T1001       0.354  -2.864 -12.000  1.00 39.32     0.108 C 
BRANCH  17  18
HETATM   18  CBA   D T1001       0.615  -3.805 -10.848  1.00 40.15     0.048 C 
BRANCH  18  19
HETATM   19  CBB   D T1001       0.218  -2.988  -9.628  1.00 46.58     0.099 C 
BRANCH  19  20
HETATM   20  NBC   D T1001       1.330  -2.146  -9.191  1.00 44.62    -0.365 N 
HETATM   21  CBD   D T1001       0.963  -0.818  -8.712  1.00 48.91     0.121 C 
HETATM   22  CBE   D T1001       2.719  -2.574  -9.165  1.00 49.55     0.121 C 
ENDBRANCH  19  20
ENDBRANCH  18  19
ENDBRANCH  17  18
ENDBRANCH  10  17
ENDBRANCH   1   8
BRANCH   7  23
HETATM   23  CAK   D T1001      -2.452   2.277 -12.436  1.00 34.11     0.025 A 
HETATM   24  CAM   D T1001      -1.212   2.868 -12.123  1.00 33.58     0.019 A 
HETATM   25  CAP   D T1001      -0.447   2.944 -10.952  1.00 31.36     0.002 A 
HETATM   26  CAN   D T1001      -0.811   3.445 -13.330  1.00 34.83     0.081 A 
HETATM   27  CAQ   D T1001       0.764   3.624 -10.988  1.00 33.71     0.000 A 
HETATM   28  CAR   D T1001       1.182   4.200 -12.188  1.00 32.72     0.002 A 
HETATM   29  CAS   D T1001       0.423   4.120 -13.369  1.00 35.56     0.019 A 
HETATM   30  NAO   D T1001      -1.760   3.185 -14.288  1.00 33.95    -0.244 NA
HETATM   31  CAL   D T1001      -2.790   2.459 -13.776  1.00 33.68     0.099 A 
ENDBRANCH   7  23
TORSDOF 6
ENDMDL
MODEL 4
REMARK VINA RESULT:    -8.253      2.292      6.337
REMARK INTER + INTRA:         -12.724
REMARK INTER:                 -11.381
REMARK INTRA:                  -1.343
REMARK UNBOUND:                -1.577
REMARK  6 active torsions:
REMARK  status: ('A' for Active; 'I' for Inactive)
REMARK    1  A    between atoms: NBC_2  and  CBB_4 
REMARK    2  A    between atoms: CBB_4  and  CBA_5 
REMARK    3  A    between atoms: CBA_5  and  CAY_6 
REMARK    4  A    between atoms: CAY_6  and  NAH_7 
REMARK    5  A    between atoms: CAG_15  and  CAI_16 
REMARK    6  A    between atoms: CAJ_22  and  CAK_23 
ROOT
HETATM    1  CAI   D T1001      -4.014  -0.829 -11.354  1.00 35.40     0.064 A 
HETATM    2  CAT   D T1001      -5.412  -0.328 -11.249  1.00 36.13     0.282 A 
HETATM    3  OAZ   D T1001      -5.720   0.870 -10.905  1.00 33.53    -0.265 OA
HETATM    4  NAU   D T1001      -6.356  -1.273 -11.454  1.00 33.87    -0.169 NA
HETATM    5  CAV   D T1001      -5.683  -2.383 -11.784  1.00 34.90     0.282 A 
HETATM    6  OAX   D T1001      -6.297  -3.466 -12.059  1.00 35.00    -0.265 OA
HETATM    7  CAJ   D T1001      -4.210  -2.228 -11.773  1.00 32.88     0.064 A 
ENDROOT
BRANCH   1   8
HETATM    8  CAG   D T1001      -2.777   0.027 -11.282  1.00 35.34     0.023 A 
HETATM    9  CAW   D T1001      -2.369   0.757 -12.374  1.00 34.78     0.076 A 
HETATM   10  NAH   D T1001      -1.285   1.469 -11.939  1.00 36.88    -0.326 N 
HETATM   11  CAE   D T1001      -1.042   1.241 -10.641  1.00 36.88     0.060 A 
HETATM   12  CAF   D T1001      -0.093   1.736  -9.743  1.00 37.02     0.017 A 
HETATM   13  CAD   D T1001      -2.010   0.348 -10.172  1.00 36.79     0.017 A 
HETATM   14  CAA   D T1001      -0.088   1.311  -8.429  1.00 37.13     0.002 A 
HETATM   15  CAB   D T1001      -1.046   0.390  -7.970  1.00 38.67     0.000 A 
HETATM   16  CAC   D T1001      -2.005  -0.115  -8.852  1.00 38.70     0.002 A 
BRANCH  10  17
HETATM   17  CAY   D T1001      -0.538   2.380 -12.784  1.00 39.32     0.108 C 
BRANCH  17  18
HETATM   18  CBA   D T1001      -1.031   3.801 -12.644  1.00 40.15     0.048 C 
BRANCH  18  19
HETATM   19  CBB   D T1001       0.241   4.627 -12.735  1.00 46.58     0.099 C 
BRANCH  19  20
HETATM   20  NBC   D T1001       0.842   4.791 -11.413  1.00 44.62    -0.365 N 
HETATM   21  CBD   D T1001      -0.010   5.413 -10.406  1.00 48.91     0.121 C 
HETATM   22  CBE   D T1001       2.176   4.333 -11.059  1.00 49.55     0.121 C 
ENDBRANCH  19  20
ENDBRANCH  18  19
ENDBRANCH  17  18
ENDBRANCH  10  17
ENDBRANCH   1   8
BRANCH   7  23
HETATM   23  CAK   D T1001      -3.228  -3.303 -12.130  1.00 34.11     0.025 A 
HETATM   24  CAM   D T1001      -1.931  -3.489 -11.611  1.00 33.58     0.019 A 
HETATM   25  CAP   D T1001      -1.174  -2.816 -10.644  1.00 31.36     0.002 A 
HETATM   26  CAN   D T1001      -1.457  -4.602 -12.309  1.00 34.83     0.081 A 
HETATM   27  CAQ   D T1001       0.109  -3.273 -10.364  1.00 33.71     0.000 A 
HETATM   28  CAR   D T1001       0.595  -4.388 -11.047  1.00 32.72     0.002 A 
HETATM   29  CAS   D T1001      -0.164  -5.073 -12.013  1.00 35.56     0.019 A 
HETATM   30  NAO   D T1001      -2.433  -5.041 -13.169  1.00 33.95    -0.244 NA
HETATM   31  CAL   D T1001      -3.549  -4.267 -13.085  1.00 33.68     0.099 A 
ENDBRANCH   7  23
TORSDOF 6
ENDMDL
MODEL 5
REMARK VINA RESULT:    -8.125      2.756      5.680
REMARK INTER + INTRA:         -12.552
REMARK INTER:                 -10.428
REMARK INTRA:                  -2.124
REMARK UNBOUND:                -1.577
REMARK  6 active torsions:
REMARK  status: ('A' for Active; 'I' for Inactive)
REMARK    1  A    between atoms: NBC_2  and  CBB_4 
REMARK    2  A    between atoms: CBB_4  and  CBA_5 
REMARK    3  A    between atoms: CBA_5  and  CAY_6 
REMARK    4  A    between atoms: CAY_6  and  NAH_7 
REMARK    5  A    between atoms: CAG_15  and  CAI_16 
REMARK    6  A    between atoms: CAJ_22  and  CAK_23 
ROOT
HETATM    1  CAI   D T1001      -4.382  -2.101 -11.341  1.00 35.40     0.064 A 
HETATM    2  CAT   D T1001      -5.697  -2.778 -11.516  1.00 36.13     0.282 A 
HETATM    3  OAZ   D T1001      -6.828  -2.207 -11.313  1.00 33.53    -0.265 OA
HETATM    4  NAU   D T1001      -5.608  -4.091 -11.818  1.00 33.87    -0.169 NA
HETATM    5  CAV   D T1001      -4.298  -4.340 -11.949  1.00 34.90     0.282 A 
HETATM    6  OAX   D T1001      -3.877  -5.505 -12.253  1.00 35.00    -0.265 OA
HETATM    7  CAJ   D T1001      -3.428  -3.169 -11.692  1.00 32.88     0.064 A 
ENDROOT
BRANCH   1   8
HETATM    8  CAG   D T1001      -4.187  -0.626 -11.112  1.00 35.34     0.023 A 
HETATM    9  CAW   D T1001      -3.972  -0.138  -9.844  1.00 34.78     0.076 A 
HETATM   10  NAH   D T1001      -3.755   1.202 -10.013  1.00 36.88    -0.326 N 
HETATM   11  CAE   D T1001      -3.789   1.542 -11.308  1.00 36.88     0.060 A 
HETATM   12  CAF   D T1001      -3.602   2.748 -11.988  1.00 37.02     0.017 A 
HETATM   13  CAD   D T1001      -4.024   0.381 -12.052  1.00 36.79     0.017 A 
HETATM   14  CAA   D T1001      -3.695   2.795 -13.365  1.00 37.13     0.002 A 
HETATM   15  CAB   D T1001      -3.959   1.630 -14.106  1.00 38.67     0.000 A 
HETATM   16  CAC   D T1001      -4.147   0.413 -13.445  1.00 38.70     0.002 A 
BRANCH  10  17
HETATM   17  CAY   D T1001      -3.484   2.110  -8.915  1.00 39.32     0.108 C 
BRANCH  17  18
HETATM   18  CBA   D T1001      -2.047   2.020  -8.460  1.00 40.15     0.048 C 
BRANCH  18  19
HETATM   19  CBB   D T1001      -1.451   3.345  -8.909  1.00 46.58     0.099 C 
BRANCH  19  20
HETATM   20  NBC   D T1001      -0.602   3.154 -10.083  1.00 44.62    -0.365 N 
HETATM   21  CBD   D T1001      -0.153   1.787 -10.320  1.00 48.91     0.121 C 
HETATM   22  CBE   D T1001      -0.245   4.212 -11.015  1.00 49.55     0.121 C 
ENDBRANCH  19  20
ENDBRANCH  18  19
ENDBRANCH  17  18
ENDBRANCH  10  17
ENDBRANCH   1   8
BRANCH   7  23
HETATM   23  CAK   D T1001      -1.933  -3.167 -11.798  1.00 34.11     0.025 A 
HETATM   24  CAM   D T1001      -1.006  -2.659 -10.867  1.00 33.58     0.019 A 
HETATM   25  CAP   D T1001      -1.134  -2.054  -9.610  1.00 31.36     0.002 A 
HETATM   26  CAN   D T1001       0.229  -2.884 -11.479  1.00 34.83     0.081 A 
HETATM   27  CAQ   D T1001       0.017  -1.659  -8.939  1.00 33.71     0.000 A 
HETATM   28  CAR   D T1001       1.259  -1.883  -9.533  1.00 32.72     0.002 A 
HETATM   29  CAS   D T1001       1.394  -2.498 -10.791  1.00 35.56     0.019 A 
HETATM   30  NAO   D T1001       0.024  -3.503 -12.687  1.00 33.95    -0.244 NA
HETATM   31  CAL   D T1001      -1.302  -3.701 -12.921  1.00 33.68     0.099 A 
ENDBRANCH   7  23
TORSDOF 6
ENDMDL
MODEL 6
REMARK VINA RESULT:    -8.105      2.623      5.810
REMARK INTER + INTRA:         -12.525
REMARK INTER:                 -10.360
REMARK INTRA:                  -2.165
REMARK UNBOUND:                -1.577
REMARK  6 active torsions:
REMARK  status: ('A' for Active; 'I' for Inactive)
REMARK    1  A    between atoms: NBC_2  and  CBB_4 
REMARK    2  A    between atoms: CBB_4  and  CBA_5 
REMARK    3  A    between atoms: CBA_5  and  CAY_6 
REMARK    4  A    between atoms: CAY_6  and  NAH_7 
REMARK    5  A    between atoms: CAG_15  and  CAI_16 
REMARK    6  A    between atoms: CAJ_22  and  CAK_23 
ROOT
HETATM    1  CAI   D T1001      -4.358  -1.750 -11.898  1.00 35.40     0.064 A 
HETATM    2  CAT   D T1001      -5.668  -2.409 -12.155  1.00 36.13     0.282 A 
HETATM    3  OAZ   D T1001      -6.783  -1.778 -12.236  1.00 33.53    -0.265 OA
HETATM    4  NAU   D T1001      -5.610  -3.758 -12.202  1.00 33.87    -0.169 NA
HETATM    5  CAV   D T1001      -4.311  -4.064 -12.081  1.00 34.90     0.282 A 
HETATM    6  OAX   D T1001      -3.917  -5.276 -12.104  1.00 35.00    -0.265 OA
HETATM    7  CAJ   D T1001      -3.424  -2.891 -11.901  1.00 32.88     0.064 A 
ENDROOT
BRANCH   1   8
HETATM    8  CAG   D T1001      -4.116  -0.264 -11.907  1.00 35.34     0.023 A 
HETATM    9  CAW   D T1001      -3.632   0.358 -13.034  1.00 34.78     0.076 A 
HETATM   10  NAH   D T1001      -3.616   1.691 -12.724  1.00 36.88    -0.326 N 
HETATM   11  CAE   D T1001      -4.098   1.910 -11.493  1.00 36.88     0.060 A 
HETATM   12  CAF   D T1001      -4.314   3.067 -10.741  1.00 37.02     0.017 A 
HETATM   13  CAD   D T1001      -4.470   0.676 -10.950  1.00 36.79     0.017 A 
HETATM   14  CAA   D T1001      -4.842   2.983  -9.468  1.00 37.13     0.002 A 
HETATM   15  CAB   D T1001      -5.187   1.738  -8.915  1.00 38.67     0.000 A 
HETATM   16  CAC   D T1001      -4.981   0.568  -9.653  1.00 38.70     0.002 A 
BRANCH  10  17
HETATM   17  CAY   D T1001      -3.170   2.718 -13.645  1.00 39.32     0.108 C 
BRANCH  17  18
HETATM   18  CBA   D T1001      -1.665   2.733 -13.776  1.00 40.15     0.048 C 
BRANCH  18  19
HETATM   19  CBB   D T1001      -1.229   3.744 -12.728  1.00 46.58     0.099 C 
BRANCH  19  20
HETATM   20  NBC   D T1001      -0.278   3.140 -11.796  1.00 44.62    -0.365 N 
HETATM   21  CBD   D T1001       0.893   3.949 -11.480  1.00 48.91     0.121 C 
HETATM   22  CBE   D T1001      -0.468   1.847 -11.159  1.00 49.55     0.121 C 
ENDBRANCH  19  20
ENDBRANCH  18  19
ENDBRANCH  17  18
ENDBRANCH  10  17
ENDBRANCH   1   8
BRANCH   7  23
HETATM   23  CAK   D T1001      -1.933  -2.952 -11.771  1.00 34.11     0.025 A 
HETATM   24  CAM   D T1001      -1.132  -2.356 -10.775  1.00 33.58     0.019 A 
HETATM   25  CAP   D T1001      -1.418  -1.589  -9.639  1.00 31.36     0.002 A 
HETATM   26  CAN   D T1001       0.168  -2.701 -11.153  1.00 34.83     0.081 A 
HETATM   27  CAQ   D T1001      -0.363  -1.147  -8.849  1.00 33.71     0.000 A 
HETATM   28  CAR   D T1001       0.942  -1.488  -9.209  1.00 32.72     0.002 A 
HETATM   29  CAS   D T1001       1.234  -2.265 -10.343  1.00 35.56     0.019 A 
HETATM   30  NAO   D T1001       0.117  -3.465 -12.292  1.00 33.95    -0.244 NA
HETATM   31  CAL   D T1001      -1.167  -3.648 -12.705  1.00 33.68     0.099 A 
ENDBRANCH   7  23
TORSDOF 6
ENDMDL
MODEL 7
REMARK VINA RESULT:    -7.999      2.692      5.660
REMARK INTER + INTRA:         -12.381
REMARK INTER:                 -10.579
REMARK INTRA:                  -1.802
REMARK UNBOUND:                -1.577
REMARK  6 active torsions:
REMARK  status: ('A' for Active; 'I' for Inactive)
REMARK    1  A    between atoms: NBC_2  and  CBB_4 
REMARK    2  A    between atoms: CBB_4  and  CBA_5 
REMARK    3  A    between atoms: CBA_5  and  CAY_6 
REMARK    4  A    between atoms: CAY_6  and  NAH_7 
REMARK    5  A    between atoms: CAG_15  and  CAI_16 
REMARK    6  A    between atoms: CAJ_22  and  CAK_23 
ROOT
HETATM    1  CAI   D T1001      -3.385   1.860 -11.087  1.00 35.40     0.064 A 
HETATM    2  CAT   D T1001      -4.624   2.332 -10.409  1.00 36.13     0.282 A 
HETATM    3  OAZ   D T1001      -5.528   1.548  -9.945  1.00 33.53    -0.265 OA
HETATM    4  NAU   D T1001      -4.775   3.674 -10.403  1.00 33.87    -0.169 NA
HETATM    5  CAV   D T1001      -3.659   4.161 -10.963  1.00 34.90     0.282 A 
HETATM    6  OAX   D T1001      -3.484   5.418 -11.092  1.00 35.00    -0.265 OA
HETATM    7  CAJ   D T1001      -2.704   3.125 -11.417  1.00 32.88     0.064 A 
ENDROOT
BRANCH   1   8
HETATM    8  CAG   D T1001      -2.914   0.430 -11.140  1.00 35.34     0.023 A 
HETATM    9  CAW   D T1001      -1.920  -0.009 -10.297  1.00 34.78     0.076 A 
HETATM   10  NAH   D T1001      -1.807  -1.349 -10.551  1.00 36.88    -0.326 N 
HETATM   11  CAE   D T1001      -2.700  -1.747 -11.468  1.00 36.88     0.060 A 
HETATM   12  CAF   D T1001      -3.003  -2.988 -12.034  1.00 37.02     0.017 A 
HETATM   13  CAD   D T1001      -3.460  -0.635 -11.841  1.00 36.79     0.017 A 
HETATM   14  CAA   D T1001      -4.005  -3.099 -12.978  1.00 37.13     0.002 A 
HETATM   15  CAB   D T1001      -4.747  -1.971 -13.370  1.00 38.67     0.000 A 
HETATM   16  CAC   D T1001      -4.461  -0.721 -12.814  1.00 38.70     0.002 A 
BRANCH  10  17
HETATM   17  CAY   D T1001      -0.862  -2.212  -9.871  1.00 39.32     0.108 C 
BRANCH  17  18
HETATM   18  CBA   D T1001       0.511  -2.136 -10.495  1.00 40.15     0.048 C 
BRANCH  18  19
HETATM   19  CBB   D T1001       0.882  -3.595 -10.711  1.00 46.58     0.099 C 
BRANCH  19  20
HETATM   20  NBC   D T1001       0.330  -4.082 -11.974  1.00 44.62    -0.365 N 
HETATM   21  CBD   D T1001      -0.268  -5.412 -11.928  1.00 48.91     0.121 C 
HETATM   22  CBE   D T1001       0.305  -3.312 -13.207  1.00 49.55     0.121 C 
ENDBRANCH  19  20
ENDBRANCH  18  19
ENDBRANCH  17  18
ENDBRANCH  10  17
ENDBRANCH   1   8
BRANCH   7  23
HETATM   23  CAK   D T1001      -1.372   3.398 -12.048  1.00 34.11     0.025 A 
HETATM   24  CAM   D T1001      -0.155   3.685 -11.396  1.00 33.58     0.019 A 
HETATM   25  CAP   D T1001       0.219   3.781 -10.050  1.00 31.36     0.002 A 
HETATM   26  CAN   D T1001       0.739   3.885 -12.450  1.00 34.83     0.081 A 
HETATM   27  CAQ   D T1001       1.539   4.090  -9.745  1.00 33.71     0.000 A 
HETATM   28  CAR   D T1001       2.447   4.286 -10.785  1.00 32.72     0.002 A 
HETATM   29  CAS   D T1001       2.079   4.182 -12.139  1.00 35.56     0.019 A 
HETATM   30  NAO   D T1001       0.078   3.707 -13.640  1.00 33.95    -0.244 NA
HETATM   31  CAL   D T1001      -1.231   3.398 -13.435  1.00 33.68     0.099 A 
ENDBRANCH   7  23
TORSDOF 6
ENDMDL
MODEL 8
REMARK VINA RESULT:    -7.946      3.809      7.881
REMARK INTER + INTRA:         -12.310
REMARK INTER:                 -10.759
REMARK INTRA:                  -1.550
REMARK UNBOUND:                -1.577
REMARK  6 active torsions:
REMARK  status: ('A' for Active; 'I' for Inactive)
REMARK    1  A    between atoms: NBC_2  and  CBB_4 
REMARK    2  A    between atoms: CBB_4  and  CBA_5 
REMARK    3  A    between atoms: CBA_5  and  CAY_6 
REMARK    4  A    between atoms: CAY_6  and  NAH_7 
REMARK    5  A    between atoms: CAG_15  and  CAI_16 
REMARK    6  A    between atoms: CAJ_22  and  CAK_23 
ROOT
HETATM    1  CAI   D T1001      -1.920   1.819  -9.882  1.00 35.40     0.064 A 
HETATM    2  CAT   D T1001      -3.346   2.245  -9.828  1.00 36.13     0.282 A 
HETATM    3  OAZ   D T1001      -3.731   3.467  -9.899  1.00 33.53    -0.265 OA
HETATM    4  NAU   D T1001      -4.215   1.237  -9.596  1.00 33.87    -0.169 NA
HETATM    5  CAV   D T1001      -3.473   0.122  -9.576  1.00 34.90     0.282 A 
HETATM    6  OAX   D T1001      -4.009  -1.020  -9.392  1.00 35.00    -0.265 OA
HETATM    7  CAJ   D T1001      -2.022   0.354  -9.761  1.00 32.88     0.064 A 
ENDROOT
BRANCH   1   8
HETATM    8  CAG   D T1001      -0.760   2.712 -10.235  1.00 35.34     0.023 A 
HETATM    9  CAW   D T1001      -0.027   3.329  -9.247  1.00 34.78     0.076 A 
HETATM   10  NAH   D T1001       0.980   3.979  -9.906  1.00 36.88    -0.326 N 
HETATM   11  CAE   D T1001       0.919   3.758 -11.226  1.00 36.88     0.060 A 
HETATM   12  CAF   D T1001       1.714   4.160 -12.302  1.00 37.02     0.017 A 
HETATM   13  CAD   D T1001      -0.165   2.911 -11.472  1.00 36.79     0.017 A 
HETATM   14  CAA   D T1001       1.402   3.764 -13.588  1.00 37.13     0.002 A 
HETATM   15  CAB   D T1001       0.293   2.936 -13.833  1.00 38.67     0.000 A 
HETATM   16  CAC   D T1001      -0.514   2.520 -12.769  1.00 38.70     0.002 A 
BRANCH  10  17
HETATM   17  CAY   D T1001       1.995   4.765  -9.233  1.00 39.32     0.108 C 
BRANCH  17  18
HETATM   18  CBA   D T1001       3.331   4.061  -9.226  1.00 40.15     0.048 C 
BRANCH  18  19
HETATM   19  CBB   D T1001       4.304   5.145  -9.662  1.00 46.58     0.099 C 
BRANCH  19  20
HETATM   20  NBC   D T1001       5.680   4.745  -9.372  1.00 44.62    -0.365 N 
HETATM   21  CBD   D T1001       5.952   4.378  -7.987  1.00 48.91     0.121 C 
HETATM   22  CBE   D T1001       6.732   4.652 -10.373  1.00 49.55     0.121 C 
ENDBRANCH  19  20
ENDBRANCH  18  19
ENDBRANCH  17  18
ENDBRANCH  10  17
ENDBRANCH   1   8
BRANCH   7  23
HETATM   23  CAK   D T1001      -0.978  -0.720  -9.809  1.00 34.11     0.025 A 
HETATM   24  CAM   D T1001      -0.900  -1.804 -10.706  1.00 33.58     0.019 A 
HETATM   25  CAP   D T1001      -1.682  -2.214 -11.794  1.00 31.36     0.002 A 
HETATM   26  CAN   D T1001       0.235  -2.498 -10.282  1.00 34.83     0.081 A 
HETATM   27  CAQ   D T1001      -1.316  -3.364 -12.483  1.00 33.71     0.000 A 
HETATM   28  CAR   D T1001      -0.181  -4.065 -12.077  1.00 32.72     0.002 A 
HETATM   29  CAS   D T1001       0.613  -3.654 -10.992  1.00 35.56     0.019 A 
HETATM   30  NAO   D T1001       0.788  -1.841  -9.211  1.00 33.95    -0.244 NA
HETATM   31  CAL   D T1001       0.070  -0.731  -8.890  1.00 33.68     0.099 A 
ENDBRANCH   7  23
TORSDOF 6
ENDMDL
MODEL 9
REMARK VINA RESULT:    -7.839      2.995      6.909
REMARK INTER + INTRA:         -12.166
REMARK INTER:                 -10.607
REMARK INTRA:                  -1.559
REMARK UNBOUND:                -1.577
REMARK  6 active torsions:
REMARK  status: ('A' for Active; 'I' for Inactive)
REMARK    1  A    between atoms: NBC_2  and  CBB_4 
REMARK    2  A    between atoms: CBB_4  and  CBA_5 
REMARK    3  A    between atoms: CBA_5  and  CAY_6 
REMARK    4  A    between atoms: CAY_6  and  NAH_7 
REMARK    5  A    between atoms: CAG_15  and  CAI_16 
REMARK    6  A    between atoms: CAJ_22  and  CAK_23 
ROOT
HETATM    1  CAI   D T1001      -3.588   0.939 -10.982  1.00 35.40     0.064 A 
HETATM    2  CAT   D T1001      -4.982   0.994 -11.503  1.00 36.13     0.282 A 
HETATM    3  OAZ   D T1001      -5.595   2.083 -11.793  1.00 33.53    -0.265 OA
HETATM    4  NAU   D T1001      -5.601  -0.206 -11.557  1.00 33.87    -0.169 NA
HETATM    5  CAV   D T1001      -4.676  -1.102 -11.186  1.00 34.90     0.282 A 
HETATM    6  OAX   D T1001      -4.946  -2.348 -11.149  1.00 35.00    -0.265 OA
HETATM    7  CAJ   D T1001      -3.369  -0.510 -10.817  1.00 32.88     0.064 A 
ENDROOT
BRANCH   1   8
HETATM    8  CAG   D T1001      -2.637   2.104 -10.920  1.00 35.34     0.023 A 
HETATM    9  CAW   D T1001      -2.331   2.693  -9.715  1.00 34.78     0.076 A 
HETATM   10  NAH   D T1001      -1.392   3.642 -10.013  1.00 36.88    -0.326 N 
HETATM   11  CAE   D T1001      -1.088   3.633 -11.318  1.00 36.88     0.060 A 
HETATM   12  CAF   D T1001      -0.191   4.367 -12.097  1.00 37.02     0.017 A 
HETATM   13  CAD   D T1001      -1.841   2.626 -11.929  1.00 36.79     0.017 A 
HETATM   14  CAA   D T1001      -0.088   4.129 -13.454  1.00 37.13     0.002 A 
HETATM   15  CAB   D T1001      -0.869   3.135 -14.068  1.00 38.67     0.000 A 
HETATM   16  CAC   D T1001      -1.771   2.387 -13.305  1.00 38.70     0.002 A 
BRANCH  10  17
HETATM   17  CAY   D T1001      -0.788   4.506  -9.018  1.00 39.32     0.108 C 
BRANCH  17  18
HETATM   18  CBA   D T1001       0.616   4.067  -8.676  1.00 40.15     0.048 C 
BRANCH  18  19
HETATM   19  CBB   D T1001       1.437   5.333  -8.863  1.00 46.58     0.099 C 
BRANCH  19  20
HETATM   20  NBC   D T1001       2.859   5.055  -8.666  1.00 44.62    -0.365 N 
HETATM   21  CBD   D T1001       3.587   6.035  -7.869  1.00 48.91     0.121 C 
HETATM   22  CBE   D T1001       3.537   3.870  -9.167  1.00 49.55     0.121 C 
ENDBRANCH  19  20
ENDBRANCH  18  19
ENDBRANCH  17  18
ENDBRANCH  10  17
ENDBRANCH   1   8
BRANCH   7  23
HETATM   23  CAK   D T1001      -2.160  -1.288 -10.395  1.00 34.11     0.025 A 
HETATM   24  CAM   D T1001      -1.476  -2.278 -11.128  1.00 33.58     0.019 A 
HETATM   25  CAP   D T1001      -1.647  -2.821 -12.408  1.00 31.36     0.002 A 
HETATM   26  CAN   D T1001      -0.463  -2.686 -10.258  1.00 34.83     0.081 A 
HETATM   27  CAQ   D T1001      -0.772  -3.813 -12.834  1.00 33.71     0.000 A 
HETATM   28  CAR   D T1001       0.250  -4.228 -11.980  1.00 32.72     0.002 A 
HETATM   29  CAS   D T1001       0.432  -3.680 -10.698  1.00 35.56     0.019 A 
HETATM   30  NAO   D T1001      -0.549  -1.960  -9.097  1.00 33.95    -0.244 NA
HETATM   31  CAL   D T1001      -1.584  -1.078  -9.143  1.00 33.68     0.099 A 
ENDBRANCH   7  23
TORSDOF 6
ENDMDL
