MODEL 1
REMARK VINA RESULT:    -7.350      0.000      0.000
REMARK INTER + INTRA:         -11.487
REMARK INTER:                  -9.928
REMARK INTRA:                  -1.558
REMARK UNBOUND:                -1.558
REMARK  6 active torsions:
REMARK  status: ('A' for Active; 'I' for Inactive)
REMARK    1  A    between atoms: NBC_2  and  CBB_4 
REMARK    2  A    between atoms: CBB_4  and  CBA_5 
REMARK    3  A    between atoms: CBA_5  and  CAY_6 
REMARK    4  A    between atoms: CAY_6  and  NAH_7 
REMARK    5  A    between atoms: CAG_15  and  CAI_16 
REMARK    6  A    between atoms: CAJ_22  and  CAK_23 
ROOT
HETATM    1  CAI   D T1001      10.182  -3.422  -0.212  1.00 35.40     0.064 A 
HETATM    2  CAT   D T1001       9.771  -4.715   0.399  1.00 36.13     0.282 A 
HETATM    3  OAZ   D T1001       8.711  -5.360   0.069  1.00 33.53    -0.265 OA
HETATM    4  NAU   D T1001      10.561  -5.124   1.417  1.00 33.87    -0.169 NA
HETATM    5  CAV   D T1001      11.551  -4.223   1.482  1.00 34.90     0.282 A 
HETATM    6  OAX   D T1001      12.485  -4.336   2.344  1.00 35.00    -0.265 OA
HETATM    7  CAJ   D T1001      11.435  -3.118   0.503  1.00 32.88     0.064 A 
ENDROOT
BRANCH   1   8
HETATM    8  CAG   D T1001       9.550  -2.795  -1.427  1.00 35.34     0.023 A 
HETATM    9  CAW   D T1001       9.107  -1.494  -1.390  1.00 34.78     0.076 A 
HETATM   10  NAH   D T1001       8.679  -1.229  -2.662  1.00 36.88    -0.326 N 
HETATM   11  CAE   D T1001       8.876  -2.280  -3.469  1.00 36.88     0.060 A 
HETATM   12  CAF   D T1001       8.642  -2.500  -4.830  1.00 37.02     0.017 A 
HETATM   13  CAD   D T1001       9.474  -3.295  -2.717  1.00 36.79     0.017 A 
HETATM   14  CAA   D T1001       8.957  -3.716  -5.404  1.00 37.13     0.002 A 
HETATM   15  CAB   D T1001       9.533  -4.743  -4.637  1.00 38.67     0.000 A 
HETATM   16  CAC   D T1001       9.776  -4.542  -3.276  1.00 38.70     0.002 A 
BRANCH  10  17
HETATM   17  CAY   D T1001       8.127   0.049  -3.068  1.00 39.32     0.108 C 
BRANCH  17  18
HETATM   18  CBA   D T1001       9.162   0.912  -3.751  1.00 40.15     0.048 C 
BRANCH  18  19
HETATM   19  CBB   D T1001       8.527   1.229  -5.095  1.00 46.58     0.099 C 
BRANCH  19  20
HETATM   20  NBC   D T1001       9.511   1.819  -6.001  1.00 44.62    -0.365 N 
HETATM   21  CBD   D T1001      10.899   1.457  -5.744  1.00 48.91     0.121 C 
HETATM   22  CBE   D T1001       9.174   2.672  -7.130  1.00 49.55     0.121 C 
ENDBRANCH  19  20
ENDBRANCH  18  19
ENDBRANCH  17  18
ENDBRANCH  10  17
ENDBRANCH   1   8
BRANCH   7  23
HETATM   23  CAK   D T1001      12.419  -2.000   0.346  1.00 34.11     0.025 A 
HETATM   24  CAM   D T1001      12.762  -1.016   1.295  1.00 33.58     0.019 A 
HETATM   25  CAP   D T1001      12.363  -0.771   2.615  1.00 31.36     0.002 A 
HETATM   26  CAN   D T1001      13.688  -0.220   0.620  1.00 34.83     0.081 A 
HETATM   27  CAQ   D T1001      12.911   0.318   3.286  1.00 33.71     0.000 A 
HETATM   28  CAR   D T1001      13.843   1.120   2.628  1.00 32.72     0.002 A 
HETATM   29  CAS   D T1001      14.254   0.872   1.306  1.00 35.56     0.019 A 
HETATM   30  NAO   D T1001      13.881  -0.727  -0.642  1.00 33.95    -0.244 NA
HETATM   31  CAL   D T1001      13.116  -1.833  -0.849  1.00 33.68     0.099 A 
ENDBRANCH   7  23
TORSDOF 6
ENDMDL
MODEL 2
REMARK VINA RESULT:    -7.078      3.401      6.892
REMARK INTER + INTRA:         -11.119
REMARK INTER:                  -9.368
REMARK INTRA:                  -1.751
REMARK UNBOUND:                -1.558
REMARK  6 active torsions:
REMARK  status: ('A' for Active; 'I' for Inactive)
REMARK    1  A    between atoms: NBC_2  and  CBB_4 
REMARK    2  A    between atoms: CBB_4  and  CBA_5 
REMARK    3  A    between atoms: CBA_5  and  CAY_6 
REMARK    4  A    between atoms: CAY_6  and  NAH_7 
REMARK    5  A    between atoms: CAG_15  and  CAI_16 
REMARK    6  A    between atoms: CAJ_22  and  CAK_23 
ROOT
HETATM    1  CAI   D T1001       9.994  -6.440  -1.470  1.00 35.40     0.064 A 
HETATM    2  CAT   D T1001      11.181  -6.516  -0.576  1.00 36.13     0.282 A 
HETATM    3  OAZ   D T1001      11.998  -5.545  -0.384  1.00 33.53    -0.265 OA
HETATM    4  NAU   D T1001      11.396  -7.740  -0.043  1.00 33.87    -0.169 NA
HETATM    5  CAV   D T1001      10.365  -8.491  -0.452  1.00 34.90     0.282 A 
HETATM    6  OAX   D T1001      10.265  -9.714  -0.101  1.00 35.00    -0.265 OA
HETATM    7  CAJ   D T1001       9.410  -7.787  -1.337  1.00 32.88     0.064 A 
ENDROOT
BRANCH   1   8
HETATM    8  CAG   D T1001       9.461  -5.180  -2.102  1.00 35.34     0.023 A 
HETATM    9  CAW   D T1001       9.070  -4.119  -1.320  1.00 34.78     0.076 A 
HETATM   10  NAH   D T1001       8.731  -3.133  -2.206  1.00 36.88    -0.326 N 
HETATM   11  CAE   D T1001       8.933  -3.525  -3.471  1.00 36.88     0.060 A 
HETATM   12  CAF   D T1001       8.773  -2.893  -4.707  1.00 37.02     0.017 A 
HETATM   13  CAD   D T1001       9.443  -4.827  -3.442  1.00 36.79     0.017 A 
HETATM   14  CAA   D T1001       9.072  -3.563  -5.877  1.00 37.13     0.002 A 
HETATM   15  CAB   D T1001       9.558  -4.881  -5.844  1.00 38.67     0.000 A 
HETATM   16  CAC   D T1001       9.727  -5.530  -4.617  1.00 38.70     0.002 A 
BRANCH  10  17
HETATM   17  CAY   D T1001       8.257  -1.824  -1.799  1.00 39.32     0.108 C 
BRANCH  17  18
HETATM   18  CBA   D T1001       9.307  -0.759  -2.013  1.00 40.15     0.048 C 
BRANCH  18  19
HETATM   19  CBB   D T1001       8.576   0.301  -2.821  1.00 46.58     0.099 C 
BRANCH  19  20
HETATM   20  NBC   D T1001       9.317   0.618  -4.041  1.00 44.62    -0.365 N 
HETATM   21  CBD   D T1001      10.725   0.242  -4.037  1.00 48.91     0.121 C 
HETATM   22  CBE   D T1001       8.723   1.218  -5.226  1.00 49.55     0.121 C 
ENDBRANCH  19  20
ENDBRANCH  18  19
ENDBRANCH  17  18
ENDBRANCH  10  17
ENDBRANCH   1   8
BRANCH   7  23
HETATM   23  CAK   D T1001       8.161  -8.386  -1.908  1.00 34.11     0.025 A 
HETATM   24  CAM   D T1001       7.886  -8.673  -3.260  1.00 33.58     0.019 A 
HETATM   25  CAP   D T1001       8.623  -8.539  -4.443  1.00 31.36     0.002 A 
HETATM   26  CAN   D T1001       6.586  -9.181  -3.228  1.00 34.83     0.081 A 
HETATM   27  CAQ   D T1001       8.036  -8.927  -5.643  1.00 33.71     0.000 A 
HETATM   28  CAR   D T1001       6.740  -9.444  -5.627  1.00 32.72     0.002 A 
HETATM   29  CAS   D T1001       5.999  -9.588  -4.440  1.00 35.56     0.019 A 
HETATM   30  NAO   D T1001       6.144  -9.202  -1.927  1.00 33.95    -0.244 NA
HETATM   31  CAL   D T1001       7.093  -8.722  -1.078  1.00 33.68     0.099 A 
ENDBRANCH   7  23
TORSDOF 6
ENDMDL
MODEL 3
REMARK VINA RESULT:    -6.884      1.967      6.332
REMARK INTER + INTRA:         -10.857
REMARK INTER:                  -9.323
REMARK INTRA:                  -1.533
REMARK UNBOUND:                -1.558
REMARK  6 active torsions:
REMARK  status: ('A' for Active; 'I' for Inactive)
REMARK    1  A    between atoms: NBC_2  and  CBB_4 
REMARK    2  A    between atoms: CBB_4  and  CBA_5 
REMARK    3  A    between atoms: CBA_5  and  CAY_6 
REMARK    4  A    between atoms: CAY_6  and  NAH_7 
REMARK    5  A    between atoms: CAG_15  and  CAI_16 
REMARK    6  A    between atoms: CAJ_22  and  CAK_23 
ROOT
HETATM    1  CAI   D T1001      10.113  -3.621  -2.289  1.00 35.40     0.064 A 
HETATM    2  CAT   D T1001      10.013  -5.019  -2.789  1.00 36.13     0.282 A 
HETATM    3  OAZ   D T1001      10.526  -6.032  -2.192  1.00 33.53    -0.265 OA
HETATM    4  NAU   D T1001       9.411  -5.135  -3.994  1.00 33.87    -0.169 NA
HETATM    5  CAV   D T1001       9.009  -3.897  -4.311  1.00 34.90     0.282 A 
HETATM    6  OAX   D T1001       8.384  -3.669  -5.400  1.00 35.00    -0.265 OA
HETATM    7  CAJ   D T1001       9.375  -2.863  -3.316  1.00 32.88     0.064 A 
ENDROOT
BRANCH   1   8
HETATM    8  CAG   D T1001      10.633  -3.217  -0.934  1.00 35.34     0.023 A 
HETATM    9  CAW   D T1001      11.436  -2.109  -0.796  1.00 34.78     0.076 A 
HETATM   10  NAH   D T1001      11.646  -1.991   0.551  1.00 36.88    -0.326 N 
HETATM   11  CAE   D T1001      10.987  -2.938   1.231  1.00 36.88     0.060 A 
HETATM   12  CAF   D T1001      10.857  -3.223   2.593  1.00 37.02     0.017 A 
HETATM   13  CAD   D T1001      10.288  -3.723   0.309  1.00 36.79     0.017 A 
HETATM   14  CAA   D T1001      10.087  -4.291   3.011  1.00 37.13     0.002 A 
HETATM   15  CAB   D T1001       9.409  -5.094   2.080  1.00 38.67     0.000 A 
HETATM   16  CAC   D T1001       9.525  -4.824   0.713  1.00 38.70     0.002 A 
BRANCH  10  17
HETATM   17  CAY   D T1001      12.451  -0.939   1.142  1.00 39.32     0.108 C 
BRANCH  17  18
HETATM   18  CBA   D T1001      13.925  -1.161   0.896  1.00 40.15     0.048 C 
BRANCH  18  19
HETATM   19  CBB   D T1001      14.461   0.244   0.671  1.00 46.58     0.099 C 
BRANCH  19  20
HETATM   20  NBC   D T1001      15.014   0.372  -0.677  1.00 44.62    -0.365 N 
HETATM   21  CBD   D T1001      14.873   1.686  -1.293  1.00 48.91     0.121 C 
HETATM   22  CBE   D T1001      15.714  -0.693  -1.378  1.00 49.55     0.121 C 
ENDBRANCH  19  20
ENDBRANCH  18  19
ENDBRANCH  17  18
ENDBRANCH  10  17
ENDBRANCH   1   8
BRANCH   7  23
HETATM   23  CAK   D T1001       9.022  -1.411  -3.414  1.00 34.11     0.025 A 
HETATM   24  CAM   D T1001       9.702  -0.408  -4.134  1.00 33.58     0.019 A 
HETATM   25  CAP   D T1001      10.830  -0.414  -4.964  1.00 31.36     0.002 A 
HETATM   26  CAN   D T1001       8.973   0.748  -3.852  1.00 34.83     0.081 A 
HETATM   27  CAQ   D T1001      11.247   0.785  -5.532  1.00 33.71     0.000 A 
HETATM   28  CAR   D T1001      10.525   1.948  -5.266  1.00 32.72     0.002 A 
HETATM   29  CAS   D T1001       9.386   1.958  -4.441  1.00 35.56     0.019 A 
HETATM   30  NAO   D T1001       7.921   0.426  -3.029  1.00 33.95    -0.244 NA
HETATM   31  CAL   D T1001       7.914  -0.904  -2.738  1.00 33.68     0.099 A 
ENDBRANCH   7  23
TORSDOF 6
ENDMDL
MODEL 4
REMARK VINA RESULT:    -6.848      2.104      4.491
REMARK INTER + INTRA:         -10.809
REMARK INTER:                  -9.154
REMARK INTRA:                  -1.654
REMARK UNBOUND:                -1.558
REMARK  6 active torsions:
REMARK  status: ('A' for Active; 'I' for Inactive)
REMARK    1  A    between atoms: NBC_2  and  CBB_4 
REMARK    2  A    between atoms: CBB_4  and  CBA_5 
REMARK    3  A    between atoms: CBA_5  and  CAY_6 
REMARK    4  A    between atoms: CAY_6  and  NAH_7 
REMARK    5  A    between atoms: CAG_15  and  CAI_16 
REMARK    6  A    between atoms: CAJ_22  and  CAK_23 
ROOT
HETATM    1  CAI   D T1001      11.532  -2.247  -1.554  1.00 35.40     0.064 A 
HETATM    2  CAT   D T1001      12.796  -1.477  -1.394  1.00 36.13     0.282 A 
HETATM    3  OAZ   D T1001      13.176  -0.548  -2.192  1.00 33.53    -0.265 OA
HETATM    4  NAU   D T1001      13.578  -1.902  -0.376  1.00 33.87    -0.169 NA
HETATM    5  CAV   D T1001      12.877  -2.869   0.231  1.00 34.90     0.282 A 
HETATM    6  OAX   D T1001      13.342  -3.472   1.255  1.00 35.00    -0.265 OA
HETATM    7  CAJ   D T1001      11.572  -3.166  -0.403  1.00 32.88     0.064 A 
ENDROOT
BRANCH   1   8
HETATM    8  CAG   D T1001      10.432  -1.918  -2.531  1.00 35.34     0.023 A 
HETATM    9  CAW   D T1001       9.931  -0.640  -2.612  1.00 34.78     0.076 A 
HETATM   10  NAH   D T1001       9.028  -0.678  -3.639  1.00 36.88    -0.326 N 
HETATM   11  CAE   D T1001       8.987  -1.892  -4.204  1.00 36.88     0.060 A 
HETATM   12  CAF   D T1001       8.268  -2.425  -5.278  1.00 37.02     0.017 A 
HETATM   13  CAD   D T1001       9.909  -2.708  -3.542  1.00 36.79     0.017 A 
HETATM   14  CAA   D T1001       8.438  -3.745  -5.644  1.00 37.13     0.002 A 
HETATM   15  CAB   D T1001       9.347  -4.568  -4.959  1.00 38.67     0.000 A 
HETATM   16  CAC   D T1001      10.076  -4.055  -3.883  1.00 38.70     0.002 A 
BRANCH  10  17
HETATM   17  CAY   D T1001       8.259   0.474  -4.068  1.00 39.32     0.108 C 
BRANCH  17  18
HETATM   18  CBA   D T1001       9.149   1.566  -4.614  1.00 40.15     0.048 C 
BRANCH  18  19
HETATM   19  CBB   D T1001       9.496   1.072  -6.010  1.00 46.58     0.099 C 
BRANCH  19  20
HETATM   20  NBC   D T1001       8.586   1.648  -6.998  1.00 44.62    -0.365 N 
HETATM   21  CBD   D T1001       8.933   2.982  -7.471  1.00 48.91     0.121 C 
HETATM   22  CBE   D T1001       7.429   0.956  -7.545  1.00 49.55     0.121 C 
ENDBRANCH  19  20
ENDBRANCH  18  19
ENDBRANCH  17  18
ENDBRANCH  10  17
ENDBRANCH   1   8
BRANCH   7  23
HETATM   23  CAK   D T1001      10.585  -4.179   0.091  1.00 34.11     0.025 A 
HETATM   24  CAM   D T1001      10.624  -5.576  -0.088  1.00 33.58     0.019 A 
HETATM   25  CAP   D T1001      11.530  -6.443  -0.711  1.00 31.36     0.002 A 
HETATM   26  CAN   D T1001       9.458  -6.018   0.539  1.00 34.83     0.081 A 
HETATM   27  CAQ   D T1001      11.259  -7.807  -0.708  1.00 33.71     0.000 A 
HETATM   28  CAR   D T1001      10.102  -8.266  -0.079  1.00 32.72     0.002 A 
HETATM   29  CAS   D T1001       9.193  -7.401   0.555  1.00 35.56     0.019 A 
HETATM   30  NAO   D T1001       8.794  -4.937   1.066  1.00 33.95    -0.244 NA
HETATM   31  CAL   D T1001       9.462  -3.779   0.814  1.00 33.68     0.099 A 
ENDBRANCH   7  23
TORSDOF 6
ENDMDL
MODEL 5
REMARK VINA RESULT:    -6.836      3.725      7.617
REMARK INTER + INTRA:         -10.792
REMARK INTER:                  -9.431
REMARK INTRA:                  -1.361
REMARK UNBOUND:                -1.558
REMARK  6 active torsions:
REMARK  status: ('A' for Active; 'I' for Inactive)
REMARK    1  A    between atoms: NBC_2  and  CBB_4 
REMARK    2  A    between atoms: CBB_4  and  CBA_5 
REMARK    3  A    between atoms: CBA_5  and  CAY_6 
REMARK    4  A    between atoms: CAY_6  and  NAH_7 
REMARK    5  A    between atoms: CAG_15  and  CAI_16 
REMARK    6  A    between atoms: CAJ_22  and  CAK_23 
ROOT
HETATM    1  CAI   D T1001       9.115  -4.910   0.092  1.00 35.40     0.064 A 
HETATM    2  CAT   D T1001       9.574  -4.191   1.311  1.00 36.13     0.282 A 
HETATM    3  OAZ   D T1001       9.466  -4.656   2.502  1.00 33.53    -0.265 OA
HETATM    4  NAU   D T1001      10.038  -2.943   1.076  1.00 33.87    -0.169 NA
HETATM    5  CAV   D T1001      10.006  -2.796  -0.255  1.00 34.90     0.282 A 
HETATM    6  OAX   D T1001      10.400  -1.715  -0.805  1.00 35.00    -0.265 OA
HETATM    7  CAJ   D T1001       9.463  -3.965  -0.984  1.00 32.88     0.064 A 
ENDROOT
BRANCH   1   8
HETATM    8  CAG   D T1001       8.660  -6.346   0.050  1.00 35.34     0.023 A 
HETATM    9  CAW   D T1001       7.587  -6.715  -0.727  1.00 34.78     0.076 A 
HETATM   10  NAH   D T1001       7.508  -8.075  -0.598  1.00 36.88    -0.326 N 
HETATM   11  CAE   D T1001       8.493  -8.547   0.178  1.00 36.88     0.060 A 
HETATM   12  CAF   D T1001       8.859  -9.834   0.584  1.00 37.02     0.017 A 
HETATM   13  CAD   D T1001       9.281  -7.465   0.582  1.00 36.79     0.017 A 
HETATM   14  CAA   D T1001       9.953 -10.021   1.406  1.00 37.13     0.002 A 
HETATM   15  CAB   D T1001      10.726  -8.927   1.831  1.00 38.67     0.000 A 
HETATM   16  CAC   D T1001      10.377  -7.633   1.434  1.00 38.70     0.002 A 
BRANCH  10  17
HETATM   17  CAY   D T1001       6.503  -8.882  -1.262  1.00 39.32     0.108 C 
BRANCH  17  18
HETATM   18  CBA   D T1001       7.100  -9.716  -2.371  1.00 40.15     0.048 C 
BRANCH  18  19
HETATM   19  CBB   D T1001       6.128  -9.519  -3.523  1.00 46.58     0.099 C 
BRANCH  19  20
HETATM   20  NBC   D T1001       6.851  -9.223  -4.759  1.00 44.62    -0.365 N 
HETATM   21  CBD   D T1001       8.097  -8.484  -4.598  1.00 48.91     0.121 C 
HETATM   22  CBE   D T1001       6.426  -9.660  -6.080  1.00 49.55     0.121 C 
ENDBRANCH  19  20
ENDBRANCH  18  19
ENDBRANCH  17  18
ENDBRANCH  10  17
ENDBRANCH   1   8
BRANCH   7  23
HETATM   23  CAK   D T1001       9.345  -4.072  -2.474  1.00 34.11     0.025 A 
HETATM   24  CAM   D T1001       8.576  -3.265  -3.335  1.00 33.58     0.019 A 
HETATM   25  CAP   D T1001       7.744  -2.157  -3.131  1.00 31.36     0.002 A 
HETATM   26  CAN   D T1001       8.806  -3.819  -4.595  1.00 34.83     0.081 A 
HETATM   27  CAQ   D T1001       7.115  -1.582  -4.230  1.00 33.71     0.000 A 
HETATM   28  CAR   D T1001       7.342  -2.120  -5.497  1.00 32.72     0.002 A 
HETATM   29  CAS   D T1001       8.183  -3.227  -5.709  1.00 35.56     0.019 A 
HETATM   30  NAO   D T1001       9.675  -4.877  -4.468  1.00 33.95    -0.244 NA
HETATM   31  CAL   D T1001      10.036  -5.063  -3.169  1.00 33.68     0.099 A 
ENDBRANCH   7  23
TORSDOF 6
ENDMDL
MODEL 6
REMARK VINA RESULT:    -6.759      3.467      7.258
REMARK INTER + INTRA:         -10.689
REMARK INTER:                  -9.238
REMARK INTRA:                  -1.450
REMARK UNBOUND:                -1.558
REMARK  6 active torsions:
REMARK  status: ('A' for Active; 'I' for Inactive)
REMARK    1  A    between atoms: NBC_2  and  CBB_4 
REMARK    2  A    between atoms: CBB_4  and  CBA_5 
REMARK    3  A    between atoms: CBA_5  and  CAY_6 
REMARK    4  A    between atoms: CAY_6  and  NAH_7 
REMARK    5  A    between atoms: CAG_15  and  CAI_16 
REMARK    6  A    between atoms: CAJ_22  and  CAK_23 
ROOT
HETATM    1  CAI   D T1001       9.311  -6.575  -0.129  1.00 35.40     0.064 A 
HETATM    2  CAT   D T1001       9.291  -7.067   1.275  1.00 36.13     0.282 A 
HETATM    3  OAZ   D T1001       9.571  -6.340   2.294  1.00 33.53    -0.265 OA
HETATM    4  NAU   D T1001       9.044  -8.391   1.395  1.00 33.87    -0.169 NA
HETATM    5  CAV   D T1001       8.802  -8.821   0.149  1.00 34.90     0.282 A 
HETATM    6  OAX   D T1001       8.516 -10.044  -0.078  1.00 35.00    -0.265 OA
HETATM    7  CAJ   D T1001       8.923  -7.775  -0.892  1.00 32.88     0.064 A 
ENDROOT
BRANCH   1   8
HETATM    8  CAG   D T1001       9.450  -5.132  -0.542  1.00 35.34     0.023 A 
HETATM    9  CAW   D T1001       8.406  -4.477  -1.151  1.00 34.78     0.076 A 
HETATM   10  NAH   D T1001       8.839  -3.188  -1.305  1.00 36.88    -0.326 N 
HETATM   11  CAE   D T1001      10.065  -3.023  -0.791  1.00 36.88     0.060 A 
HETATM   12  CAF   D T1001      10.913  -1.918  -0.674  1.00 37.02     0.017 A 
HETATM   13  CAD   D T1001      10.475  -4.246  -0.252  1.00 36.79     0.017 A 
HETATM   14  CAA   D T1001      12.152  -2.050  -0.077  1.00 37.13     0.002 A 
HETATM   15  CAB   D T1001      12.571  -3.288   0.438  1.00 38.67     0.000 A 
HETATM   16  CAC   D T1001      11.736  -4.405   0.333  1.00 38.70     0.002 A 
BRANCH  10  17
HETATM   17  CAY   D T1001       8.036  -2.145  -1.913  1.00 39.32     0.108 C 
BRANCH  17  18
HETATM   18  CBA   D T1001       7.741  -2.444  -3.364  1.00 40.15     0.048 C 
BRANCH  18  19
HETATM   19  CBB   D T1001       8.901  -1.796  -4.102  1.00 46.58     0.099 C 
BRANCH  19  20
HETATM   20  NBC   D T1001       9.845  -2.812  -4.567  1.00 44.62    -0.365 N 
HETATM   21  CBD   D T1001      11.250  -2.430  -4.528  1.00 48.91     0.121 C 
HETATM   22  CBE   D T1001       9.461  -4.147  -4.998  1.00 49.55     0.121 C 
ENDBRANCH  19  20
ENDBRANCH  18  19
ENDBRANCH  17  18
ENDBRANCH  10  17
ENDBRANCH   1   8
BRANCH   7  23
HETATM   23  CAK   D T1001       8.677  -7.984  -2.354  1.00 34.11     0.025 A 
HETATM   24  CAM   D T1001       7.644  -8.730  -2.955  1.00 33.58     0.019 A 
HETATM   25  CAP   D T1001       6.558  -9.453  -2.448  1.00 31.36     0.002 A 
HETATM   26  CAN   D T1001       7.909  -8.616  -4.321  1.00 34.83     0.081 A 
HETATM   27  CAQ   D T1001       5.704 -10.091  -3.342  1.00 33.71     0.000 A 
HETATM   28  CAR   D T1001       5.952  -9.981  -4.710  1.00 32.72     0.002 A 
HETATM   29  CAS   D T1001       7.036  -9.248  -5.225  1.00 35.56     0.019 A 
HETATM   30  NAO   D T1001       9.025  -7.833  -4.497  1.00 33.95    -0.244 NA
HETATM   31  CAL   D T1001       9.527  -7.417  -3.303  1.00 33.68     0.099 A 
ENDBRANCH   7  23
TORSDOF 6
ENDMDL
MODEL 7
REMARK VINA RESULT:    -6.623      2.160      7.273
REMARK INTER + INTRA:         -10.504
REMARK INTER:                  -8.606
REMARK INTRA:                  -1.898
REMARK UNBOUND:                -1.558
REMARK  6 active torsions:
REMARK  status: ('A' for Active; 'I' for Inactive)
REMARK    1  A    between atoms: NBC_2  and  CBB_4 
REMARK    2  A    between atoms: CBB_4  and  CBA_5 
REMARK    3  A    between atoms: CBA_5  and  CAY_6 
REMARK    4  A    between atoms: CAY_6  and  NAH_7 
REMARK    5  A    between atoms: CAG_15  and  CAI_16 
REMARK    6  A    between atoms: CAJ_22  and  CAK_23 
ROOT
HETATM    1  CAI   D T1001       9.745  -3.875  -2.342  1.00 35.40     0.064 A 
HETATM    2  CAT   D T1001       9.716  -5.220  -2.977  1.00 36.13     0.282 A 
HETATM    3  OAZ   D T1001      10.091  -6.298  -2.391  1.00 33.53    -0.265 OA
HETATM    4  NAU   D T1001       9.349  -5.212  -4.278  1.00 33.87    -0.169 NA
HETATM    5  CAV   D T1001       9.035  -3.938  -4.550  1.00 34.90     0.282 A 
HETATM    6  OAX   D T1001       8.629  -3.596  -5.711  1.00 35.00    -0.265 OA
HETATM    7  CAJ   D T1001       9.225  -3.007  -3.415  1.00 32.88     0.064 A 
ENDROOT
BRANCH   1   8
HETATM    8  CAG   D T1001      10.009  -3.608  -0.883  1.00 35.34     0.023 A 
HETATM    9  CAW   D T1001       9.352  -4.327   0.087  1.00 34.78     0.076 A 
HETATM   10  NAH   D T1001       9.886  -3.894   1.271  1.00 36.88    -0.326 N 
HETATM   11  CAE   D T1001      10.850  -2.987   1.066  1.00 36.88     0.060 A 
HETATM   12  CAF   D T1001      11.699  -2.282   1.923  1.00 37.02     0.017 A 
HETATM   13  CAD   D T1001      10.986  -2.807  -0.314  1.00 36.79     0.017 A 
HETATM   14  CAA   D T1001      12.622  -1.390   1.412  1.00 37.13     0.002 A 
HETATM   15  CAB   D T1001      12.736  -1.192   0.026  1.00 38.67     0.000 A 
HETATM   16  CAC   D T1001      11.898  -1.890  -0.848  1.00 38.70     0.002 A 
BRANCH  10  17
HETATM   17  CAY   D T1001       9.471  -4.401   2.565  1.00 39.32     0.108 C 
BRANCH  17  18
HETATM   18  CBA   D T1001       9.541  -5.909   2.621  1.00 40.15     0.048 C 
BRANCH  18  19
HETATM   19  CBB   D T1001      10.980  -6.181   3.031  1.00 46.58     0.099 C 
BRANCH  19  20
HETATM   20  NBC   D T1001      11.642  -7.033   2.045  1.00 44.62    -0.365 N 
HETATM   21  CBD   D T1001      11.604  -8.464   2.323  1.00 48.91     0.121 C 
HETATM   22  CBE   D T1001      12.264  -6.542   0.825  1.00 49.55     0.121 C 
ENDBRANCH  19  20
ENDBRANCH  18  19
ENDBRANCH  17  18
ENDBRANCH  10  17
ENDBRANCH   1   8
BRANCH   7  23
HETATM   23  CAK   D T1001       8.923  -1.540  -3.444  1.00 34.11     0.025 A 
HETATM   24  CAM   D T1001       9.642  -0.527  -4.108  1.00 33.58     0.019 A 
HETATM   25  CAP   D T1001      10.777  -0.531  -4.929  1.00 31.36     0.002 A 
HETATM   26  CAN   D T1001       8.949   0.638  -3.775  1.00 34.83     0.081 A 
HETATM   27  CAQ   D T1001      11.239   0.680  -5.434  1.00 33.71     0.000 A 
HETATM   28  CAR   D T1001      10.553   1.852  -5.117  1.00 32.72     0.002 A 
HETATM   29  CAS   D T1001       9.408   1.860  -4.300  1.00 35.56     0.019 A 
HETATM   30  NAO   D T1001       7.880   0.311  -2.977  1.00 33.95    -0.244 NA
HETATM   31  CAL   D T1001       7.826  -1.030  -2.752  1.00 33.68     0.099 A 
ENDBRANCH   7  23
TORSDOF 6
ENDMDL
MODEL 8
REMARK VINA RESULT:    -6.516      2.017      7.025
REMARK INTER + INTRA:         -10.360
REMARK INTER:                  -8.835
REMARK INTRA:                  -1.525
REMARK UNBOUND:                -1.558
REMARK  6 active torsions:
REMARK  status: ('A' for Active; 'I' for Inactive)
REMARK    1  A    between atoms: NBC_2  and  CBB_4 
REMARK    2  A    between atoms: CBB_4  and  CBA_5 
REMARK    3  A    between atoms: CBA_5  and  CAY_6 
REMARK    4  A    between atoms: CAY_6  and  NAH_7 
REMARK    5  A    between atoms: CAG_15  and  CAI_16 
REMARK    6  A    between atoms: CAJ_22  and  CAK_23 
ROOT
HETATM    1  CAI   D T1001      11.426  -2.765  -0.393  1.00 35.40     0.064 A 
HETATM    2  CAT   D T1001      10.807  -3.740   0.546  1.00 36.13     0.282 A 
HETATM    3  OAZ   D T1001      11.250  -3.982   1.725  1.00 33.53    -0.265 OA
HETATM    4  NAU   D T1001       9.775  -4.437   0.019  1.00 33.87    -0.169 NA
HETATM    5  CAV   D T1001       9.592  -3.929  -1.207  1.00 34.90     0.282 A 
HETATM    6  OAX   D T1001       8.668  -4.371  -1.969  1.00 35.00    -0.265 OA
HETATM    7  CAJ   D T1001      10.553  -2.865  -1.576  1.00 32.88     0.064 A 
ENDROOT
BRANCH   1   8
HETATM    8  CAG   D T1001      12.513  -1.784  -0.034  1.00 35.34     0.023 A 
HETATM    9  CAW   D T1001      13.478  -1.447  -0.953  1.00 34.78     0.076 A 
HETATM   10  NAH   D T1001      14.235  -0.489  -0.335  1.00 36.88    -0.326 N 
HETATM   11  CAE   D T1001      13.757  -0.204   0.884  1.00 36.88     0.060 A 
HETATM   12  CAF   D T1001      14.145   0.700   1.877  1.00 37.02     0.017 A 
HETATM   13  CAD   D T1001      12.622  -0.991   1.097  1.00 36.79     0.017 A 
HETATM   14  CAA   D T1001      13.441   0.777   3.063  1.00 37.13     0.002 A 
HETATM   15  CAB   D T1001      12.317  -0.035   3.283  1.00 38.67     0.000 A 
HETATM   16  CAC   D T1001      11.912  -0.945   2.301  1.00 38.70     0.002 A 
BRANCH  10  17
HETATM   17  CAY   D T1001      15.377   0.150  -0.960  1.00 39.32     0.108 C 
BRANCH  17  18
HETATM   18  CBA   D T1001      16.413  -0.861  -1.392  1.00 40.15     0.048 C 
BRANCH  18  19
HETATM   19  CBB   D T1001      17.539  -0.664  -0.390  1.00 46.58     0.099 C 
BRANCH  19  20
HETATM   20  NBC   D T1001      17.328  -1.501   0.790  1.00 44.62    -0.365 N 
HETATM   21  CBD   D T1001      17.540  -0.844   2.074  1.00 48.91     0.121 C 
HETATM   22  CBE   D T1001      16.883  -2.885   0.741  1.00 49.55     0.121 C 
ENDBRANCH  19  20
ENDBRANCH  18  19
ENDBRANCH  17  18
ENDBRANCH  10  17
ENDBRANCH   1   8
BRANCH   7  23
HETATM   23  CAK   D T1001      10.552  -2.115  -2.872  1.00 34.11     0.025 A 
HETATM   24  CAM   D T1001       9.740  -1.020  -3.231  1.00 33.58     0.019 A 
HETATM   25  CAP   D T1001       8.755  -0.288  -2.556  1.00 31.36     0.002 A 
HETATM   26  CAN   D T1001      10.128  -0.741  -4.542  1.00 34.83     0.081 A 
HETATM   27  CAQ   D T1001       8.131   0.762  -3.220  1.00 33.71     0.000 A 
HETATM   28  CAR   D T1001       8.512   1.058  -4.528  1.00 32.72     0.002 A 
HETATM   29  CAS   D T1001       9.507   0.333  -5.208  1.00 35.56     0.019 A 
HETATM   30  NAO   D T1001      11.120  -1.616  -4.913  1.00 33.95    -0.244 NA
HETATM   31  CAL   D T1001      11.415  -2.481  -3.904  1.00 33.68     0.099 A 
ENDBRANCH   7  23
TORSDOF 6
ENDMDL
MODEL 9
REMARK VINA RESULT:    -6.449      1.673      7.176
REMARK INTER + INTRA:         -10.270
REMARK INTER:                  -8.561
REMARK INTRA:                  -1.709
REMARK UNBOUND:                -1.558
REMARK  6 active torsions:
REMARK  status: ('A' for Active; 'I' for Inactive)
REMARK    1  A    between atoms: NBC_2  and  CBB_4 
REMARK    2  A    between atoms: CBB_4  and  CBA_5 
REMARK    3  A    between atoms: CBA_5  and  CAY_6 
REMARK    4  A    between atoms: CAY_6  and  NAH_7 
REMARK    5  A    between atoms: CAG_15  and  CAI_16 
REMARK    6  A    between atoms: CAJ_22  and  CAK_23 
ROOT
HETATM    1  CAI   D T1001      11.458  -3.277  -0.139  1.00 35.40     0.064 A 
HETATM    2  CAT   D T1001      11.414  -4.535   0.653  1.00 36.13     0.282 A 
HETATM    3  OAZ   D T1001      12.329  -4.897   1.477  1.00 33.53    -0.265 OA
HETATM    4  NAU   D T1001      10.362  -5.335   0.366  1.00 33.87    -0.169 NA
HETATM    5  CAV   D T1001       9.628  -4.650  -0.522  1.00 34.90     0.282 A 
HETATM    6  OAX   D T1001       8.543  -5.134  -0.987  1.00 35.00    -0.265 OA
HETATM    7  CAJ   D T1001      10.200  -3.340  -0.905  1.00 32.88     0.064 A 
ENDROOT
BRANCH   1   8
HETATM    8  CAG   D T1001      12.452  -2.161   0.057  1.00 35.34     0.023 A 
HETATM    9  CAW   D T1001      13.268  -1.765  -0.976  1.00 34.78     0.076 A 
HETATM   10  NAH   D T1001      13.966  -0.695  -0.485  1.00 36.88    -0.326 N 
HETATM   11  CAE   D T1001      13.589  -0.402   0.766  1.00 36.88     0.060 A 
HETATM   12  CAF   D T1001      13.969   0.591   1.673  1.00 37.02     0.017 A 
HETATM   13  CAD   D T1001      12.584  -1.301   1.136  1.00 36.79     0.017 A 
HETATM   14  CAA   D T1001      13.390   0.650   2.926  1.00 37.13     0.002 A 
HETATM   15  CAB   D T1001      12.399  -0.272   3.302  1.00 38.67     0.000 A 
HETATM   16  CAC   D T1001      12.004  -1.272   2.409  1.00 38.70     0.002 A 
BRANCH  10  17
HETATM   17  CAY   D T1001      14.952   0.035  -1.258  1.00 39.32     0.108 C 
BRANCH  17  18
HETATM   18  CBA   D T1001      16.178  -0.804  -1.533  1.00 40.15     0.048 C 
BRANCH  18  19
HETATM   19  CBB   D T1001      17.149  -0.378  -0.443  1.00 46.58     0.099 C 
BRANCH  19  20
HETATM   20  NBC   D T1001      17.145  -1.344   0.654  1.00 44.62    -0.365 N 
HETATM   21  CBD   D T1001      17.424  -0.797   1.975  1.00 48.91     0.121 C 
HETATM   22  CBE   D T1001      16.838  -2.758   0.497  1.00 49.55     0.121 C 
ENDBRANCH  19  20
ENDBRANCH  18  19
ENDBRANCH  17  18
ENDBRANCH  10  17
ENDBRANCH   1   8
BRANCH   7  23
HETATM   23  CAK   D T1001       9.567  -2.368  -1.853  1.00 34.11     0.025 A 
HETATM   24  CAM   D T1001       9.128  -2.614  -3.170  1.00 33.58     0.019 A 
HETATM   25  CAP   D T1001       9.101  -3.756  -3.980  1.00 31.36     0.002 A 
HETATM   26  CAN   D T1001       8.660  -1.370  -3.595  1.00 34.83     0.081 A 
HETATM   27  CAQ   D T1001       8.587  -3.649  -5.268  1.00 33.71     0.000 A 
HETATM   28  CAR   D T1001       8.108  -2.415  -5.705  1.00 32.72     0.002 A 
HETATM   29  CAS   D T1001       8.125  -1.267  -4.893  1.00 35.56     0.019 A 
HETATM   30  NAO   D T1001       8.805  -0.462  -2.574  1.00 33.95    -0.244 NA
HETATM   31  CAL   D T1001       9.360  -1.043  -1.476  1.00 33.68     0.099 A 
ENDBRANCH   7  23
TORSDOF 6
ENDMDL
