MODEL 1
REMARK VINA RESULT:    -7.491      0.000      0.000
REMARK INTER + INTRA:         -11.859
REMARK INTER:                 -10.118
REMARK INTRA:                  -1.741
REMARK UNBOUND:                -1.741
REMARK  6 active torsions:
REMARK  status: ('A' for Active; 'I' for Inactive)
REMARK    1  A    between atoms: NBC_2  and  CBB_4 
REMARK    2  A    between atoms: CBB_4  and  CBA_5 
REMARK    3  A    between atoms: CBA_5  and  CAY_6 
REMARK    4  A    between atoms: CAY_6  and  NAH_7 
REMARK    5  A    between atoms: CAG_15  and  CAI_16 
REMARK    6  A    between atoms: CAJ_22  and  CAK_23 
ROOT
HETATM    1  CAI   D T1001       9.566   2.001  -3.990  1.00 35.40     0.064 A 
HETATM    2  CAT   D T1001      10.204   0.676  -4.225  1.00 36.13     0.282 A 
HETATM    3  OAZ   D T1001      11.235   0.256  -3.589  1.00 33.53    -0.265 OA
HETATM    4  NAU   D T1001       9.663  -0.024  -5.246  1.00 33.87    -0.169 NA
HETATM    5  CAV   D T1001       8.625   0.708  -5.673  1.00 34.90     0.282 A 
HETATM    6  OAX   D T1001       7.889   0.305  -6.632  1.00 35.00    -0.265 OA
HETATM    7  CAJ   D T1001       8.450   1.991  -4.953  1.00 32.88     0.064 A 
ENDROOT
BRANCH   1   8
HETATM    8  CAG   D T1001       9.894   2.934  -2.853  1.00 35.34     0.023 A 
HETATM    9  CAW   D T1001      10.208   2.436  -1.610  1.00 34.78     0.076 A 
HETATM   10  NAH   D T1001      10.528   3.534  -0.860  1.00 36.88    -0.326 N 
HETATM   11  CAE   D T1001      10.464   4.657  -1.589  1.00 36.88     0.060 A 
HETATM   12  CAF   D T1001      10.719   6.000  -1.303  1.00 37.02     0.017 A 
HETATM   13  CAD   D T1001      10.098   4.304  -2.891  1.00 36.79     0.017 A 
HETATM   14  CAA   D T1001      10.568   6.963  -2.281  1.00 37.13     0.002 A 
HETATM   15  CAB   D T1001      10.171   6.607  -3.582  1.00 38.67     0.000 A 
HETATM   16  CAC   D T1001       9.913   5.267  -3.889  1.00 38.70     0.002 A 
BRANCH  10  17
HETATM   17  CAY   D T1001      10.926   3.460   0.533  1.00 39.32     0.108 C 
BRANCH  17  18
HETATM   18  CBA   D T1001      11.918   2.346   0.770  1.00 40.15     0.048 C 
BRANCH  18  19
HETATM   19  CBB   D T1001      11.278   1.535   1.885  1.00 46.58     0.099 C 
BRANCH  19  20
HETATM   20  NBC   D T1001      10.708   0.297   1.357  1.00 44.62    -0.365 N 
HETATM   21  CBD   D T1001       9.255   0.275   1.231  1.00 48.91     0.121 C 
HETATM   22  CBE   D T1001      11.497  -0.844   0.920  1.00 49.55     0.121 C 
ENDBRANCH  19  20
ENDBRANCH  18  19
ENDBRANCH  17  18
ENDBRANCH  10  17
ENDBRANCH   1   8
BRANCH   7  23
HETATM   23  CAK   D T1001       7.354   2.979  -5.212  1.00 34.11     0.025 A 
HETATM   24  CAM   D T1001       7.248   3.882  -6.290  1.00 33.58     0.019 A 
HETATM   25  CAP   D T1001       8.041   4.134  -7.417  1.00 31.36     0.002 A 
HETATM   26  CAN   D T1001       6.068   4.576  -6.019  1.00 34.83     0.081 A 
HETATM   27  CAQ   D T1001       7.637   5.122  -8.308  1.00 33.71     0.000 A 
HETATM   28  CAR   D T1001       6.457   5.821  -8.057  1.00 32.72     0.002 A 
HETATM   29  CAS   D T1001       5.653   5.565  -6.931  1.00 35.56     0.019 A 
HETATM   30  NAO   D T1001       5.517   4.089  -4.860  1.00 33.95    -0.244 NA
HETATM   31  CAL   D T1001       6.281   3.096  -4.330  1.00 33.68     0.099 A 
ENDBRANCH   7  23
TORSDOF 6
ENDMDL
MODEL 2
REMARK VINA RESULT:    -7.397      2.645      7.284
REMARK INTER + INTRA:         -11.733
REMARK INTER:                 -10.318
REMARK INTRA:                  -1.415
REMARK UNBOUND:                -1.741
REMARK  6 active torsions:
REMARK  status: ('A' for Active; 'I' for Inactive)
REMARK    1  A    between atoms: NBC_2  and  CBB_4 
REMARK    2  A    between atoms: CBB_4  and  CBA_5 
REMARK    3  A    between atoms: CBA_5  and  CAY_6 
REMARK    4  A    between atoms: CAY_6  and  NAH_7 
REMARK    5  A    between atoms: CAG_15  and  CAI_16 
REMARK    6  A    between atoms: CAJ_22  and  CAK_23 
ROOT
HETATM    1  CAI   D T1001       9.197   3.533  -0.705  1.00 35.40     0.064 A 
HETATM    2  CAT   D T1001       9.547   2.703   0.481  1.00 36.13     0.282 A 
HETATM    3  OAZ   D T1001       9.240   1.464   0.603  1.00 33.53    -0.265 OA
HETATM    4  NAU   D T1001      10.140   3.390   1.481  1.00 33.87    -0.169 NA
HETATM    5  CAV   D T1001      10.301   4.636   1.013  1.00 34.90     0.282 A 
HETATM    6  OAX   D T1001      10.855   5.537   1.725  1.00 35.00    -0.265 OA
HETATM    7  CAJ   D T1001       9.765   4.846  -0.352  1.00 32.88     0.064 A 
ENDROOT
BRANCH   1   8
HETATM    8  CAG   D T1001       8.633   3.005  -1.999  1.00 35.34     0.023 A 
HETATM    9  CAW   D T1001       7.457   3.509  -2.503  1.00 34.78     0.076 A 
HETATM   10  NAH   D T1001       7.290   2.879  -3.706  1.00 36.88    -0.326 N 
HETATM   11  CAE   D T1001       8.315   2.058  -3.972  1.00 36.88     0.060 A 
HETATM   12  CAF   D T1001       8.626   1.234  -5.056  1.00 37.02     0.017 A 
HETATM   13  CAD   D T1001       9.223   2.145  -2.913  1.00 36.79     0.017 A 
HETATM   14  CAA   D T1001       9.786   0.486  -5.055  1.00 37.13     0.002 A 
HETATM   15  CAB   D T1001      10.682   0.555  -3.973  1.00 38.67     0.000 A 
HETATM   16  CAC   D T1001      10.391   1.377  -2.880  1.00 38.70     0.002 A 
BRANCH  10  17
HETATM   17  CAY   D T1001       6.159   3.119  -4.582  1.00 39.32     0.108 C 
BRANCH  17  18
HETATM   18  CBA   D T1001       6.537   4.005  -5.747  1.00 40.15     0.048 C 
BRANCH  18  19
HETATM   19  CBB   D T1001       6.066   3.214  -6.957  1.00 46.58     0.099 C 
BRANCH  19  20
HETATM   20  NBC   D T1001       6.363   3.939  -8.191  1.00 44.62    -0.365 N 
HETATM   21  CBD   D T1001       5.652   3.482  -9.379  1.00 48.91     0.121 C 
HETATM   22  CBE   D T1001       7.258   5.085  -8.270  1.00 49.55     0.121 C 
ENDBRANCH  19  20
ENDBRANCH  18  19
ENDBRANCH  17  18
ENDBRANCH  10  17
ENDBRANCH   1   8
BRANCH   7  23
HETATM   23  CAK   D T1001       9.841   6.132  -1.116  1.00 34.11     0.025 A 
HETATM   24  CAM   D T1001       9.344   7.393  -0.728  1.00 33.58     0.019 A 
HETATM   25  CAP   D T1001       8.689   7.859   0.419  1.00 31.36     0.002 A 
HETATM   26  CAN   D T1001       9.652   8.214  -1.814  1.00 34.83     0.081 A 
HETATM   27  CAQ   D T1001       8.325   9.200   0.481  1.00 33.71     0.000 A 
HETATM   28  CAR   D T1001       8.632  10.036  -0.593  1.00 32.72     0.002 A 
HETATM   29  CAS   D T1001       9.297   9.574  -1.742  1.00 35.56     0.019 A 
HETATM   30  NAO   D T1001      10.304   7.471  -2.767  1.00 33.95    -0.244 NA
HETATM   31  CAL   D T1001      10.445   6.177  -2.372  1.00 33.68     0.099 A 
ENDBRANCH   7  23
TORSDOF 6
ENDMDL
MODEL 3
REMARK VINA RESULT:    -7.368      1.894      2.260
REMARK INTER + INTRA:         -11.694
REMARK INTER:                 -11.992
REMARK INTRA:                   0.299
REMARK UNBOUND:                -1.741
REMARK  6 active torsions:
REMARK  status: ('A' for Active; 'I' for Inactive)
REMARK    1  A    between atoms: NBC_2  and  CBB_4 
REMARK    2  A    between atoms: CBB_4  and  CBA_5 
REMARK    3  A    between atoms: CBA_5  and  CAY_6 
REMARK    4  A    between atoms: CAY_6  and  NAH_7 
REMARK    5  A    between atoms: CAG_15  and  CAI_16 
REMARK    6  A    between atoms: CAJ_22  and  CAK_23 
ROOT
HETATM    1  CAI   D T1001       8.204   2.143  -5.185  1.00 35.40     0.064 A 
HETATM    2  CAT   D T1001       8.663   0.730  -5.296  1.00 36.13     0.282 A 
HETATM    3  OAZ   D T1001       9.432   0.159  -4.443  1.00 33.53    -0.265 OA
HETATM    4  NAU   D T1001       8.280   0.112  -6.434  1.00 33.87    -0.169 NA
HETATM    5  CAV   D T1001       7.503   0.995  -7.077  1.00 34.90     0.282 A 
HETATM    6  OAX   D T1001       6.964   0.702  -8.194  1.00 35.00    -0.265 OA
HETATM    7  CAJ   D T1001       7.365   2.298  -6.386  1.00 32.88     0.064 A 
ENDROOT
BRANCH   1   8
HETATM    8  CAG   D T1001       8.392   3.026  -3.979  1.00 35.34     0.023 A 
HETATM    9  CAW   D T1001       8.022   2.588  -2.729  1.00 34.78     0.076 A 
HETATM   10  NAH   D T1001       8.406   3.586  -1.876  1.00 36.88    -0.326 N 
HETATM   11  CAE   D T1001       9.021   4.578  -2.534  1.00 36.88     0.060 A 
HETATM   12  CAF   D T1001       9.611   5.777  -2.126  1.00 37.02     0.017 A 
HETATM   13  CAD   D T1001       9.068   4.233  -3.888  1.00 36.79     0.017 A 
HETATM   14  CAA   D T1001      10.187   6.622  -3.053  1.00 37.13     0.002 A 
HETATM   15  CAB   D T1001      10.206   6.284  -4.417  1.00 38.67     0.000 A 
HETATM   16  CAC   D T1001       9.624   5.087  -4.846  1.00 38.70     0.002 A 
BRANCH  10  17
HETATM   17  CAY   D T1001       8.201   3.533  -0.441  1.00 39.32     0.108 C 
BRANCH  17  18
HETATM   18  CBA   D T1001       9.476   3.181   0.290  1.00 40.15     0.048 C 
BRANCH  18  19
HETATM   19  CBB   D T1001       9.397   1.669   0.428  1.00 46.58     0.099 C 
BRANCH  19  20
HETATM   20  NBC   D T1001      10.636   1.047  -0.033  1.00 44.62    -0.365 N 
HETATM   21  CBD   D T1001      11.230   0.074   0.877  1.00 48.91     0.121 C 
HETATM   22  CBE   D T1001      11.247   1.304  -1.328  1.00 49.55     0.121 C 
ENDBRANCH  19  20
ENDBRANCH  18  19
ENDBRANCH  17  18
ENDBRANCH  10  17
ENDBRANCH   1   8
BRANCH   7  23
HETATM   23  CAK   D T1001       6.533   3.445  -6.874  1.00 34.11     0.025 A 
HETATM   24  CAM   D T1001       5.766   3.510  -8.054  1.00 33.58     0.019 A 
HETATM   25  CAP   D T1001       5.506   2.598  -9.086  1.00 31.36     0.002 A 
HETATM   26  CAN   D T1001       5.234   4.800  -8.029  1.00 34.83     0.081 A 
HETATM   27  CAQ   D T1001       4.682   2.993 -10.134  1.00 33.71     0.000 A 
HETATM   28  CAR   D T1001       4.136   4.277 -10.120  1.00 32.72     0.002 A 
HETATM   29  CAS   D T1001       4.387   5.192  -9.082  1.00 35.56     0.019 A 
HETATM   30  NAO   D T1001       5.658   5.437  -6.889  1.00 33.95    -0.244 NA
HETATM   31  CAL   D T1001       6.461   4.631  -6.143  1.00 33.68     0.099 A 
ENDBRANCH   7  23
TORSDOF 6
ENDMDL
MODEL 4
REMARK VINA RESULT:    -7.237      2.968      5.761
REMARK INTER + INTRA:         -11.516
REMARK INTER:                 -10.281
REMARK INTRA:                  -1.235
REMARK UNBOUND:                -1.741
REMARK  6 active torsions:
REMARK  status: ('A' for Active; 'I' for Inactive)
REMARK    1  A    between atoms: NBC_2  and  CBB_4 
REMARK    2  A    between atoms: CBB_4  and  CBA_5 
REMARK    3  A    between atoms: CBA_5  and  CAY_6 
REMARK    4  A    between atoms: CAY_6  and  NAH_7 
REMARK    5  A    between atoms: CAG_15  and  CAI_16 
REMARK    6  A    between atoms: CAJ_22  and  CAK_23 
ROOT
HETATM    1  CAI   D T1001       9.451   2.716   0.053  1.00 35.40     0.064 A 
HETATM    2  CAT   D T1001       9.124   4.065   0.593  1.00 36.13     0.282 A 
HETATM    3  OAZ   D T1001       9.080   4.343   1.844  1.00 33.53    -0.265 OA
HETATM    4  NAU   D T1001       8.775   4.968  -0.349  1.00 33.87    -0.169 NA
HETATM    5  CAV   D T1001       8.930   4.340  -1.523  1.00 34.90     0.282 A 
HETATM    6  OAX   D T1001       8.693   4.938  -2.623  1.00 35.00    -0.265 OA
HETATM    7  CAJ   D T1001       9.366   2.929  -1.403  1.00 32.88     0.064 A 
ENDROOT
BRANCH   1   8
HETATM    8  CAG   D T1001       9.976   1.559   0.863  1.00 35.34     0.023 A 
HETATM    9  CAW   D T1001       9.445   0.301   0.706  1.00 34.78     0.076 A 
HETATM   10  NAH   D T1001      10.199  -0.504   1.515  1.00 36.88    -0.326 N 
HETATM   11  CAE   D T1001      11.176   0.188   2.116  1.00 36.88     0.060 A 
HETATM   12  CAF   D T1001      12.205  -0.169   2.991  1.00 37.02     0.017 A 
HETATM   13  CAD   D T1001      11.090   1.516   1.687  1.00 36.79     0.017 A 
HETATM   14  CAA   D T1001      13.088   0.784   3.456  1.00 37.13     0.002 A 
HETATM   15  CAB   D T1001      12.979   2.124   3.044  1.00 38.67     0.000 A 
HETATM   16  CAC   D T1001      11.959   2.501   2.166  1.00 38.70     0.002 A 
BRANCH  10  17
HETATM   17  CAY   D T1001       9.976  -1.931   1.653  1.00 39.32     0.108 C 
BRANCH  17  18
HETATM   18  CBA   D T1001      10.991  -2.731   0.870  1.00 40.15     0.048 C 
BRANCH  18  19
HETATM   19  CBB   D T1001      10.807  -4.145   1.396  1.00 46.58     0.099 C 
BRANCH  19  20
HETATM   20  NBC   D T1001      12.100  -4.809   1.545  1.00 44.62    -0.365 N 
HETATM   21  CBD   D T1001      12.458  -5.740   0.481  1.00 48.91     0.121 C 
HETATM   22  CBE   D T1001      13.030  -4.552   2.634  1.00 49.55     0.121 C 
ENDBRANCH  19  20
ENDBRANCH  18  19
ENDBRANCH  17  18
ENDBRANCH  10  17
ENDBRANCH   1   8
BRANCH   7  23
HETATM   23  CAK   D T1001       9.641   2.014  -2.557  1.00 34.11     0.025 A 
HETATM   24  CAM   D T1001       8.767   1.671  -3.609  1.00 33.58     0.019 A 
HETATM   25  CAP   D T1001       7.460   2.052  -3.939  1.00 31.36     0.002 A 
HETATM   26  CAN   D T1001       9.513   0.772  -4.373  1.00 34.83     0.081 A 
HETATM   27  CAQ   D T1001       6.875   1.510  -5.078  1.00 33.71     0.000 A 
HETATM   28  CAR   D T1001       7.609   0.616  -5.857  1.00 32.72     0.002 A 
HETATM   29  CAS   D T1001       8.924   0.237  -5.534  1.00 35.56     0.019 A 
HETATM   30  NAO   D T1001      10.752   0.619  -3.803  1.00 33.95    -0.244 NA
HETATM   31  CAL   D T1001      10.874   1.374  -2.678  1.00 33.68     0.099 A 
ENDBRANCH   7  23
TORSDOF 6
ENDMDL
MODEL 5
REMARK VINA RESULT:    -7.185      3.744      6.455
REMARK INTER + INTRA:         -11.446
REMARK INTER:                 -10.087
REMARK INTRA:                  -1.359
REMARK UNBOUND:                -1.741
REMARK  6 active torsions:
REMARK  status: ('A' for Active; 'I' for Inactive)
REMARK    1  A    between atoms: NBC_2  and  CBB_4 
REMARK    2  A    between atoms: CBB_4  and  CBA_5 
REMARK    3  A    between atoms: CBA_5  and  CAY_6 
REMARK    4  A    between atoms: CAY_6  and  NAH_7 
REMARK    5  A    between atoms: CAG_15  and  CAI_16 
REMARK    6  A    between atoms: CAJ_22  and  CAK_23 
ROOT
HETATM    1  CAI   D T1001       9.389   4.886  -0.785  1.00 35.40     0.064 A 
HETATM    2  CAT   D T1001       9.099   4.061   0.421  1.00 36.13     0.282 A 
HETATM    3  OAZ   D T1001       9.222   4.486   1.625  1.00 33.53    -0.265 OA
HETATM    4  NAU   D T1001       8.782   2.777   0.149  1.00 33.87    -0.169 NA
HETATM    5  CAV   D T1001       8.750   2.690  -1.188  1.00 34.90     0.282 A 
HETATM    6  OAX   D T1001       8.461   1.593  -1.768  1.00 35.00    -0.265 OA
HETATM    7  CAJ   D T1001       9.096   3.951  -1.886  1.00 32.88     0.064 A 
ENDROOT
BRANCH   1   8
HETATM    8  CAG   D T1001       9.657   6.368  -0.780  1.00 35.34     0.023 A 
HETATM    9  CAW   D T1001       8.639   7.260  -0.534  1.00 34.78     0.076 A 
HETATM   10  NAH   D T1001       9.242   8.488  -0.520  1.00 36.88    -0.326 N 
HETATM   11  CAE   D T1001      10.566   8.383  -0.703  1.00 36.88     0.060 A 
HETATM   12  CAF   D T1001      11.604   9.316  -0.740  1.00 37.02     0.017 A 
HETATM   13  CAD   D T1001      10.876   7.026  -0.832  1.00 36.79     0.017 A 
HETATM   14  CAA   D T1001      12.906   8.904  -0.947  1.00 37.13     0.002 A 
HETATM   15  CAB   D T1001      13.209   7.541  -1.106  1.00 38.67     0.000 A 
HETATM   16  CAC   D T1001      12.184   6.591  -1.069  1.00 38.70     0.002 A 
BRANCH  10  17
HETATM   17  CAY   D T1001       8.523   9.727  -0.291  1.00 39.32     0.108 C 
BRANCH  17  18
HETATM   18  CBA   D T1001       8.420  10.552  -1.553  1.00 40.15     0.048 C 
BRANCH  18  19
HETATM   19  CBB   D T1001       8.268  11.972  -1.034  1.00 46.58     0.099 C 
BRANCH  19  20
HETATM   20  NBC   D T1001       7.139  12.637  -1.683  1.00 44.62    -0.365 N 
HETATM   21  CBD   D T1001       6.748  12.095  -2.979  1.00 48.91     0.121 C 
HETATM   22  CBE   D T1001       6.388  13.734  -1.092  1.00 49.55     0.121 C 
ENDBRANCH  19  20
ENDBRANCH  18  19
ENDBRANCH  17  18
ENDBRANCH  10  17
ENDBRANCH   1   8
BRANCH   7  23
HETATM   23  CAK   D T1001       9.107   4.134  -3.373  1.00 34.11     0.025 A 
HETATM   24  CAM   D T1001       8.056   3.884  -4.278  1.00 33.58     0.019 A 
HETATM   25  CAP   D T1001       6.735   3.444  -4.123  1.00 31.36     0.002 A 
HETATM   26  CAN   D T1001       8.615   4.187  -5.520  1.00 34.83     0.081 A 
HETATM   27  CAQ   D T1001       5.942   3.300  -5.256  1.00 33.71     0.000 A 
HETATM   28  CAR   D T1001       6.484   3.605  -6.505  1.00 32.72     0.002 A 
HETATM   29  CAS   D T1001       7.807   4.056  -6.664  1.00 35.56     0.019 A 
HETATM   30  NAO   D T1001       9.911   4.604  -5.339  1.00 33.95    -0.244 NA
HETATM   31  CAL   D T1001      10.254   4.590  -4.023  1.00 33.68     0.099 A 
ENDBRANCH   7  23
TORSDOF 6
ENDMDL
MODEL 6
REMARK VINA RESULT:    -7.176      5.029      8.121
REMARK INTER + INTRA:         -11.434
REMARK INTER:                  -9.768
REMARK INTRA:                  -1.666
REMARK UNBOUND:                -1.741
REMARK  6 active torsions:
REMARK  status: ('A' for Active; 'I' for Inactive)
REMARK    1  A    between atoms: NBC_2  and  CBB_4 
REMARK    2  A    between atoms: CBB_4  and  CBA_5 
REMARK    3  A    between atoms: CBA_5  and  CAY_6 
REMARK    4  A    between atoms: CAY_6  and  NAH_7 
REMARK    5  A    between atoms: CAG_15  and  CAI_16 
REMARK    6  A    between atoms: CAJ_22  and  CAK_23 
ROOT
HETATM    1  CAI   D T1001      11.547   9.386  -0.735  1.00 35.40     0.064 A 
HETATM    2  CAT   D T1001      13.011   9.408  -1.006  1.00 36.13     0.282 A 
HETATM    3  OAZ   D T1001      13.770   8.378  -0.918  1.00 33.53    -0.265 OA
HETATM    4  NAU   D T1001      13.507  10.637  -1.263  1.00 33.87    -0.169 NA
HETATM    5  CAV   D T1001      12.447  11.457  -1.272  1.00 34.90     0.282 A 
HETATM    6  OAX   D T1001      12.583  12.703  -1.506  1.00 35.00    -0.265 OA
HETATM    7  CAJ   D T1001      11.160  10.788  -0.971  1.00 32.88     0.064 A 
ENDROOT
BRANCH   1   8
HETATM    8  CAG   D T1001      10.719   8.143  -0.531  1.00 35.34     0.023 A 
HETATM    9  CAW   D T1001      10.200   7.466  -1.609  1.00 34.78     0.076 A 
HETATM   10  NAH   D T1001       9.591   6.364  -1.075  1.00 36.88    -0.326 N 
HETATM   11  CAE   D T1001       9.747   6.319   0.256  1.00 36.88     0.060 A 
HETATM   12  CAF   D T1001       9.351   5.406   1.236  1.00 37.02     0.017 A 
HETATM   13  CAD   D T1001      10.506   7.429   0.638  1.00 36.79     0.017 A 
HETATM   14  CAA   D T1001       9.667   5.625   2.562  1.00 37.13     0.002 A 
HETATM   15  CAB   D T1001      10.405   6.758   2.945  1.00 38.67     0.000 A 
HETATM   16  CAC   D T1001      10.814   7.682   1.978  1.00 38.70     0.002 A 
BRANCH  10  17
HETATM   17  CAY   D T1001       8.906   5.365  -1.873  1.00 39.32     0.108 C 
BRANCH  17  18
HETATM   18  CBA   D T1001       9.620   5.113  -3.180  1.00 40.15     0.048 C 
BRANCH  18  19
HETATM   19  CBB   D T1001       9.064   3.773  -3.633  1.00 46.58     0.099 C 
BRANCH  19  20
HETATM   20  NBC   D T1001       8.144   3.951  -4.754  1.00 44.62    -0.365 N 
HETATM   21  CBD   D T1001       6.740   3.679  -4.468  1.00 48.91     0.121 C 
HETATM   22  CBE   D T1001       8.543   4.422  -6.072  1.00 49.55     0.121 C 
ENDBRANCH  19  20
ENDBRANCH  18  19
ENDBRANCH  17  18
ENDBRANCH  10  17
ENDBRANCH   1   8
BRANCH   7  23
HETATM   23  CAK   D T1001       9.824  11.466  -0.947  1.00 34.11     0.025 A 
HETATM   24  CAM   D T1001       8.785  11.353  -1.892  1.00 33.58     0.019 A 
HETATM   25  CAP   D T1001       8.631  10.611  -3.071  1.00 31.36     0.002 A 
HETATM   26  CAN   D T1001       7.801  12.213  -1.402  1.00 34.83     0.081 A 
HETATM   27  CAQ   D T1001       7.446  10.735  -3.787  1.00 33.71     0.000 A 
HETATM   28  CAR   D T1001       6.449  11.584  -3.307  1.00 32.72     0.002 A 
HETATM   29  CAS   D T1001       6.596  12.325  -2.120  1.00 35.56     0.019 A 
HETATM   30  NAO   D T1001       8.242  12.776  -0.230  1.00 33.95    -0.244 NA
HETATM   31  CAL   D T1001       9.489  12.337   0.089  1.00 33.68     0.099 A 
ENDBRANCH   7  23
TORSDOF 6
ENDMDL
MODEL 7
REMARK VINA RESULT:    -7.121      2.577      8.308
REMARK INTER + INTRA:         -11.359
REMARK INTER:                 -10.255
REMARK INTRA:                  -1.104
REMARK UNBOUND:                -1.741
REMARK  6 active torsions:
REMARK  status: ('A' for Active; 'I' for Inactive)
REMARK    1  A    between atoms: NBC_2  and  CBB_4 
REMARK    2  A    between atoms: CBB_4  and  CBA_5 
REMARK    3  A    between atoms: CBA_5  and  CAY_6 
REMARK    4  A    between atoms: CAY_6  and  NAH_7 
REMARK    5  A    between atoms: CAG_15  and  CAI_16 
REMARK    6  A    between atoms: CAJ_22  and  CAK_23 
ROOT
HETATM    1  CAI   D T1001       9.151   3.955  -0.899  1.00 35.40     0.064 A 
HETATM    2  CAT   D T1001       9.024   5.423  -0.684  1.00 36.13     0.282 A 
HETATM    3  OAZ   D T1001       8.688   6.253  -1.602  1.00 33.53    -0.265 OA
HETATM    4  NAU   D T1001       9.390   5.835   0.549  1.00 33.87    -0.169 NA
HETATM    5  CAV   D T1001       9.679   4.717   1.229  1.00 34.90     0.282 A 
HETATM    6  OAX   D T1001      10.048   4.768   2.448  1.00 35.00    -0.265 OA
HETATM    7  CAJ   D T1001       9.551   3.473   0.435  1.00 32.88     0.064 A 
ENDROOT
BRANCH   1   8
HETATM    8  CAG   D T1001       8.710   3.215  -2.135  1.00 35.34     0.023 A 
HETATM    9  CAW   D T1001       7.556   3.579  -2.790  1.00 34.78     0.076 A 
HETATM   10  NAH   D T1001       7.507   2.772  -3.894  1.00 36.88    -0.326 N 
HETATM   11  CAE   D T1001       8.582   1.974  -3.961  1.00 36.88     0.060 A 
HETATM   12  CAF   D T1001       9.007   1.017  -4.885  1.00 37.02     0.017 A 
HETATM   13  CAD   D T1001       9.401   2.262  -2.866  1.00 36.79     0.017 A 
HETATM   14  CAA   D T1001      10.193   0.337  -4.690  1.00 37.13     0.002 A 
HETATM   15  CAB   D T1001      10.999   0.609  -3.571  1.00 38.67     0.000 A 
HETATM   16  CAC   D T1001      10.593   1.566  -2.637  1.00 38.70     0.002 A 
BRANCH  10  17
HETATM   17  CAY   D T1001       6.438   2.823  -4.873  1.00 39.32     0.108 C 
BRANCH  17  18
HETATM   18  CBA   D T1001       6.557   4.038  -5.763  1.00 40.15     0.048 C 
BRANCH  18  19
HETATM   19  CBB   D T1001       7.210   3.490  -7.022  1.00 46.58     0.099 C 
BRANCH  19  20
HETATM   20  NBC   D T1001       6.205   3.245  -8.055  1.00 44.62    -0.365 N 
HETATM   21  CBD   D T1001       5.493   4.424  -8.534  1.00 48.91     0.121 C 
HETATM   22  CBE   D T1001       5.936   1.940  -8.640  1.00 49.55     0.121 C 
ENDBRANCH  19  20
ENDBRANCH  18  19
ENDBRANCH  17  18
ENDBRANCH  10  17
ENDBRANCH   1   8
BRANCH   7  23
HETATM   23  CAK   D T1001       9.787   2.090   0.961  1.00 34.11     0.025 A 
HETATM   24  CAM   D T1001      10.871   1.640   1.742  1.00 33.58     0.019 A 
HETATM   25  CAP   D T1001      11.997   2.274   2.283  1.00 31.36     0.002 A 
HETATM   26  CAN   D T1001      10.607   0.281   1.916  1.00 34.83     0.081 A 
HETATM   27  CAQ   D T1001      12.897   1.517   3.025  1.00 33.71     0.000 A 
HETATM   28  CAR   D T1001      12.644   0.158   3.215  1.00 32.72     0.002 A 
HETATM   29  CAS   D T1001      11.510  -0.480   2.681  1.00 35.56     0.019 A 
HETATM   30  NAO   D T1001       9.429  -0.031   1.285  1.00 33.95    -0.244 NA
HETATM   31  CAL   D T1001       8.886   1.062   0.684  1.00 33.68     0.099 A 
ENDBRANCH   7  23
TORSDOF 6
ENDMDL
MODEL 8
REMARK VINA RESULT:    -7.076      3.305      6.139
REMARK INTER + INTRA:         -11.300
REMARK INTER:                  -9.861
REMARK INTRA:                  -1.439
REMARK UNBOUND:                -1.741
REMARK  6 active torsions:
REMARK  status: ('A' for Active; 'I' for Inactive)
REMARK    1  A    between atoms: NBC_2  and  CBB_4 
REMARK    2  A    between atoms: CBB_4  and  CBA_5 
REMARK    3  A    between atoms: CBA_5  and  CAY_6 
REMARK    4  A    between atoms: CAY_6  and  NAH_7 
REMARK    5  A    between atoms: CAG_15  and  CAI_16 
REMARK    6  A    between atoms: CAJ_22  and  CAK_23 
ROOT
HETATM    1  CAI   D T1001      10.424   2.367  -0.133  1.00 35.40     0.064 A 
HETATM    2  CAT   D T1001      10.966   3.557   0.580  1.00 36.13     0.282 A 
HETATM    3  OAZ   D T1001      11.837   3.493   1.519  1.00 33.53    -0.265 OA
HETATM    4  NAU   D T1001      10.390   4.725   0.223  1.00 33.87    -0.169 NA
HETATM    5  CAV   D T1001       9.538   4.417  -0.765  1.00 34.90     0.282 A 
HETATM    6  OAX   D T1001       8.842   5.320  -1.335  1.00 35.00    -0.265 OA
HETATM    7  CAJ   D T1001       9.483   2.973  -1.091  1.00 32.88     0.064 A 
ENDROOT
BRANCH   1   8
HETATM    8  CAG   D T1001      10.958   0.963  -0.012  1.00 35.34     0.023 A 
HETATM    9  CAW   D T1001      11.679   0.400  -1.039  1.00 34.78     0.076 A 
HETATM   10  NAH   D T1001      12.073  -0.821  -0.566  1.00 36.88    -0.326 N 
HETATM   11  CAE   D T1001      11.666  -1.008   0.697  1.00 36.88     0.060 A 
HETATM   12  CAF   D T1001      11.834  -2.050   1.613  1.00 37.02     0.017 A 
HETATM   13  CAD   D T1001      10.979   0.140   1.103  1.00 36.79     0.017 A 
HETATM   14  CAA   D T1001      11.291  -1.960   2.879  1.00 37.13     0.002 A 
HETATM   15  CAB   D T1001      10.576  -0.815   3.273  1.00 38.67     0.000 A 
HETATM   16  CAC   D T1001      10.399   0.239   2.372  1.00 38.70     0.002 A 
BRANCH  10  17
HETATM   17  CAY   D T1001      12.866  -1.758  -1.339  1.00 39.32     0.108 C 
BRANCH  17  18
HETATM   18  CBA   D T1001      11.999  -2.629  -2.217  1.00 40.15     0.048 C 
BRANCH  18  19
HETATM   19  CBB   D T1001      11.956  -3.952  -1.469  1.00 46.58     0.099 C 
BRANCH  19  20
HETATM   20  NBC   D T1001      12.479  -5.031  -2.304  1.00 44.62    -0.365 N 
HETATM   21  CBD   D T1001      12.345  -6.375  -1.755  1.00 48.91     0.121 C 
HETATM   22  CBE   D T1001      13.053  -4.835  -3.627  1.00 49.55     0.121 C 
ENDBRANCH  19  20
ENDBRANCH  18  19
ENDBRANCH  17  18
ENDBRANCH  10  17
ENDBRANCH   1   8
BRANCH   7  23
HETATM   23  CAK   D T1001       8.638   2.368  -2.170  1.00 34.11     0.025 A 
HETATM   24  CAM   D T1001       9.075   1.689  -3.325  1.00 33.58     0.019 A 
HETATM   25  CAP   D T1001      10.340   1.341  -3.817  1.00 31.36     0.002 A 
HETATM   26  CAN   D T1001       7.889   1.374  -3.988  1.00 34.83     0.081 A 
HETATM   27  CAQ   D T1001      10.421   0.653  -5.023  1.00 33.71     0.000 A 
HETATM   28  CAR   D T1001       9.244   0.324  -5.695  1.00 32.72     0.002 A 
HETATM   29  CAS   D T1001       7.972   0.662  -5.200  1.00 35.56     0.019 A 
HETATM   30  NAO   D T1001       6.826   1.831  -3.248  1.00 33.95    -0.244 NA
HETATM   31  CAL   D T1001       7.247   2.449  -2.112  1.00 33.68     0.099 A 
ENDBRANCH   7  23
TORSDOF 6
ENDMDL
MODEL 9
REMARK VINA RESULT:    -7.076      1.915      4.394
REMARK INTER + INTRA:         -11.299
REMARK INTER:                  -9.692
REMARK INTRA:                  -1.607
REMARK UNBOUND:                -1.741
REMARK  6 active torsions:
REMARK  status: ('A' for Active; 'I' for Inactive)
REMARK    1  A    between atoms: NBC_2  and  CBB_4 
REMARK    2  A    between atoms: CBB_4  and  CBA_5 
REMARK    3  A    between atoms: CBA_5  and  CAY_6 
REMARK    4  A    between atoms: CAY_6  and  NAH_7 
REMARK    5  A    between atoms: CAG_15  and  CAI_16 
REMARK    6  A    between atoms: CAJ_22  and  CAK_23 
ROOT
HETATM    1  CAI   D T1001       9.553   2.466  -3.764  1.00 35.40     0.064 A 
HETATM    2  CAT   D T1001      10.247   1.148  -3.779  1.00 36.13     0.282 A 
HETATM    3  OAZ   D T1001      11.281   0.876  -3.072  1.00 33.53    -0.265 OA
HETATM    4  NAU   D T1001       9.754   0.275  -4.683  1.00 33.87    -0.169 NA
HETATM    5  CAV   D T1001       8.696   0.887  -5.234  1.00 34.90     0.282 A 
HETATM    6  OAX   D T1001       7.995   0.308  -6.127  1.00 35.00    -0.265 OA
HETATM    7  CAJ   D T1001       8.458   2.259  -4.728  1.00 32.88     0.064 A 
ENDROOT
BRANCH   1   8
HETATM    8  CAG   D T1001       9.823   3.579  -2.785  1.00 35.34     0.023 A 
HETATM    9  CAW   D T1001      10.213   4.820  -3.230  1.00 34.78     0.076 A 
HETATM   10  NAH   D T1001      10.284   5.593  -2.103  1.00 36.88    -0.326 N 
HETATM   11  CAE   D T1001       9.920   4.901  -1.015  1.00 36.88     0.060 A 
HETATM   12  CAF   D T1001       9.796   5.237   0.336  1.00 37.02     0.017 A 
HETATM   13  CAD   D T1001       9.575   3.609  -1.421  1.00 36.79     0.017 A 
HETATM   14  CAA   D T1001       9.384   4.292   1.255  1.00 37.13     0.002 A 
HETATM   15  CAB   D T1001       9.067   2.985   0.845  1.00 38.67     0.000 A 
HETATM   16  CAC   D T1001       9.181   2.631  -0.503  1.00 38.70     0.002 A 
BRANCH  10  17
HETATM   17  CAY   D T1001      10.665   6.993  -2.119  1.00 39.32     0.108 C 
BRANCH  17  18
HETATM   18  CBA   D T1001       9.456   7.898  -2.084  1.00 40.15     0.048 C 
BRANCH  18  19
HETATM   19  CBB   D T1001       9.751   8.835  -0.924  1.00 46.58     0.099 C 
BRANCH  19  20
HETATM   20  NBC   D T1001      10.018  10.187  -1.411  1.00 44.62    -0.365 N 
HETATM   21  CBD   D T1001       8.956  10.793  -2.204  1.00 48.91     0.121 C 
HETATM   22  CBE   D T1001      11.224  10.942  -1.105  1.00 49.55     0.121 C 
ENDBRANCH  19  20
ENDBRANCH  18  19
ENDBRANCH  17  18
ENDBRANCH  10  17
ENDBRANCH   1   8
BRANCH   7  23
HETATM   23  CAK   D T1001       7.330   3.148  -5.154  1.00 34.11     0.025 A 
HETATM   24  CAM   D T1001       7.267   3.967  -6.299  1.00 33.58     0.019 A 
HETATM   25  CAP   D T1001       8.143   4.200  -7.367  1.00 31.36     0.002 A 
HETATM   26  CAN   D T1001       6.025   4.593  -6.185  1.00 34.83     0.081 A 
HETATM   27  CAQ   D T1001       7.762   5.096  -8.360  1.00 33.71     0.000 A 
HETATM   28  CAR   D T1001       6.521   5.725  -8.265  1.00 32.72     0.002 A 
HETATM   29  CAS   D T1001       5.634   5.487  -7.199  1.00 35.56     0.019 A 
HETATM   30  NAO   D T1001       5.400   4.146  -5.047  1.00 33.95    -0.244 NA
HETATM   31  CAL   D T1001       6.173   3.246  -4.382  1.00 33.68     0.099 A 
ENDBRANCH   7  23
TORSDOF 6
ENDMDL
