MODEL 1
REMARK VINA RESULT:    -8.099      0.000      0.000
REMARK INTER + INTRA:         -12.461
REMARK INTER:                 -10.939
REMARK INTRA:                  -1.522
REMARK UNBOUND:                -1.522
REMARK  6 active torsions:
REMARK  status: ('A' for Active; 'I' for Inactive)
REMARK    1  A    between atoms: NBC_2  and  CBB_4 
REMARK    2  A    between atoms: CBB_4  and  CBA_5 
REMARK    3  A    between atoms: CBA_5  and  CAY_6 
REMARK    4  A    between atoms: CAY_6  and  NAH_7 
REMARK    5  A    between atoms: CAG_15  and  CAI_16 
REMARK    6  A    between atoms: CAJ_22  and  CAK_23 
ROOT
HETATM    1  CAI   D T1001       2.300   8.153   6.222  1.00 35.40     0.064 A 
HETATM    2  CAT   D T1001       1.437   9.283   5.780  1.00 36.13     0.282 A 
HETATM    3  OAZ   D T1001       0.183   9.370   6.039  1.00 33.53    -0.265 OA
HETATM    4  NAU   D T1001       2.062  10.182   4.989  1.00 33.87    -0.169 NA
HETATM    5  CAV   D T1001       3.340   9.779   4.933  1.00 34.90     0.282 A 
HETATM    6  OAX   D T1001       4.206  10.436   4.267  1.00 35.00    -0.265 OA
HETATM    7  CAJ   D T1001       3.617   8.531   5.678  1.00 32.88     0.064 A 
ENDROOT
BRANCH   1   8
HETATM    8  CAG   D T1001       1.893   7.077   7.194  1.00 35.34     0.023 A 
HETATM    9  CAW   D T1001       2.616   6.865   8.344  1.00 34.78     0.076 A 
HETATM   10  NAH   D T1001       1.930   5.894   9.019  1.00 36.88    -0.326 N 
HETATM   11  CAE   D T1001       0.818   5.538   8.363  1.00 36.88     0.060 A 
HETATM   12  CAF   D T1001      -0.212   4.635   8.642  1.00 37.02     0.017 A 
HETATM   13  CAD   D T1001       0.738   6.311   7.201  1.00 36.79     0.017 A 
HETATM   14  CAA   D T1001      -1.261   4.479   7.759  1.00 37.13     0.002 A 
HETATM   15  CAB   D T1001      -1.322   5.237   6.576  1.00 38.67     0.000 A 
HETATM   16  CAC   D T1001      -0.304   6.149   6.281  1.00 38.70     0.002 A 
BRANCH  10  17
HETATM   17  CAY   D T1001       2.354   5.365  10.302  1.00 39.32     0.108 C 
BRANCH  17  18
HETATM   18  CBA   D T1001       3.142   4.086  10.144  1.00 40.15     0.048 C 
BRANCH  18  19
HETATM   19  CBB   D T1001       4.291   4.256  11.125  1.00 46.58     0.099 C 
BRANCH  19  20
HETATM   20  NBC   D T1001       5.574   4.201  10.425  1.00 44.62    -0.365 N 
HETATM   21  CBD   D T1001       6.714   3.784  11.234  1.00 48.91     0.121 C 
HETATM   22  CBE   D T1001       5.745   4.480   9.008  1.00 49.55     0.121 C 
ENDBRANCH  19  20
ENDBRANCH  18  19
ENDBRANCH  17  18
ENDBRANCH  10  17
ENDBRANCH   1   8
BRANCH   7  23
HETATM   23  CAK   D T1001       4.963   7.882   5.802  1.00 34.11     0.025 A 
HETATM   24  CAM   D T1001       6.114   8.403   6.425  1.00 33.58     0.019 A 
HETATM   25  CAP   D T1001       6.382   9.592   7.116  1.00 31.36     0.002 A 
HETATM   26  CAN   D T1001       7.074   7.412   6.219  1.00 34.83     0.081 A 
HETATM   27  CAQ   D T1001       7.662   9.799   7.617  1.00 33.71     0.000 A 
HETATM   28  CAR   D T1001       8.632   8.814   7.426  1.00 32.72     0.002 A 
HETATM   29  CAS   D T1001       8.365   7.615   6.742  1.00 35.56     0.019 A 
HETATM   30  NAO   D T1001       6.503   6.370   5.530  1.00 33.95    -0.244 NA
HETATM   31  CAL   D T1001       5.194   6.620   5.257  1.00 33.68     0.099 A 
ENDBRANCH   7  23
TORSDOF 6
ENDMDL
MODEL 2
REMARK VINA RESULT:    -7.704      2.320      4.968
REMARK INTER + INTRA:         -11.928
REMARK INTER:                 -10.465
REMARK INTRA:                  -1.463
REMARK UNBOUND:                -1.522
REMARK  6 active torsions:
REMARK  status: ('A' for Active; 'I' for Inactive)
REMARK    1  A    between atoms: NBC_2  and  CBB_4 
REMARK    2  A    between atoms: CBB_4  and  CBA_5 
REMARK    3  A    between atoms: CBA_5  and  CAY_6 
REMARK    4  A    between atoms: CAY_6  and  NAH_7 
REMARK    5  A    between atoms: CAG_15  and  CAI_16 
REMARK    6  A    between atoms: CAJ_22  and  CAK_23 
ROOT
HETATM    1  CAI   D T1001       2.872   6.248   8.141  1.00 35.40     0.064 A 
HETATM    2  CAT   D T1001       2.359   5.320   9.186  1.00 36.13     0.282 A 
HETATM    3  OAZ   D T1001       1.143   5.304   9.596  1.00 33.53    -0.265 OA
HETATM    4  NAU   D T1001       3.309   4.544   9.752  1.00 33.87    -0.169 NA
HETATM    5  CAV   D T1001       4.440   4.824   9.089  1.00 34.90     0.282 A 
HETATM    6  OAX   D T1001       5.533   4.235   9.379  1.00 35.00    -0.265 OA
HETATM    7  CAJ   D T1001       4.291   5.863   8.046  1.00 32.88     0.064 A 
ENDROOT
BRANCH   1   8
HETATM    8  CAG   D T1001       2.019   7.139   7.277  1.00 35.34     0.023 A 
HETATM    9  CAW   D T1001       2.488   8.362   6.858  1.00 34.78     0.076 A 
HETATM   10  NAH   D T1001       1.510   8.855   6.039  1.00 36.88    -0.326 N 
HETATM   11  CAE   D T1001       0.500   7.985   5.909  1.00 36.88     0.060 A 
HETATM   12  CAF   D T1001      -0.691   8.001   5.177  1.00 37.02     0.017 A 
HETATM   13  CAD   D T1001       0.812   6.848   6.661  1.00 36.79     0.017 A 
HETATM   14  CAA   D T1001      -1.560   6.931   5.237  1.00 37.13     0.002 A 
HETATM   15  CAB   D T1001      -1.256   5.802   6.017  1.00 38.67     0.000 A 
HETATM   16  CAC   D T1001      -0.068   5.765   6.754  1.00 38.70     0.002 A 
BRANCH  10  17
HETATM   17  CAY   D T1001       1.601  10.141   5.374  1.00 39.32     0.108 C 
BRANCH  17  18
HETATM   18  CBA   D T1001       2.250  10.021   4.015  1.00 40.15     0.048 C 
BRANCH  18  19
HETATM   19  CBB   D T1001       3.672  10.501   4.260  1.00 46.58     0.099 C 
BRANCH  19  20
HETATM   20  NBC   D T1001       4.634   9.568   3.676  1.00 44.62    -0.365 N 
HETATM   21  CBD   D T1001       6.038   9.929   3.836  1.00 48.91     0.121 C 
HETATM   22  CBE   D T1001       4.270   8.323   3.018  1.00 49.55     0.121 C 
ENDBRANCH  19  20
ENDBRANCH  18  19
ENDBRANCH  17  18
ENDBRANCH  10  17
ENDBRANCH   1   8
BRANCH   7  23
HETATM   23  CAK   D T1001       5.389   6.340   7.143  1.00 34.11     0.025 A 
HETATM   24  CAM   D T1001       6.538   7.073   7.500  1.00 33.58     0.019 A 
HETATM   25  CAP   D T1001       7.037   7.550   8.718  1.00 31.36     0.002 A 
HETATM   26  CAN   D T1001       7.189   7.274   6.282  1.00 34.83     0.081 A 
HETATM   27  CAQ   D T1001       8.233   8.259   8.719  1.00 33.71     0.000 A 
HETATM   28  CAR   D T1001       8.900   8.462   7.510  1.00 32.72     0.002 A 
HETATM   29  CAS   D T1001       8.409   7.977   6.286  1.00 35.56     0.019 A 
HETATM   30  NAO   D T1001       6.464   6.675   5.281  1.00 33.95    -0.244 NA
HETATM   31  CAL   D T1001       5.343   6.080   5.774  1.00 33.68     0.099 A 
ENDBRANCH   7  23
TORSDOF 6
ENDMDL
MODEL 3
REMARK VINA RESULT:    -7.600      2.272      4.553
REMARK INTER + INTRA:         -11.788
REMARK INTER:                 -10.818
REMARK INTRA:                  -0.970
REMARK UNBOUND:                -1.522
REMARK  6 active torsions:
REMARK  status: ('A' for Active; 'I' for Inactive)
REMARK    1  A    between atoms: NBC_2  and  CBB_4 
REMARK    2  A    between atoms: CBB_4  and  CBA_5 
REMARK    3  A    between atoms: CBA_5  and  CAY_6 
REMARK    4  A    between atoms: CAY_6  and  NAH_7 
REMARK    5  A    between atoms: CAG_15  and  CAI_16 
REMARK    6  A    between atoms: CAJ_22  and  CAK_23 
ROOT
HETATM    1  CAI   D T1001       1.729   6.161   7.602  1.00 35.40     0.064 A 
HETATM    2  CAT   D T1001       0.312   5.752   7.807  1.00 36.13     0.282 A 
HETATM    3  OAZ   D T1001      -0.044   4.691   8.435  1.00 33.53    -0.265 OA
HETATM    4  NAU   D T1001      -0.588   6.548   7.190  1.00 33.87    -0.169 NA
HETATM    5  CAV   D T1001       0.129   7.539   6.641  1.00 34.90     0.282 A 
HETATM    6  OAX   D T1001      -0.439   8.477   5.990  1.00 35.00    -0.265 OA
HETATM    7  CAJ   D T1001       1.589   7.417   6.845  1.00 32.88     0.064 A 
ENDROOT
BRANCH   1   8
HETATM    8  CAG   D T1001       2.921   5.522   8.265  1.00 35.34     0.023 A 
HETATM    9  CAW   D T1001       2.763   4.747   9.390  1.00 34.78     0.076 A 
HETATM   10  NAH   D T1001       4.012   4.266   9.668  1.00 36.88    -0.326 N 
HETATM   11  CAE   D T1001       4.905   4.674   8.756  1.00 36.88     0.060 A 
HETATM   12  CAF   D T1001       6.271   4.437   8.579  1.00 37.02     0.017 A 
HETATM   13  CAD   D T1001       4.229   5.452   7.811  1.00 36.79     0.017 A 
HETATM   14  CAA   D T1001       6.945   5.002   7.515  1.00 37.13     0.002 A 
HETATM   15  CAB   D T1001       6.267   5.808   6.583  1.00 38.67     0.000 A 
HETATM   16  CAC   D T1001       4.899   6.054   6.741  1.00 38.70     0.002 A 
BRANCH  10  17
HETATM   17  CAY   D T1001       4.299   3.394  10.791  1.00 39.32     0.108 C 
BRANCH  17  18
HETATM   18  CBA   D T1001       4.704   4.178  12.017  1.00 40.15     0.048 C 
BRANCH  18  19
HETATM   19  CBB   D T1001       5.615   3.218  12.766  1.00 46.58     0.099 C 
BRANCH  19  20
HETATM   20  NBC   D T1001       7.013   3.617  12.616  1.00 44.62    -0.365 N 
HETATM   21  CBD   D T1001       7.383   4.871  13.264  1.00 48.91     0.121 C 
HETATM   22  CBE   D T1001       8.019   2.827  11.924  1.00 49.55     0.121 C 
ENDBRANCH  19  20
ENDBRANCH  18  19
ENDBRANCH  17  18
ENDBRANCH  10  17
ENDBRANCH   1   8
BRANCH   7  23
HETATM   23  CAK   D T1001       2.612   8.402   6.361  1.00 34.11     0.025 A 
HETATM   24  CAM   D T1001       2.864   8.796   5.032  1.00 33.58     0.019 A 
HETATM   25  CAP   D T1001       2.284   8.464   3.802  1.00 31.36     0.002 A 
HETATM   26  CAN   D T1001       3.925   9.694   5.154  1.00 34.83     0.081 A 
HETATM   27  CAQ   D T1001       2.788   9.050   2.646  1.00 33.71     0.000 A 
HETATM   28  CAR   D T1001       3.845   9.956   2.751  1.00 32.72     0.002 A 
HETATM   29  CAS   D T1001       4.423  10.300   3.985  1.00 35.56     0.019 A 
HETATM   30  NAO   D T1001       4.255   9.822   6.481  1.00 33.95    -0.244 NA
HETATM   31  CAL   D T1001       3.461   9.042   7.263  1.00 33.68     0.099 A 
ENDBRANCH   7  23
TORSDOF 6
ENDMDL
MODEL 4
REMARK VINA RESULT:    -7.441      2.408      7.663
REMARK INTER + INTRA:         -11.573
REMARK INTER:                 -10.213
REMARK INTRA:                  -1.361
REMARK UNBOUND:                -1.522
REMARK  6 active torsions:
REMARK  status: ('A' for Active; 'I' for Inactive)
REMARK    1  A    between atoms: NBC_2  and  CBB_4 
REMARK    2  A    between atoms: CBB_4  and  CBA_5 
REMARK    3  A    between atoms: CBA_5  and  CAY_6 
REMARK    4  A    between atoms: CAY_6  and  NAH_7 
REMARK    5  A    between atoms: CAG_15  and  CAI_16 
REMARK    6  A    between atoms: CAJ_22  and  CAK_23 
ROOT
HETATM    1  CAI   D T1001       4.707   6.029   7.682  1.00 35.40     0.064 A 
HETATM    2  CAT   D T1001       4.927   5.009   8.744  1.00 36.13     0.282 A 
HETATM    3  OAZ   D T1001       6.056   4.446   8.974  1.00 33.53    -0.265 OA
HETATM    4  NAU   D T1001       3.804   4.642   9.399  1.00 33.87    -0.169 NA
HETATM    5  CAV   D T1001       2.832   5.422   8.906  1.00 34.90     0.282 A 
HETATM    6  OAX   D T1001       1.635   5.331   9.336  1.00 35.00    -0.265 OA
HETATM    7  CAJ   D T1001       3.276   6.344   7.837  1.00 32.88     0.064 A 
ENDROOT
BRANCH   1   8
HETATM    8  CAG   D T1001       5.795   6.694   6.879  1.00 35.34     0.023 A 
HETATM    9  CAW   D T1001       5.689   6.796   5.511  1.00 34.78     0.076 A 
HETATM   10  NAH   D T1001       6.786   7.516   5.125  1.00 36.88    -0.326 N 
HETATM   11  CAE   D T1001       7.524   7.884   6.181  1.00 36.88     0.060 A 
HETATM   12  CAF   D T1001       8.692   8.638   6.317  1.00 37.02     0.017 A 
HETATM   13  CAD   D T1001       6.892   7.408   7.334  1.00 36.79     0.017 A 
HETATM   14  CAA   D T1001       9.235   8.864   7.566  1.00 37.13     0.002 A 
HETATM   15  CAB   D T1001       8.612   8.358   8.721  1.00 38.67     0.000 A 
HETATM   16  CAC   D T1001       7.439   7.605   8.606  1.00 38.70     0.002 A 
BRANCH  10  17
HETATM   17  CAY   D T1001       7.069   7.857   3.744  1.00 39.32     0.108 C 
BRANCH  17  18
HETATM   18  CBA   D T1001       6.585   9.247   3.403  1.00 40.15     0.048 C 
BRANCH  18  19
HETATM   19  CBB   D T1001       5.460   8.996   2.412  1.00 46.58     0.099 C 
BRANCH  19  20
HETATM   20  NBC   D T1001       4.185   9.457   2.957  1.00 44.62    -0.365 N 
HETATM   21  CBD   D T1001       4.177  10.821   3.474  1.00 48.91     0.121 C 
HETATM   22  CBE   D T1001       2.962   8.668   2.958  1.00 49.55     0.121 C 
ENDBRANCH  19  20
ENDBRANCH  18  19
ENDBRANCH  17  18
ENDBRANCH  10  17
ENDBRANCH   1   8
BRANCH   7  23
HETATM   23  CAK   D T1001       2.399   7.340   7.138  1.00 34.11     0.025 A 
HETATM   24  CAM   D T1001       1.101   7.135   6.631  1.00 33.58     0.019 A 
HETATM   25  CAP   D T1001       0.231   6.037   6.624  1.00 31.36     0.002 A 
HETATM   26  CAN   D T1001       0.774   8.366   6.062  1.00 34.83     0.081 A 
HETATM   27  CAQ   D T1001      -1.014   6.176   6.021  1.00 33.71     0.000 A 
HETATM   28  CAR   D T1001      -1.359   7.403   5.453  1.00 32.72     0.002 A 
HETATM   29  CAS   D T1001      -0.493   8.511   5.467  1.00 35.56     0.019 A 
HETATM   30  NAO   D T1001       1.820   9.237   6.246  1.00 33.95    -0.244 NA
HETATM   31  CAL   D T1001       2.845   8.642   6.914  1.00 33.68     0.099 A 
ENDBRANCH   7  23
TORSDOF 6
ENDMDL
MODEL 5
REMARK VINA RESULT:    -7.402      2.392      5.704
REMARK INTER + INTRA:         -11.521
REMARK INTER:                 -10.901
REMARK INTRA:                  -0.620
REMARK UNBOUND:                -1.522
REMARK  6 active torsions:
REMARK  status: ('A' for Active; 'I' for Inactive)
REMARK    1  A    between atoms: NBC_2  and  CBB_4 
REMARK    2  A    between atoms: CBB_4  and  CBA_5 
REMARK    3  A    between atoms: CBA_5  and  CAY_6 
REMARK    4  A    between atoms: CAY_6  and  NAH_7 
REMARK    5  A    between atoms: CAG_15  and  CAI_16 
REMARK    6  A    between atoms: CAJ_22  and  CAK_23 
ROOT
HETATM    1  CAI   D T1001       4.794   6.296   7.716  1.00 35.40     0.064 A 
HETATM    2  CAT   D T1001       6.099   5.583   7.792  1.00 36.13     0.282 A 
HETATM    3  OAZ   D T1001       6.291   4.509   8.468  1.00 33.53    -0.265 OA
HETATM    4  NAU   D T1001       7.113   6.215   7.162  1.00 33.87    -0.169 NA
HETATM    5  CAV   D T1001       6.557   7.286   6.577  1.00 34.90     0.282 A 
HETATM    6  OAX   D T1001       7.258   8.091   5.880  1.00 35.00    -0.265 OA
HETATM    7  CAJ   D T1001       5.107   7.435   6.836  1.00 32.88     0.064 A 
ENDROOT
BRANCH   1   8
HETATM    8  CAG   D T1001       3.483   5.763   8.231  1.00 35.34     0.023 A 
HETATM    9  CAW   D T1001       2.318   5.979   7.532  1.00 34.78     0.076 A 
HETATM   10  NAH   D T1001       1.357   5.298   8.226  1.00 36.88    -0.326 N 
HETATM   11  CAE   D T1001       1.880   4.656   9.279  1.00 36.88     0.060 A 
HETATM   12  CAF   D T1001       1.337   3.819  10.258  1.00 37.02     0.017 A 
HETATM   13  CAD   D T1001       3.257   4.898   9.290  1.00 36.79     0.017 A 
HETATM   14  CAA   D T1001       2.142   3.284  11.243  1.00 37.13     0.002 A 
HETATM   15  CAB   D T1001       3.521   3.554  11.268  1.00 38.67     0.000 A 
HETATM   16  CAC   D T1001       4.085   4.385  10.294  1.00 38.70     0.002 A 
BRANCH  10  17
HETATM   17  CAY   D T1001      -0.037   5.260   7.828  1.00 39.32     0.108 C 
BRANCH  17  18
HETATM   18  CBA   D T1001      -0.343   6.291   6.767  1.00 40.15     0.048 C 
BRANCH  18  19
HETATM   19  CBB   D T1001      -1.524   5.691   6.021  1.00 46.58     0.099 C 
BRANCH  19  20
HETATM   20  NBC   D T1001      -1.894   6.534   4.886  1.00 44.62    -0.365 N 
HETATM   21  CBD   D T1001      -3.052   6.087   4.121  1.00 48.91     0.121 C 
HETATM   22  CBE   D T1001      -1.219   7.773   4.533  1.00 49.55     0.121 C 
ENDBRANCH  19  20
ENDBRANCH  18  19
ENDBRANCH  17  18
ENDBRANCH  10  17
ENDBRANCH   1   8
BRANCH   7  23
HETATM   23  CAK   D T1001       4.241   8.524   6.278  1.00 34.11     0.025 A 
HETATM   24  CAM   D T1001       3.982   8.808   4.922  1.00 33.58     0.019 A 
HETATM   25  CAP   D T1001       4.381   8.210   3.720  1.00 31.36     0.002 A 
HETATM   26  CAN   D T1001       3.152   9.928   4.975  1.00 34.83     0.081 A 
HETATM   27  CAQ   D T1001       3.934   8.757   2.522  1.00 33.71     0.000 A 
HETATM   28  CAR   D T1001       3.096   9.874   2.558  1.00 32.72     0.002 A 
HETATM   29  CAS   D T1001       2.686  10.470   3.763  1.00 35.56     0.019 A 
HETATM   30  NAO   D T1001       2.930  10.261   6.289  1.00 33.95    -0.244 NA
HETATM   31  CAL   D T1001       3.584   9.413   7.128  1.00 33.68     0.099 A 
ENDBRANCH   7  23
TORSDOF 6
ENDMDL
MODEL 6
REMARK VINA RESULT:    -7.347      2.627      7.521
REMARK INTER + INTRA:         -11.446
REMARK INTER:                 -10.022
REMARK INTRA:                  -1.424
REMARK UNBOUND:                -1.522
REMARK  6 active torsions:
REMARK  status: ('A' for Active; 'I' for Inactive)
REMARK    1  A    between atoms: NBC_2  and  CBB_4 
REMARK    2  A    between atoms: CBB_4  and  CBA_5 
REMARK    3  A    between atoms: CBA_5  and  CAY_6 
REMARK    4  A    between atoms: CAY_6  and  NAH_7 
REMARK    5  A    between atoms: CAG_15  and  CAI_16 
REMARK    6  A    between atoms: CAJ_22  and  CAK_23 
ROOT
HETATM    1  CAI   D T1001       4.491   5.897   7.748  1.00 35.40     0.064 A 
HETATM    2  CAT   D T1001       5.058   5.096   8.869  1.00 36.13     0.282 A 
HETATM    3  OAZ   D T1001       6.314   4.902   9.047  1.00 33.53    -0.265 OA
HETATM    4  NAU   D T1001       4.130   4.498   9.647  1.00 33.87    -0.169 NA
HETATM    5  CAV   D T1001       2.946   4.915   9.175  1.00 34.90     0.282 A 
HETATM    6  OAX   D T1001       1.854   4.535   9.714  1.00 35.00    -0.265 OA
HETATM    7  CAJ   D T1001       3.041   5.808   7.999  1.00 32.88     0.064 A 
ENDROOT
BRANCH   1   8
HETATM    8  CAG   D T1001       5.290   6.754   6.803  1.00 35.34     0.023 A 
HETATM    9  CAW   D T1001       5.027   6.737   5.453  1.00 34.78     0.076 A 
HETATM   10  NAH   D T1001       5.863   7.677   4.917  1.00 36.88    -0.326 N 
HETATM   11  CAE   D T1001       6.585   8.285   5.868  1.00 36.88     0.060 A 
HETATM   12  CAF   D T1001       7.534   9.310   5.842  1.00 37.02     0.017 A 
HETATM   13  CAD   D T1001       6.212   7.745   7.102  1.00 36.79     0.017 A 
HETATM   14  CAA   D T1001       8.123   9.745   7.012  1.00 37.13     0.002 A 
HETATM   15  CAB   D T1001       7.767   9.178   8.249  1.00 38.67     0.000 A 
HETATM   16  CAC   D T1001       6.816   8.154   8.296  1.00 38.70     0.002 A 
BRANCH  10  17
HETATM   17  CAY   D T1001       5.912   7.986   3.501  1.00 39.32     0.108 C 
BRANCH  17  18
HETATM   18  CBA   D T1001       4.551   8.369   2.967  1.00 40.15     0.048 C 
BRANCH  18  19
HETATM   19  CBB   D T1001       4.568   9.889   3.016  1.00 46.58     0.099 C 
BRANCH  19  20
HETATM   20  NBC   D T1001       4.202  10.448   1.716  1.00 44.62    -0.365 N 
HETATM   21  CBD   D T1001       5.309  10.668   0.792  1.00 48.91     0.121 C 
HETATM   22  CBE   D T1001       2.837  10.731   1.303  1.00 49.55     0.121 C 
ENDBRANCH  19  20
ENDBRANCH  18  19
ENDBRANCH  17  18
ENDBRANCH  10  17
ENDBRANCH   1   8
BRANCH   7  23
HETATM   23  CAK   D T1001       1.874   6.437   7.299  1.00 34.11     0.025 A 
HETATM   24  CAM   D T1001       1.783   7.747   6.788  1.00 33.58     0.019 A 
HETATM   25  CAP   D T1001       2.677   8.824   6.729  1.00 31.36     0.002 A 
HETATM   26  CAN   D T1001       0.485   7.810   6.279  1.00 34.83     0.081 A 
HETATM   27  CAQ   D T1001       2.256  10.011   6.141  1.00 33.71     0.000 A 
HETATM   28  CAR   D T1001       0.963  10.087   5.620  1.00 32.72     0.002 A 
HETATM   29  CAS   D T1001       0.065   9.006   5.668  1.00 35.56     0.019 A 
HETATM   30  NAO   D T1001      -0.131   6.597   6.471  1.00 33.95    -0.244 NA
HETATM   31  CAL   D T1001       0.698   5.718   7.095  1.00 33.68     0.099 A 
ENDBRANCH   7  23
TORSDOF 6
ENDMDL
MODEL 7
REMARK VINA RESULT:    -7.245      2.744      5.605
REMARK INTER + INTRA:         -11.308
REMARK INTER:                 -10.390
REMARK INTRA:                  -0.918
REMARK UNBOUND:                -1.522
REMARK  6 active torsions:
REMARK  status: ('A' for Active; 'I' for Inactive)
REMARK    1  A    between atoms: NBC_2  and  CBB_4 
REMARK    2  A    between atoms: CBB_4  and  CBA_5 
REMARK    3  A    between atoms: CBA_5  and  CAY_6 
REMARK    4  A    between atoms: CAY_6  and  NAH_7 
REMARK    5  A    between atoms: CAG_15  and  CAI_16 
REMARK    6  A    between atoms: CAJ_22  and  CAK_23 
ROOT
HETATM    1  CAI   D T1001       3.314   5.288   9.217  1.00 35.40     0.064 A 
HETATM    2  CAT   D T1001       2.490   4.450  10.132  1.00 36.13     0.282 A 
HETATM    3  OAZ   D T1001       1.256   4.679  10.397  1.00 33.53    -0.265 OA
HETATM    4  NAU   D T1001       3.178   3.466  10.751  1.00 33.87    -0.169 NA
HETATM    5  CAV   D T1001       4.418   3.524  10.243  1.00 34.90     0.282 A 
HETATM    6  OAX   D T1001       5.319   2.702  10.618  1.00 35.00    -0.265 OA
HETATM    7  CAJ   D T1001       4.622   4.611   9.261  1.00 32.88     0.064 A 
ENDROOT
BRANCH   1   8
HETATM    8  CAG   D T1001       2.781   6.375   8.321  1.00 35.34     0.023 A 
HETATM    9  CAW   D T1001       3.529   7.502   8.071  1.00 34.78     0.076 A 
HETATM   10  NAH   D T1001       2.794   8.222   7.170  1.00 36.88    -0.326 N 
HETATM   11  CAE   D T1001       1.669   7.576   6.833  1.00 36.88     0.060 A 
HETATM   12  CAF   D T1001       0.625   7.867   5.951  1.00 37.02     0.017 A 
HETATM   13  CAD   D T1001       1.647   6.362   7.525  1.00 36.79     0.017 A 
HETATM   14  CAA   D T1001      -0.429   6.987   5.804  1.00 37.13     0.002 A 
HETATM   15  CAB   D T1001      -0.462   5.780   6.524  1.00 38.67     0.000 A 
HETATM   16  CAC   D T1001       0.575   5.470   7.409  1.00 38.70     0.002 A 
BRANCH  10  17
HETATM   17  CAY   D T1001       3.221   9.498   6.631  1.00 39.32     0.108 C 
BRANCH  17  18
HETATM   18  CBA   D T1001       4.643   9.441   6.122  1.00 40.15     0.048 C 
BRANCH  18  19
HETATM   19  CBB   D T1001       4.529   8.617   4.849  1.00 46.58     0.099 C 
BRANCH  19  20
HETATM   20  NBC   D T1001       4.023   9.439   3.751  1.00 44.62    -0.365 N 
HETATM   21  CBD   D T1001       4.793  10.643   3.459  1.00 48.91     0.121 C 
HETATM   22  CBE   D T1001       2.867   9.095   2.939  1.00 49.55     0.121 C 
ENDBRANCH  19  20
ENDBRANCH  18  19
ENDBRANCH  17  18
ENDBRANCH  10  17
ENDBRANCH   1   8
BRANCH   7  23
HETATM   23  CAK   D T1001       5.900   4.877   8.524  1.00 34.11     0.025 A 
HETATM   24  CAM   D T1001       7.196   4.997   9.065  1.00 33.58     0.019 A 
HETATM   25  CAP   D T1001       7.711   4.891  10.363  1.00 31.36     0.002 A 
HETATM   26  CAN   D T1001       7.991   5.274   7.952  1.00 34.83     0.081 A 
HETATM   27  CAQ   D T1001       9.076   5.072  10.556  1.00 33.71     0.000 A 
HETATM   28  CAR   D T1001       9.887   5.343   9.452  1.00 32.72     0.002 A 
HETATM   29  CAS   D T1001       9.375   5.440   8.146  1.00 35.56     0.019 A 
HETATM   30  NAO   D T1001       7.200   5.295   6.830  1.00 33.95    -0.244 NA
HETATM   31  CAL   D T1001       5.898   5.049   7.140  1.00 33.68     0.099 A 
ENDBRANCH   7  23
TORSDOF 6
ENDMDL
MODEL 8
REMARK VINA RESULT:    -7.193      2.472      5.367
REMARK INTER + INTRA:         -11.238
REMARK INTER:                  -9.571
REMARK INTRA:                  -1.667
REMARK UNBOUND:                -1.522
REMARK  6 active torsions:
REMARK  status: ('A' for Active; 'I' for Inactive)
REMARK    1  A    between atoms: NBC_2  and  CBB_4 
REMARK    2  A    between atoms: CBB_4  and  CBA_5 
REMARK    3  A    between atoms: CBA_5  and  CAY_6 
REMARK    4  A    between atoms: CAY_6  and  NAH_7 
REMARK    5  A    between atoms: CAG_15  and  CAI_16 
REMARK    6  A    between atoms: CAJ_22  and  CAK_23 
ROOT
HETATM    1  CAI   D T1001       5.813   6.980   6.507  1.00 35.40     0.064 A 
HETATM    2  CAT   D T1001       5.672   7.473   5.109  1.00 36.13     0.282 A 
HETATM    3  OAZ   D T1001       4.601   7.353   4.411  1.00 33.53    -0.265 OA
HETATM    4  NAU   D T1001       6.807   7.983   4.585  1.00 33.87    -0.169 NA
HETATM    5  CAV   D T1001       7.706   7.949   5.579  1.00 34.90     0.282 A 
HETATM    6  OAX   D T1001       8.893   8.382   5.406  1.00 35.00    -0.265 OA
HETATM    7  CAJ   D T1001       7.198   7.359   6.837  1.00 32.88     0.064 A 
ENDROOT
BRANCH   1   8
HETATM    8  CAG   D T1001       4.685   6.470   7.366  1.00 35.34     0.023 A 
HETATM    9  CAW   D T1001       3.419   6.991   7.236  1.00 34.78     0.076 A 
HETATM   10  NAH   D T1001       2.644   6.254   8.089  1.00 36.88    -0.326 N 
HETATM   11  CAE   D T1001       3.361   5.297   8.694  1.00 36.88     0.060 A 
HETATM   12  CAF   D T1001       3.037   4.289   9.606  1.00 37.02     0.017 A 
HETATM   13  CAD   D T1001       4.674   5.379   8.221  1.00 36.79     0.017 A 
HETATM   14  CAA   D T1001       4.010   3.423  10.063  1.00 37.13     0.002 A 
HETATM   15  CAB   D T1001       5.336   3.528   9.607  1.00 38.67     0.000 A 
HETATM   16  CAC   D T1001       5.679   4.528   8.691  1.00 38.70     0.002 A 
BRANCH  10  17
HETATM   17  CAY   D T1001       1.222   6.474   8.265  1.00 39.32     0.108 C 
BRANCH  17  18
HETATM   18  CBA   D T1001       0.445   6.131   7.015  1.00 40.15     0.048 C 
BRANCH  18  19
HETATM   19  CBB   D T1001      -0.644   7.191   6.973  1.00 46.58     0.099 C 
BRANCH  19  20
HETATM   20  NBC   D T1001      -0.510   8.015   5.773  1.00 44.62    -0.365 N 
HETATM   21  CBD   D T1001      -1.308   7.592   4.628  1.00 48.91     0.121 C 
HETATM   22  CBE   D T1001       0.307   9.215   5.692  1.00 49.55     0.121 C 
ENDBRANCH  19  20
ENDBRANCH  18  19
ENDBRANCH  17  18
ENDBRANCH  10  17
ENDBRANCH   1   8
BRANCH   7  23
HETATM   23  CAK   D T1001       7.985   7.229   8.107  1.00 34.11     0.025 A 
HETATM   24  CAM   D T1001       8.838   6.174   8.485  1.00 33.58     0.019 A 
HETATM   25  CAP   D T1001       9.244   4.989   7.857  1.00 31.36     0.002 A 
HETATM   26  CAN   D T1001       9.275   6.546   9.757  1.00 34.83     0.081 A 
HETATM   27  CAQ   D T1001      10.119   4.143   8.528  1.00 33.71     0.000 A 
HETATM   28  CAR   D T1001      10.572   4.505   9.797  1.00 32.72     0.002 A 
HETATM   29  CAS   D T1001      10.175   5.697  10.428  1.00 35.56     0.019 A 
HETATM   30  NAO   D T1001       8.719   7.758  10.085  1.00 33.95    -0.244 NA
HETATM   31  CAL   D T1001       7.917   8.218   9.088  1.00 33.68     0.099 A 
ENDBRANCH   7  23
TORSDOF 6
ENDMDL
MODEL 9
REMARK VINA RESULT:    -7.061      2.080      5.544
REMARK INTER + INTRA:         -11.060
REMARK INTER:                  -9.556
REMARK INTRA:                  -1.504
REMARK UNBOUND:                -1.522
REMARK  6 active torsions:
REMARK  status: ('A' for Active; 'I' for Inactive)
REMARK    1  A    between atoms: NBC_2  and  CBB_4 
REMARK    2  A    between atoms: CBB_4  and  CBA_5 
REMARK    3  A    between atoms: CBA_5  and  CAY_6 
REMARK    4  A    between atoms: CAY_6  and  NAH_7 
REMARK    5  A    between atoms: CAG_15  and  CAI_16 
REMARK    6  A    between atoms: CAJ_22  and  CAK_23 
ROOT
HETATM    1  CAI   D T1001       2.542   8.035   6.589  1.00 35.40     0.064 A 
HETATM    2  CAT   D T1001       1.253   8.312   5.896  1.00 36.13     0.282 A 
HETATM    3  OAZ   D T1001       1.099   9.224   5.007  1.00 33.53    -0.265 OA
HETATM    4  NAU   D T1001       0.212   7.580   6.351  1.00 33.87    -0.169 NA
HETATM    5  CAV   D T1001       0.733   6.746   7.262  1.00 34.90     0.282 A 
HETATM    6  OAX   D T1001      -0.000   5.901   7.873  1.00 35.00    -0.265 OA
HETATM    7  CAJ   D T1001       2.185   6.922   7.487  1.00 32.88     0.064 A 
ENDROOT
BRANCH   1   8
HETATM    8  CAG   D T1001       3.875   8.623   6.208  1.00 35.34     0.023 A 
HETATM    9  CAW   D T1001       4.741   9.074   7.177  1.00 34.78     0.076 A 
HETATM   10  NAH   D T1001       5.865   9.455   6.498  1.00 36.88    -0.326 N 
HETATM   11  CAE   D T1001       5.741   9.224   5.183  1.00 36.88     0.060 A 
HETATM   12  CAF   D T1001       6.598   9.405   4.094  1.00 37.02     0.017 A 
HETATM   13  CAD   D T1001       4.486   8.649   4.964  1.00 36.79     0.017 A 
HETATM   14  CAA   D T1001       6.188   9.063   2.821  1.00 37.13     0.002 A 
HETATM   15  CAB   D T1001       4.914   8.512   2.601  1.00 38.67     0.000 A 
HETATM   16  CAC   D T1001       4.043   8.320   3.679  1.00 38.70     0.002 A 
BRANCH  10  17
HETATM   17  CAY   D T1001       7.043   9.998   7.146  1.00 39.32     0.108 C 
BRANCH  17  18
HETATM   18  CBA   D T1001       7.619   9.032   8.156  1.00 40.15     0.048 C 
BRANCH  18  19
HETATM   19  CBB   D T1001       8.507   8.129   7.314  1.00 46.58     0.099 C 
BRANCH  19  20
HETATM   20  NBC   D T1001       9.564   7.542   8.135  1.00 44.62    -0.365 N 
HETATM   21  CBD   D T1001      10.221   6.369   7.570  1.00 48.91     0.121 C 
HETATM   22  CBE   D T1001      10.006   8.084   9.410  1.00 49.55     0.121 C 
ENDBRANCH  19  20
ENDBRANCH  18  19
ENDBRANCH  17  18
ENDBRANCH  10  17
ENDBRANCH   1   8
BRANCH   7  23
HETATM   23  CAK   D T1001       3.017   6.102   8.427  1.00 34.11     0.025 A 
HETATM   24  CAM   D T1001       4.320   5.609   8.215  1.00 33.58     0.019 A 
HETATM   25  CAP   D T1001       5.233   5.722   7.160  1.00 31.36     0.002 A 
HETATM   26  CAN   D T1001       4.593   4.895   9.382  1.00 34.83     0.081 A 
HETATM   27  CAQ   D T1001       6.468   5.094   7.275  1.00 33.71     0.000 A 
HETATM   28  CAR   D T1001       6.760   4.382   8.439  1.00 32.72     0.002 A 
HETATM   29  CAS   D T1001       5.850   4.274   9.505  1.00 35.56     0.019 A 
HETATM   30  NAO   D T1001       3.514   4.987  10.227  1.00 33.95    -0.244 NA
HETATM   31  CAL   D T1001       2.518   5.730   9.675  1.00 33.68     0.099 A 
ENDBRANCH   7  23
TORSDOF 6
ENDMDL
