MODEL 1
REMARK VINA RESULT:    -8.824      0.000      0.000
REMARK INTER + INTRA:         -12.577
REMARK INTER:                 -11.919
REMARK INTRA:                  -0.658
REMARK UNBOUND:                -0.658
REMARK  6 active torsions:
REMARK  status: ('A' for Active; 'I' for Inactive)
REMARK    1  A    between atoms: NBC_2  and  CBB_4 
REMARK    2  A    between atoms: CBB_4  and  CBA_5 
REMARK    3  A    between atoms: CBA_5  and  CAY_6 
REMARK    4  A    between atoms: CAY_6  and  NAH_7 
REMARK    5  A    between atoms: CAG_15  and  CAI_16 
REMARK    6  A    between atoms: CAJ_22  and  CAK_23 
ROOT
HETATM    1  CAI   D T1001     -11.289   5.090  -3.980  1.00 35.40     0.064 A 
HETATM    2  CAT   D T1001     -10.268   6.111  -3.619  1.00 36.13     0.282 A 
HETATM    3  OAZ   D T1001      -9.051   6.083  -4.028  1.00 33.53    -0.265 OA
HETATM    4  NAU   D T1001     -10.699   7.036  -2.735  1.00 33.87    -0.169 NA
HETATM    5  CAV   D T1001     -11.995   6.761  -2.533  1.00 34.90     0.282 A 
HETATM    6  OAX   D T1001     -12.703   7.475  -1.749  1.00 35.00    -0.265 OA
HETATM    7  CAJ   D T1001     -12.486   5.575  -3.270  1.00 32.88     0.064 A 
ENDROOT
BRANCH   1   8
HETATM    8  CAG   D T1001     -11.113   4.016  -5.022  1.00 35.34     0.023 A 
HETATM    9  CAW   D T1001     -12.151   3.679  -5.859  1.00 34.78     0.076 A 
HETATM   10  NAH   D T1001     -11.627   2.750  -6.717  1.00 36.88    -0.326 N 
HETATM   11  CAE   D T1001     -10.327   2.541  -6.471  1.00 36.88     0.060 A 
HETATM   12  CAF   D T1001      -9.357   1.733  -7.071  1.00 37.02     0.017 A 
HETATM   13  CAD   D T1001      -9.949   3.370  -5.411  1.00 36.79     0.017 A 
HETATM   14  CAA   D T1001      -8.062   1.724  -6.591  1.00 37.13     0.002 A 
HETATM   15  CAB   D T1001      -7.694   2.539  -5.506  1.00 38.67     0.000 A 
HETATM   16  CAC   D T1001      -8.649   3.356  -4.894  1.00 38.70     0.002 A 
BRANCH  10  17
HETATM   17  CAY   D T1001     -12.393   2.122  -7.777  1.00 39.32     0.108 C 
BRANCH  17  18
HETATM   18  CBA   D T1001     -12.639   0.659  -7.493  1.00 40.15     0.048 C 
BRANCH  18  19
HETATM   19  CBB   D T1001     -14.116   0.613  -7.136  1.00 46.58     0.099 C 
BRANCH  19  20
HETATM   20  NBC   D T1001     -14.300   0.128  -5.771  1.00 44.62    -0.365 N 
HETATM   21  CBD   D T1001     -14.835  -1.224  -5.648  1.00 48.91     0.121 C 
HETATM   22  CBE   D T1001     -13.937   0.881  -4.580  1.00 49.55     0.121 C 
ENDBRANCH  19  20
ENDBRANCH  18  19
ENDBRANCH  17  18
ENDBRANCH  10  17
ENDBRANCH   1   8
BRANCH   7  23
HETATM   23  CAK   D T1001     -13.896   5.068  -3.244  1.00 34.11     0.025 A 
HETATM   24  CAM   D T1001     -14.559   4.426  -2.179  1.00 33.58     0.019 A 
HETATM   25  CAP   D T1001     -14.183   4.089  -0.873  1.00 31.36     0.002 A 
HETATM   26  CAN   D T1001     -15.821   4.142  -2.704  1.00 34.83     0.081 A 
HETATM   27  CAQ   D T1001     -15.106   3.441  -0.058  1.00 33.71     0.000 A 
HETATM   28  CAR   D T1001     -16.374   3.156  -0.565  1.00 32.72     0.002 A 
HETATM   29  CAS   D T1001     -16.759   3.501  -1.873  1.00 35.56     0.019 A 
HETATM   30  NAO   D T1001     -15.886   4.609  -3.993  1.00 33.95    -0.244 NA
HETATM   31  CAL   D T1001     -14.715   5.195  -4.365  1.00 33.68     0.099 A 
ENDBRANCH   7  23
TORSDOF 6
ENDMDL
MODEL 2
REMARK VINA RESULT:    -8.761      0.945      1.589
REMARK INTER + INTRA:         -12.493
REMARK INTER:                 -10.971
REMARK INTRA:                  -1.521
REMARK UNBOUND:                -0.658
REMARK  6 active torsions:
REMARK  status: ('A' for Active; 'I' for Inactive)
REMARK    1  A    between atoms: NBC_2  and  CBB_4 
REMARK    2  A    between atoms: CBB_4  and  CBA_5 
REMARK    3  A    between atoms: CBA_5  and  CAY_6 
REMARK    4  A    between atoms: CAY_6  and  NAH_7 
REMARK    5  A    between atoms: CAG_15  and  CAI_16 
REMARK    6  A    between atoms: CAJ_22  and  CAK_23 
ROOT
HETATM    1  CAI   D T1001     -11.189   5.121  -3.875  1.00 35.40     0.064 A 
HETATM    2  CAT   D T1001     -10.396   6.380  -3.859  1.00 36.13     0.282 A 
HETATM    3  OAZ   D T1001      -9.416   6.620  -4.653  1.00 33.53    -0.265 OA
HETATM    4  NAU   D T1001     -10.729   7.231  -2.864  1.00 33.87    -0.169 NA
HETATM    5  CAV   D T1001     -11.773   6.665  -2.245  1.00 34.90     0.282 A 
HETATM    6  OAX   D T1001     -12.338   7.237  -1.255  1.00 35.00    -0.265 OA
HETATM    7  CAJ   D T1001     -12.166   5.348  -2.796  1.00 32.88     0.064 A 
ENDROOT
BRANCH   1   8
HETATM    8  CAG   D T1001     -11.102   4.053  -4.936  1.00 35.34     0.023 A 
HETATM    9  CAW   D T1001     -12.201   3.743  -5.704  1.00 34.78     0.076 A 
HETATM   10  NAH   D T1001     -11.752   2.814  -6.603  1.00 36.88    -0.326 N 
HETATM   11  CAE   D T1001     -10.443   2.578  -6.446  1.00 36.88     0.060 A 
HETATM   12  CAF   D T1001      -9.530   1.758  -7.116  1.00 37.02     0.017 A 
HETATM   13  CAD   D T1001      -9.980   3.390  -5.406  1.00 36.79     0.017 A 
HETATM   14  CAA   D T1001      -8.207   1.722  -6.723  1.00 37.13     0.002 A 
HETATM   15  CAB   D T1001      -7.753   2.519  -5.659  1.00 38.67     0.000 A 
HETATM   16  CAC   D T1001      -8.648   3.348  -4.977  1.00 38.70     0.002 A 
BRANCH  10  17
HETATM   17  CAY   D T1001     -12.599   2.210  -7.614  1.00 39.32     0.108 C 
BRANCH  17  18
HETATM   18  CBA   D T1001     -12.692   0.712  -7.440  1.00 40.15     0.048 C 
BRANCH  18  19
HETATM   19  CBB   D T1001     -14.175   0.477  -7.204  1.00 46.58     0.099 C 
BRANCH  19  20
HETATM   20  NBC   D T1001     -14.413   0.038  -5.831  1.00 44.62    -0.365 N 
HETATM   21  CBD   D T1001     -14.935  -1.316  -5.682  1.00 48.91     0.121 C 
HETATM   22  CBE   D T1001     -14.113   0.839  -4.653  1.00 49.55     0.121 C 
ENDBRANCH  19  20
ENDBRANCH  18  19
ENDBRANCH  17  18
ENDBRANCH  10  17
ENDBRANCH   1   8
BRANCH   7  23
HETATM   23  CAK   D T1001     -13.314   4.519  -2.307  1.00 34.11     0.025 A 
HETATM   24  CAM   D T1001     -14.552   4.302  -2.945  1.00 33.58     0.019 A 
HETATM   25  CAP   D T1001     -15.093   4.723  -4.167  1.00 31.36     0.002 A 
HETATM   26  CAN   D T1001     -15.247   3.493  -2.046  1.00 34.83     0.081 A 
HETATM   27  CAQ   D T1001     -16.381   4.319  -4.503  1.00 33.71     0.000 A 
HETATM   28  CAR   D T1001     -17.086   3.503  -3.617  1.00 32.72     0.002 A 
HETATM   29  CAS   D T1001     -16.544   3.071  -2.393  1.00 35.56     0.019 A 
HETATM   30  NAO   D T1001     -14.448   3.243  -0.958  1.00 33.95    -0.244 NA
HETATM   31  CAL   D T1001     -13.239   3.856  -1.083  1.00 33.68     0.099 A 
ENDBRANCH   7  23
TORSDOF 6
ENDMDL
MODEL 3
REMARK VINA RESULT:    -8.573      2.220      3.264
REMARK INTER + INTRA:         -12.238
REMARK INTER:                 -10.621
REMARK INTRA:                  -1.618
REMARK UNBOUND:                -0.658
REMARK  6 active torsions:
REMARK  status: ('A' for Active; 'I' for Inactive)
REMARK    1  A    between atoms: NBC_2  and  CBB_4 
REMARK    2  A    between atoms: CBB_4  and  CBA_5 
REMARK    3  A    between atoms: CBA_5  and  CAY_6 
REMARK    4  A    between atoms: CAY_6  and  NAH_7 
REMARK    5  A    between atoms: CAG_15  and  CAI_16 
REMARK    6  A    between atoms: CAJ_22  and  CAK_23 
ROOT
HETATM    1  CAI   D T1001     -12.831   6.258  -2.518  1.00 35.40     0.064 A 
HETATM    2  CAT   D T1001     -12.271   7.628  -2.676  1.00 36.13     0.282 A 
HETATM    3  OAZ   D T1001     -11.486   7.975  -3.631  1.00 33.53    -0.265 OA
HETATM    4  NAU   D T1001     -12.578   8.472  -1.667  1.00 33.87    -0.169 NA
HETATM    5  CAV   D T1001     -13.397   7.782  -0.862  1.00 34.90     0.282 A 
HETATM    6  OAX   D T1001     -13.884   8.313   0.190  1.00 35.00    -0.265 OA
HETATM    7  CAJ   D T1001     -13.646   6.389  -1.297  1.00 32.88     0.064 A 
ENDROOT
BRANCH   1   8
HETATM    8  CAG   D T1001     -12.738   5.158  -3.543  1.00 35.34     0.023 A 
HETATM    9  CAW   D T1001     -13.878   4.588  -4.060  1.00 34.78     0.076 A 
HETATM   10  NAH   D T1001     -13.434   3.704  -5.006  1.00 36.88    -0.326 N 
HETATM   11  CAE   D T1001     -12.099   3.739  -5.115  1.00 36.88     0.060 A 
HETATM   12  CAF   D T1001     -11.188   3.068  -5.935  1.00 37.02     0.017 A 
HETATM   13  CAD   D T1001     -11.617   4.695  -4.216  1.00 36.79     0.017 A 
HETATM   14  CAA   D T1001      -9.834   3.317  -5.822  1.00 37.13     0.002 A 
HETATM   15  CAB   D T1001      -9.353   4.259  -4.896  1.00 38.67     0.000 A 
HETATM   16  CAC   D T1001     -10.248   4.942  -4.069  1.00 38.70     0.002 A 
BRANCH  10  17
HETATM   17  CAY   D T1001     -14.320   2.879  -5.804  1.00 39.32     0.108 C 
BRANCH  17  18
HETATM   18  CBA   D T1001     -15.236   2.046  -4.938  1.00 40.15     0.048 C 
BRANCH  18  19
HETATM   19  CBB   D T1001     -16.618   2.347  -5.494  1.00 46.58     0.099 C 
BRANCH  19  20
HETATM   20  NBC   D T1001     -17.418   3.075  -4.513  1.00 44.62    -0.365 N 
HETATM   21  CBD   D T1001     -18.690   3.600  -5.000  1.00 48.91     0.121 C 
HETATM   22  CBE   D T1001     -17.043   3.247  -3.118  1.00 49.55     0.121 C 
ENDBRANCH  19  20
ENDBRANCH  18  19
ENDBRANCH  17  18
ENDBRANCH  10  17
ENDBRANCH   1   8
BRANCH   7  23
HETATM   23  CAK   D T1001     -14.543   5.415  -0.595  1.00 34.11     0.025 A 
HETATM   24  CAM   D T1001     -15.910   5.570  -0.293  1.00 33.58     0.019 A 
HETATM   25  CAP   D T1001     -16.844   6.584  -0.542  1.00 31.36     0.002 A 
HETATM   26  CAN   D T1001     -16.230   4.393   0.387  1.00 34.83     0.081 A 
HETATM   27  CAQ   D T1001     -18.150   6.415  -0.094  1.00 33.71     0.000 A 
HETATM   28  CAR   D T1001     -18.488   5.241   0.580  1.00 32.72     0.002 A 
HETATM   29  CAS   D T1001     -17.556   4.216   0.825  1.00 35.56     0.019 A 
HETATM   30  NAO   D T1001     -15.113   3.598   0.456  1.00 33.95    -0.244 NA
HETATM   31  CAL   D T1001     -14.047   4.192  -0.145  1.00 33.68     0.099 A 
ENDBRANCH   7  23
TORSDOF 6
ENDMDL
MODEL 4
REMARK VINA RESULT:    -8.568      1.951      2.777
REMARK INTER + INTRA:         -12.231
REMARK INTER:                 -11.151
REMARK INTRA:                  -1.080
REMARK UNBOUND:                -0.658
REMARK  6 active torsions:
REMARK  status: ('A' for Active; 'I' for Inactive)
REMARK    1  A    between atoms: NBC_2  and  CBB_4 
REMARK    2  A    between atoms: CBB_4  and  CBA_5 
REMARK    3  A    between atoms: CBA_5  and  CAY_6 
REMARK    4  A    between atoms: CAY_6  and  NAH_7 
REMARK    5  A    between atoms: CAG_15  and  CAI_16 
REMARK    6  A    between atoms: CAJ_22  and  CAK_23 
ROOT
HETATM    1  CAI   D T1001     -12.729   6.154  -2.587  1.00 35.40     0.064 A 
HETATM    2  CAT   D T1001     -12.181   7.535  -2.667  1.00 36.13     0.282 A 
HETATM    3  OAZ   D T1001     -11.344   7.924  -3.560  1.00 33.53    -0.265 OA
HETATM    4  NAU   D T1001     -12.563   8.342  -1.654  1.00 33.87    -0.169 NA
HETATM    5  CAV   D T1001     -13.420   7.617  -0.924  1.00 34.90     0.282 A 
HETATM    6  OAX   D T1001     -13.980   8.107   0.112  1.00 35.00    -0.265 OA
HETATM    7  CAJ   D T1001     -13.620   6.235  -1.416  1.00 32.88     0.064 A 
ENDROOT
BRANCH   1   8
HETATM    8  CAG   D T1001     -12.555   5.089  -3.638  1.00 35.34     0.023 A 
HETATM    9  CAW   D T1001     -13.651   4.536  -4.259  1.00 34.78     0.076 A 
HETATM   10  NAH   D T1001     -13.134   3.684  -5.197  1.00 36.88    -0.326 N 
HETATM   11  CAE   D T1001     -11.795   3.722  -5.203  1.00 36.88     0.060 A 
HETATM   12  CAF   D T1001     -10.822   3.079  -5.973  1.00 37.02     0.017 A 
HETATM   13  CAD   D T1001     -11.385   4.648  -4.238  1.00 36.79     0.017 A 
HETATM   14  CAA   D T1001      -9.482   3.323  -5.748  1.00 37.13     0.002 A 
HETATM   15  CAB   D T1001      -9.075   4.234  -4.758  1.00 38.67     0.000 A 
HETATM   16  CAC   D T1001     -10.032   4.890  -3.979  1.00 38.70     0.002 A 
BRANCH  10  17
HETATM   17  CAY   D T1001     -13.955   2.887  -6.088  1.00 39.32     0.108 C 
BRANCH  17  18
HETATM   18  CBA   D T1001     -13.720   1.408  -5.886  1.00 40.15     0.048 C 
BRANCH  18  19
HETATM   19  CBB   D T1001     -13.936   0.824  -7.273  1.00 46.58     0.099 C 
BRANCH  19  20
HETATM   20  NBC   D T1001     -12.922  -0.185  -7.568  1.00 44.62    -0.365 N 
HETATM   21  CBD   D T1001     -11.725   0.301  -8.246  1.00 48.91     0.121 C 
HETATM   22  CBE   D T1001     -13.026  -1.585  -7.184  1.00 49.55     0.121 C 
ENDBRANCH  19  20
ENDBRANCH  18  19
ENDBRANCH  17  18
ENDBRANCH  10  17
ENDBRANCH   1   8
BRANCH   7  23
HETATM   23  CAK   D T1001     -14.544   5.227  -0.802  1.00 34.11     0.025 A 
HETATM   24  CAM   D T1001     -15.919   5.373  -0.535  1.00 33.58     0.019 A 
HETATM   25  CAP   D T1001     -16.840   6.407  -0.752  1.00 31.36     0.002 A 
HETATM   26  CAN   D T1001     -16.267   4.160   0.063  1.00 34.83     0.081 A 
HETATM   27  CAQ   D T1001     -18.160   6.221  -0.357  1.00 33.71     0.000 A 
HETATM   28  CAR   D T1001     -18.525   5.011   0.235  1.00 32.72     0.002 A 
HETATM   29  CAS   D T1001     -17.607   3.967   0.447  1.00 35.56     0.019 A 
HETATM   30  NAO   D T1001     -15.157   3.355   0.119  1.00 33.95    -0.244 NA
HETATM   31  CAL   D T1001     -14.069   3.976  -0.411  1.00 33.68     0.099 A 
ENDBRANCH   7  23
TORSDOF 6
ENDMDL
MODEL 5
REMARK VINA RESULT:    -8.372      2.711      5.720
REMARK INTER + INTRA:         -11.967
REMARK INTER:                 -10.286
REMARK INTRA:                  -1.681
REMARK UNBOUND:                -0.658
REMARK  6 active torsions:
REMARK  status: ('A' for Active; 'I' for Inactive)
REMARK    1  A    between atoms: NBC_2  and  CBB_4 
REMARK    2  A    between atoms: CBB_4  and  CBA_5 
REMARK    3  A    between atoms: CBA_5  and  CAY_6 
REMARK    4  A    between atoms: CAY_6  and  NAH_7 
REMARK    5  A    between atoms: CAG_15  and  CAI_16 
REMARK    6  A    between atoms: CAJ_22  and  CAK_23 
ROOT
HETATM    1  CAI   D T1001     -16.167   2.232  -5.284  1.00 35.40     0.064 A 
HETATM    2  CAT   D T1001     -17.618   2.137  -5.600  1.00 36.13     0.282 A 
HETATM    3  OAZ   D T1001     -18.089   1.537  -6.632  1.00 33.53    -0.265 OA
HETATM    4  NAU   D T1001     -18.415   2.824  -4.753  1.00 33.87    -0.169 NA
HETATM    5  CAV   D T1001     -17.596   3.317  -3.814  1.00 34.90     0.282 A 
HETATM    6  OAX   D T1001     -18.051   4.012  -2.846  1.00 35.00    -0.265 OA
HETATM    7  CAJ   D T1001     -16.166   3.001  -4.027  1.00 32.88     0.064 A 
ENDROOT
BRANCH   1   8
HETATM    8  CAG   D T1001     -15.072   1.478  -5.994  1.00 35.34     0.023 A 
HETATM    9  CAW   D T1001     -13.999   2.149  -6.532  1.00 34.78     0.076 A 
HETATM   10  NAH   D T1001     -13.174   1.169  -7.014  1.00 36.88    -0.326 N 
HETATM   11  CAE   D T1001     -13.669  -0.050  -6.761  1.00 36.88     0.060 A 
HETATM   12  CAF   D T1001     -13.205  -1.344  -7.015  1.00 37.02     0.017 A 
HETATM   13  CAD   D T1001     -14.873   0.107  -6.068  1.00 36.79     0.017 A 
HETATM   14  CAA   D T1001     -13.948  -2.441  -6.626  1.00 37.13     0.002 A 
HETATM   15  CAB   D T1001     -15.172  -2.276  -5.954  1.00 38.67     0.000 A 
HETATM   16  CAC   D T1001     -15.653  -0.990  -5.688  1.00 38.70     0.002 A 
BRANCH  10  17
HETATM   17  CAY   D T1001     -11.910   1.442  -7.670  1.00 39.32     0.108 C 
BRANCH  17  18
HETATM   18  CBA   D T1001     -11.184   2.597  -7.021  1.00 40.15     0.048 C 
BRANCH  18  19
HETATM   19  CBB   D T1001      -9.719   2.275  -7.268  1.00 46.58     0.099 C 
BRANCH  19  20
HETATM   20  NBC   D T1001      -8.892   2.777  -6.174  1.00 44.62    -0.365 N 
HETATM   21  CBD   D T1001      -9.482   3.847  -5.376  1.00 48.91     0.121 C 
HETATM   22  CBE   D T1001      -7.583   2.243  -5.826  1.00 49.55     0.121 C 
ENDBRANCH  19  20
ENDBRANCH  18  19
ENDBRANCH  17  18
ENDBRANCH  10  17
ENDBRANCH   1   8
BRANCH   7  23
HETATM   23  CAK   D T1001     -15.049   3.406  -3.113  1.00 34.11     0.025 A 
HETATM   24  CAM   D T1001     -14.228   4.547  -3.212  1.00 33.58     0.019 A 
HETATM   25  CAP   D T1001     -14.184   5.629  -4.100  1.00 31.36     0.002 A 
HETATM   26  CAN   D T1001     -13.347   4.410  -2.138  1.00 34.83     0.081 A 
HETATM   27  CAQ   D T1001     -13.220   6.612  -3.908  1.00 33.71     0.000 A 
HETATM   28  CAR   D T1001     -12.336   6.494  -2.835  1.00 32.72     0.002 A 
HETATM   29  CAS   D T1001     -12.383   5.414  -1.935  1.00 35.56     0.019 A 
HETATM   30  NAO   D T1001     -13.655   3.262  -1.450  1.00 33.95    -0.244 NA
HETATM   31  CAL   D T1001     -14.707   2.613  -2.018  1.00 33.68     0.099 A 
ENDBRANCH   7  23
TORSDOF 6
ENDMDL
MODEL 6
REMARK VINA RESULT:    -8.347      4.166      8.843
REMARK INTER + INTRA:         -11.934
REMARK INTER:                  -9.962
REMARK INTRA:                  -1.972
REMARK UNBOUND:                -0.658
REMARK  6 active torsions:
REMARK  status: ('A' for Active; 'I' for Inactive)
REMARK    1  A    between atoms: NBC_2  and  CBB_4 
REMARK    2  A    between atoms: CBB_4  and  CBA_5 
REMARK    3  A    between atoms: CBA_5  and  CAY_6 
REMARK    4  A    between atoms: CAY_6  and  NAH_7 
REMARK    5  A    between atoms: CAG_15  and  CAI_16 
REMARK    6  A    between atoms: CAJ_22  and  CAK_23 
ROOT
HETATM    1  CAI   D T1001     -17.375   3.470  -2.682  1.00 35.40     0.064 A 
HETATM    2  CAT   D T1001     -18.073   3.091  -3.941  1.00 36.13     0.282 A 
HETATM    3  OAZ   D T1001     -19.340   2.911  -4.031  1.00 33.53    -0.265 OA
HETATM    4  NAU   D T1001     -17.245   2.852  -4.982  1.00 33.87    -0.169 NA
HETATM    5  CAV   D T1001     -16.015   3.134  -4.532  1.00 34.90     0.282 A 
HETATM    6  OAX   D T1001     -14.997   3.023  -5.291  1.00 35.00    -0.265 OA
HETATM    7  CAJ   D T1001     -15.968   3.547  -3.111  1.00 32.88     0.064 A 
ENDROOT
BRANCH   1   8
HETATM    8  CAG   D T1001     -18.055   3.896  -1.407  1.00 35.34     0.023 A 
HETATM    9  CAW   D T1001     -18.197   5.231  -1.104  1.00 34.78     0.076 A 
HETATM   10  NAH   D T1001     -18.920   5.256   0.057  1.00 36.88    -0.326 N 
HETATM   11  CAE   D T1001     -19.255   4.019   0.447  1.00 36.88     0.060 A 
HETATM   12  CAF   D T1001     -19.997   3.522   1.523  1.00 37.02     0.017 A 
HETATM   13  CAD   D T1001     -18.750   3.117  -0.494  1.00 36.79     0.017 A 
HETATM   14  CAA   D T1001     -20.184   2.162   1.672  1.00 37.13     0.002 A 
HETATM   15  CAB   D T1001     -19.649   1.258   0.737  1.00 38.67     0.000 A 
HETATM   16  CAC   D T1001     -18.907   1.735  -0.347  1.00 38.70     0.002 A 
BRANCH  10  17
HETATM   17  CAY   D T1001     -19.299   6.481   0.734  1.00 39.32     0.108 C 
BRANCH  17  18
HETATM   18  CBA   D T1001     -18.102   7.365   0.997  1.00 40.15     0.048 C 
BRANCH  18  19
HETATM   19  CBB   D T1001     -17.470   6.744   2.232  1.00 46.58     0.099 C 
BRANCH  19  20
HETATM   20  NBC   D T1001     -16.130   6.248   1.928  1.00 44.62    -0.365 N 
HETATM   21  CBD   D T1001     -15.069   7.250   1.936  1.00 48.91     0.121 C 
HETATM   22  CBE   D T1001     -15.812   4.850   1.681  1.00 49.55     0.121 C 
ENDBRANCH  19  20
ENDBRANCH  18  19
ENDBRANCH  17  18
ENDBRANCH  10  17
ENDBRANCH   1   8
BRANCH   7  23
HETATM   23  CAK   D T1001     -14.726   3.944  -2.371  1.00 34.11     0.025 A 
HETATM   24  CAM   D T1001     -13.854   5.010  -2.665  1.00 33.58     0.019 A 
HETATM   25  CAP   D T1001     -13.849   6.010  -3.647  1.00 31.36     0.002 A 
HETATM   26  CAN   D T1001     -12.860   4.899  -1.691  1.00 34.83     0.081 A 
HETATM   27  CAQ   D T1001     -12.809   6.934  -3.656  1.00 33.71     0.000 A 
HETATM   28  CAR   D T1001     -11.813   6.840  -2.684  1.00 32.72     0.002 A 
HETATM   29  CAS   D T1001     -11.818   5.844  -1.690  1.00 35.56     0.019 A 
HETATM   30  NAO   D T1001     -13.154   3.837  -0.871  1.00 33.95    -0.244 NA
HETATM   31  CAL   D T1001     -14.305   3.222  -1.255  1.00 33.68     0.099 A 
ENDBRANCH   7  23
TORSDOF 6
ENDMDL
MODEL 7
REMARK VINA RESULT:    -8.321      2.957      7.158
REMARK INTER + INTRA:         -11.899
REMARK INTER:                 -10.041
REMARK INTRA:                  -1.858
REMARK UNBOUND:                -0.658
REMARK  6 active torsions:
REMARK  status: ('A' for Active; 'I' for Inactive)
REMARK    1  A    between atoms: NBC_2  and  CBB_4 
REMARK    2  A    between atoms: CBB_4  and  CBA_5 
REMARK    3  A    between atoms: CBA_5  and  CAY_6 
REMARK    4  A    between atoms: CAY_6  and  NAH_7 
REMARK    5  A    between atoms: CAG_15  and  CAI_16 
REMARK    6  A    between atoms: CAJ_22  and  CAK_23 
ROOT
HETATM    1  CAI   D T1001     -15.141   5.360  -1.170  1.00 35.40     0.064 A 
HETATM    2  CAT   D T1001     -14.530   6.589  -0.595  1.00 36.13     0.282 A 
HETATM    3  OAZ   D T1001     -15.171   7.439   0.123  1.00 33.53    -0.265 OA
HETATM    4  NAU   D T1001     -13.250   6.799  -0.970  1.00 33.87    -0.169 NA
HETATM    5  CAV   D T1001     -12.913   5.730  -1.703  1.00 34.90     0.282 A 
HETATM    6  OAX   D T1001     -11.744   5.615  -2.199  1.00 35.00    -0.265 OA
HETATM    7  CAJ   D T1001     -14.007   4.750  -1.887  1.00 32.88     0.064 A 
ENDROOT
BRANCH   1   8
HETATM    8  CAG   D T1001     -16.510   4.830  -0.831  1.00 35.34     0.023 A 
HETATM    9  CAW   D T1001     -17.376   4.448  -1.829  1.00 34.78     0.076 A 
HETATM   10  NAH   D T1001     -18.470   3.947  -1.176  1.00 36.88    -0.326 N 
HETATM   11  CAE   D T1001     -18.295   3.969   0.152  1.00 36.88     0.060 A 
HETATM   12  CAF   D T1001     -19.083   3.553   1.229  1.00 37.02     0.017 A 
HETATM   13  CAD   D T1001     -17.025   4.494   0.411  1.00 36.79     0.017 A 
HETATM   14  CAA   D T1001     -18.629   3.702   2.524  1.00 37.13     0.002 A 
HETATM   15  CAB   D T1001     -17.363   4.257   2.780  1.00 38.67     0.000 A 
HETATM   16  CAC   D T1001     -16.558   4.677   1.717  1.00 38.70     0.002 A 
BRANCH  10  17
HETATM   17  CAY   D T1001     -19.637   3.425  -1.861  1.00 39.32     0.108 C 
BRANCH  17  18
HETATM   18  CBA   D T1001     -19.343   2.106  -2.537  1.00 40.15     0.048 C 
BRANCH  18  19
HETATM   19  CBB   D T1001     -19.617   2.393  -4.004  1.00 46.58     0.099 C 
BRANCH  19  20
HETATM   20  NBC   D T1001     -18.588   1.788  -4.846  1.00 44.62    -0.365 N 
HETATM   21  CBD   D T1001     -17.324   2.514  -4.917  1.00 48.91     0.121 C 
HETATM   22  CBE   D T1001     -18.743   0.521  -5.544  1.00 49.55     0.121 C 
ENDBRANCH  19  20
ENDBRANCH  18  19
ENDBRANCH  17  18
ENDBRANCH  10  17
ENDBRANCH   1   8
BRANCH   7  23
HETATM   23  CAK   D T1001     -13.889   3.458  -2.638  1.00 34.11     0.025 A 
HETATM   24  CAM   D T1001     -13.737   3.282  -4.028  1.00 33.58     0.019 A 
HETATM   25  CAP   D T1001     -13.622   4.171  -5.105  1.00 31.36     0.002 A 
HETATM   26  CAN   D T1001     -13.715   1.895  -4.182  1.00 34.83     0.081 A 
HETATM   27  CAQ   D T1001     -13.480   3.652  -6.387  1.00 33.71     0.000 A 
HETATM   28  CAR   D T1001     -13.449   2.267  -6.557  1.00 32.72     0.002 A 
HETATM   29  CAS   D T1001     -13.555   1.371  -5.478  1.00 35.56     0.019 A 
HETATM   30  NAO   D T1001     -13.832   1.306  -2.948  1.00 33.95    -0.244 NA
HETATM   31  CAL   D T1001     -13.937   2.239  -1.963  1.00 33.68     0.099 A 
ENDBRANCH   7  23
TORSDOF 6
ENDMDL
MODEL 8
REMARK VINA RESULT:    -8.280      2.428      6.451
REMARK INTER + INTRA:         -11.843
REMARK INTER:                 -10.691
REMARK INTRA:                  -1.152
REMARK UNBOUND:                -0.658
REMARK  6 active torsions:
REMARK  status: ('A' for Active; 'I' for Inactive)
REMARK    1  A    between atoms: NBC_2  and  CBB_4 
REMARK    2  A    between atoms: CBB_4  and  CBA_5 
REMARK    3  A    between atoms: CBA_5  and  CAY_6 
REMARK    4  A    between atoms: CAY_6  and  NAH_7 
REMARK    5  A    between atoms: CAG_15  and  CAI_16 
REMARK    6  A    between atoms: CAJ_22  and  CAK_23 
ROOT
HETATM    1  CAI   D T1001     -11.845   5.896  -2.880  1.00 35.40     0.064 A 
HETATM    2  CAT   D T1001     -10.361   5.971  -2.971  1.00 36.13     0.282 A 
HETATM    3  OAZ   D T1001      -9.631   6.689  -2.196  1.00 33.53    -0.265 OA
HETATM    4  NAU   D T1001      -9.835   5.290  -4.012  1.00 33.87    -0.169 NA
HETATM    5  CAV   D T1001     -10.871   4.672  -4.594  1.00 34.90     0.282 A 
HETATM    6  OAX   D T1001     -10.701   3.924  -5.613  1.00 35.00    -0.265 OA
HETATM    7  CAJ   D T1001     -12.181   4.960  -3.967  1.00 32.88     0.064 A 
ENDROOT
BRANCH   1   8
HETATM    8  CAG   D T1001     -12.676   6.467  -1.760  1.00 35.34     0.023 A 
HETATM    9  CAW   D T1001     -13.446   5.642  -0.973  1.00 34.78     0.076 A 
HETATM   10  NAH   D T1001     -13.988   6.464  -0.023  1.00 36.88    -0.326 N 
HETATM   11  CAE   D T1001     -13.559   7.725  -0.169  1.00 36.88     0.060 A 
HETATM   12  CAF   D T1001     -13.790   8.904   0.544  1.00 37.02     0.017 A 
HETATM   13  CAD   D T1001     -12.678   7.758  -1.255  1.00 36.79     0.017 A 
HETATM   14  CAA   D T1001     -13.193  10.086   0.151  1.00 37.13     0.002 A 
HETATM   15  CAB   D T1001     -12.330  10.118  -0.959  1.00 38.67     0.000 A 
HETATM   16  CAC   D T1001     -12.084   8.949  -1.684  1.00 38.70     0.002 A 
BRANCH  10  17
HETATM   17  CAY   D T1001     -14.877   5.997   1.023  1.00 39.32     0.108 C 
BRANCH  17  18
HETATM   18  CBA   D T1001     -15.282   4.557   0.807  1.00 40.15     0.048 C 
BRANCH  18  19
HETATM   19  CBB   D T1001     -16.691   4.498   1.374  1.00 46.58     0.099 C 
BRANCH  19  20
HETATM   20  NBC   D T1001     -17.572   3.749   0.482  1.00 44.62    -0.365 N 
HETATM   21  CBD   D T1001     -16.906   2.858  -0.462  1.00 48.91     0.121 C 
HETATM   22  CBE   D T1001     -19.026   3.810   0.529  1.00 49.55     0.121 C 
ENDBRANCH  19  20
ENDBRANCH  18  19
ENDBRANCH  17  18
ENDBRANCH  10  17
ENDBRANCH   1   8
BRANCH   7  23
HETATM   23  CAK   D T1001     -13.491   4.377  -4.403  1.00 34.11     0.025 A 
HETATM   24  CAM   D T1001     -13.776   3.029  -4.699  1.00 33.58     0.019 A 
HETATM   25  CAP   D T1001     -13.016   1.853  -4.667  1.00 31.36     0.002 A 
HETATM   26  CAN   D T1001     -15.119   3.055  -5.081  1.00 34.83     0.081 A 
HETATM   27  CAQ   D T1001     -13.621   0.655  -5.032  1.00 33.71     0.000 A 
HETATM   28  CAR   D T1001     -14.965   0.663  -5.409  1.00 32.72     0.002 A 
HETATM   29  CAS   D T1001     -15.735   1.840  -5.434  1.00 35.56     0.019 A 
HETATM   30  NAO   D T1001     -15.584   4.343  -4.993  1.00 33.95    -0.244 NA
HETATM   31  CAL   D T1001     -14.609   5.193  -4.572  1.00 33.68     0.099 A 
ENDBRANCH   7  23
TORSDOF 6
ENDMDL
MODEL 9
REMARK VINA RESULT:    -8.021      2.667      7.125
REMARK INTER + INTRA:         -11.493
REMARK INTER:                 -10.128
REMARK INTRA:                  -1.365
REMARK UNBOUND:                -0.658
REMARK  6 active torsions:
REMARK  status: ('A' for Active; 'I' for Inactive)
REMARK    1  A    between atoms: NBC_2  and  CBB_4 
REMARK    2  A    between atoms: CBB_4  and  CBA_5 
REMARK    3  A    between atoms: CBA_5  and  CAY_6 
REMARK    4  A    between atoms: CAY_6  and  NAH_7 
REMARK    5  A    between atoms: CAG_15  and  CAI_16 
REMARK    6  A    between atoms: CAJ_22  and  CAK_23 
ROOT
HETATM    1  CAI   D T1001     -13.609   2.221  -5.106  1.00 35.40     0.064 A 
HETATM    2  CAT   D T1001     -14.021   1.358  -6.247  1.00 36.13     0.282 A 
HETATM    3  OAZ   D T1001     -15.107   0.675  -6.273  1.00 33.53    -0.265 OA
HETATM    4  NAU   D T1001     -13.102   1.270  -7.234  1.00 33.87    -0.169 NA
HETATM    5  CAV   D T1001     -12.113   2.099  -6.875  1.00 34.90     0.282 A 
HETATM    6  OAX   D T1001     -11.087   2.256  -7.616  1.00 35.00    -0.265 OA
HETATM    7  CAJ   D T1001     -12.321   2.766  -5.571  1.00 32.88     0.064 A 
ENDROOT
BRANCH   1   8
HETATM    8  CAG   D T1001     -14.481   2.581  -3.932  1.00 35.34     0.023 A 
HETATM    9  CAW   D T1001     -13.962   2.604  -2.658  1.00 34.78     0.076 A 
HETATM   10  NAH   D T1001     -14.986   3.046  -1.865  1.00 36.88    -0.326 N 
HETATM   11  CAE   D T1001     -16.075   3.329  -2.592  1.00 36.88     0.060 A 
HETATM   12  CAF   D T1001     -17.340   3.826  -2.268  1.00 37.02     0.017 A 
HETATM   13  CAD   D T1001     -15.775   3.080  -3.935  1.00 36.79     0.017 A 
HETATM   14  CAA   D T1001     -18.286   4.024  -3.254  1.00 37.13     0.002 A 
HETATM   15  CAB   D T1001     -17.988   3.745  -4.599  1.00 38.67     0.000 A 
HETATM   16  CAC   D T1001     -16.728   3.249  -4.945  1.00 38.70     0.002 A 
BRANCH  10  17
HETATM   17  CAY   D T1001     -14.866   3.220  -0.431  1.00 39.32     0.108 C 
BRANCH  17  18
HETATM   18  CBA   D T1001     -14.312   4.581  -0.079  1.00 40.15     0.048 C 
BRANCH  18  19
HETATM   19  CBB   D T1001     -15.403   5.192   0.786  1.00 46.58     0.099 C 
BRANCH  19  20
HETATM   20  NBC   D T1001     -15.742   6.531   0.312  1.00 44.62    -0.365 N 
HETATM   21  CBD   D T1001     -14.637   7.482   0.260  1.00 48.91     0.121 C 
HETATM   22  CBE   D T1001     -17.068   6.927  -0.140  1.00 49.55     0.121 C 
ENDBRANCH  19  20
ENDBRANCH  18  19
ENDBRANCH  17  18
ENDBRANCH  10  17
ENDBRANCH   1   8
BRANCH   7  23
HETATM   23  CAK   D T1001     -11.385   3.760  -4.952  1.00 34.11     0.025 A 
HETATM   24  CAM   D T1001     -11.720   4.934  -4.248  1.00 33.58     0.019 A 
HETATM   25  CAP   D T1001     -12.936   5.524  -3.881  1.00 31.36     0.002 A 
HETATM   26  CAN   D T1001     -10.479   5.490  -3.930  1.00 34.83     0.081 A 
HETATM   27  CAQ   D T1001     -12.911   6.719  -3.170  1.00 33.71     0.000 A 
HETATM   28  CAR   D T1001     -11.679   7.284  -2.838  1.00 32.72     0.002 A 
HETATM   29  CAS   D T1001     -10.455   6.690  -3.196  1.00 35.56     0.019 A 
HETATM   30  NAO   D T1001      -9.486   4.672  -4.410  1.00 33.95    -0.244 NA
HETATM   31  CAL   D T1001     -10.005   3.586  -5.045  1.00 33.68     0.099 A 
ENDBRANCH   7  23
TORSDOF 6
ENDMDL
