MODEL 1
REMARK VINA RESULT:    -8.404      0.000      0.000
REMARK INTER + INTRA:         -12.646
REMARK INTER:                 -11.351
REMARK INTRA:                  -1.295
REMARK UNBOUND:                -1.295
REMARK  6 active torsions:
REMARK  status: ('A' for Active; 'I' for Inactive)
REMARK    1  A    between atoms: NBC_2  and  CBB_4 
REMARK    2  A    between atoms: CBB_4  and  CBA_5 
REMARK    3  A    between atoms: CBA_5  and  CAY_6 
REMARK    4  A    between atoms: CAY_6  and  NAH_7 
REMARK    5  A    between atoms: CAG_15  and  CAI_16 
REMARK    6  A    between atoms: CAJ_22  and  CAK_23 
ROOT
HETATM    1  CAI   D T1000     -12.757   5.748  -2.989  1.00 59.57     0.064 A 
HETATM    2  CAT   D T1000     -12.114   7.067  -2.761  1.00 60.04     0.282 A 
HETATM    3  OAZ   D T1000     -11.215   7.562  -3.523  1.00 63.91    -0.265 OA
HETATM    4  NAU   D T1000     -12.550   7.733  -1.678  1.00 59.30    -0.169 NA
HETATM    5  CAV   D T1000     -13.465   6.958  -1.122  1.00 59.13     0.282 A 
HETATM    6  OAX   D T1000     -14.061   7.344  -0.068  1.00 59.19    -0.265 OA
HETATM    7  CAJ   D T1000     -13.704   5.667  -1.840  1.00 59.47     0.064 A 
ENDROOT
BRANCH   1   8
HETATM    8  CAG   D T1000     -12.450   4.793  -4.152  1.00 60.05     0.023 A 
HETATM    9  CAW   D T1000     -13.485   4.281  -4.923  1.00 61.31     0.076 A 
HETATM   10  NAH   D T1000     -12.900   3.474  -5.865  1.00 62.19    -0.326 N 
HETATM   11  CAE   D T1000     -11.554   3.465  -5.723  1.00 60.17     0.060 A 
HETATM   12  CAF   D T1000     -10.494   2.809  -6.429  1.00 59.69     0.017 A 
HETATM   13  CAD   D T1000     -11.224   4.307  -4.617  1.00 59.51     0.017 A 
HETATM   14  CAA   D T1000      -9.152   2.993  -6.042  1.00 60.21     0.002 A 
HETATM   15  CAB   D T1000      -8.826   3.836  -4.932  1.00 60.52     0.000 A 
HETATM   16  CAC   D T1000      -9.864   4.501  -4.210  1.00 59.56     0.002 A 
BRANCH  10  17
HETATM   17  CAY   D T1000     -13.662   2.726  -6.874  1.00 63.29     0.108 C 
BRANCH  17  18
HETATM   18  CBA   D T1000     -13.964   1.329  -6.348  1.00 66.90     0.048 C 
BRANCH  18  19
HETATM   19  CBB   D T1000     -14.092   0.412  -7.563  1.00 68.12     0.099 C 
BRANCH  19  20
HETATM   20  NBC   D T1000     -12.862  -0.365  -7.856  1.00 69.41    -0.365 N 
HETATM   21  CBD   D T1000     -12.856  -1.710  -7.309  1.00 71.44     0.121 C 
HETATM   22  CBE   D T1000     -11.704   0.093  -8.624  1.00 69.10     0.121 C 
ENDBRANCH  19  20
ENDBRANCH  18  19
ENDBRANCH  17  18
ENDBRANCH  10  17
ENDBRANCH   1   8
BRANCH   7  23
HETATM   23  CAK   D T1000     -14.707   4.593  -1.429  1.00 59.62     0.025 A 
HETATM   24  CAM   D T1000     -16.075   4.725  -1.023  1.00 60.49     0.019 A 
HETATM   25  CAP   D T1000     -16.989   5.824  -0.861  1.00 60.58     0.002 A 
HETATM   26  CAN   D T1000     -16.461   3.390  -0.753  1.00 61.04     0.081 A 
HETATM   27  CAQ   D T1000     -18.310   5.578  -0.417  1.00 59.56     0.000 A 
HETATM   28  CAR   D T1000     -18.701   4.245  -0.143  1.00 60.35     0.002 A 
HETATM   29  CAS   D T1000     -17.807   3.139  -0.302  1.00 60.55     0.019 A 
HETATM   30  NAO   D T1000     -15.390   2.562  -0.995  1.00 60.44    -0.244 NA
HETATM   31  CAL   D T1000     -14.302   3.253  -1.407  1.00 59.16     0.099 A 
ENDBRANCH   7  23
TORSDOF 6
ENDMDL
MODEL 2
REMARK VINA RESULT:    -8.373      1.729      2.405
REMARK INTER + INTRA:         -12.604
REMARK INTER:                 -11.755
REMARK INTRA:                  -0.849
REMARK UNBOUND:                -1.295
REMARK  6 active torsions:
REMARK  status: ('A' for Active; 'I' for Inactive)
REMARK    1  A    between atoms: NBC_2  and  CBB_4 
REMARK    2  A    between atoms: CBB_4  and  CBA_5 
REMARK    3  A    between atoms: CBA_5  and  CAY_6 
REMARK    4  A    between atoms: CAY_6  and  NAH_7 
REMARK    5  A    between atoms: CAG_15  and  CAI_16 
REMARK    6  A    between atoms: CAJ_22  and  CAK_23 
ROOT
HETATM    1  CAI   D T1000     -11.459   5.129  -3.924  1.00 59.57     0.064 A 
HETATM    2  CAT   D T1000     -10.420   6.059  -3.411  1.00 60.04     0.282 A 
HETATM    3  OAZ   D T1000      -9.217   6.089  -3.842  1.00 63.91    -0.265 OA
HETATM    4  NAU   D T1000     -10.833   6.894  -2.442  1.00 59.30    -0.169 NA
HETATM    5  CAV   D T1000     -12.107   6.608  -2.237  1.00 59.13     0.282 A 
HETATM    6  OAX   D T1000     -12.765   7.258  -1.366  1.00 59.19    -0.265 OA
HETATM    7  CAJ   D T1000     -12.643   5.510  -3.101  1.00 59.47     0.064 A 
ENDROOT
BRANCH   1   8
HETATM    8  CAG   D T1000     -11.255   4.083  -5.029  1.00 60.05     0.023 A 
HETATM    9  CAW   D T1000     -12.328   3.686  -5.818  1.00 61.31     0.076 A 
HETATM   10  NAH   D T1000     -11.834   2.757  -6.698  1.00 62.19    -0.326 N 
HETATM   11  CAE   D T1000     -10.509   2.563  -6.502  1.00 60.17     0.060 A 
HETATM   12  CAF   D T1000      -9.532   1.729  -7.135  1.00 59.69     0.017 A 
HETATM   13  CAD   D T1000     -10.098   3.404  -5.423  1.00 59.51     0.017 A 
HETATM   14  CAA   D T1000      -8.192   1.738  -6.704  1.00 60.21     0.002 A 
HETATM   15  CAB   D T1000      -7.784   2.580  -5.621  1.00 60.52     0.000 A 
HETATM   16  CAC   D T1000      -8.738   3.422  -4.971  1.00 59.56     0.002 A 
BRANCH  10  17
HETATM   17  CAY   D T1000     -12.662   2.077  -7.703  1.00 63.29     0.108 C 
BRANCH  17  18
HETATM   18  CBA   D T1000     -12.816   0.610  -7.323  1.00 66.90     0.048 C 
BRANCH  18  19
HETATM   19  CBB   D T1000     -14.301   0.371  -7.058  1.00 68.12     0.099 C 
BRANCH  19  20
HETATM   20  NBC   D T1000     -14.768   0.907  -5.754  1.00 69.41    -0.365 N 
HETATM   21  CBD   D T1000     -16.091   1.504  -5.788  1.00 71.44     0.121 C 
HETATM   22  CBE   D T1000     -14.034   0.878  -4.488  1.00 69.10     0.121 C 
ENDBRANCH  19  20
ENDBRANCH  18  19
ENDBRANCH  17  18
ENDBRANCH  10  17
ENDBRANCH   1   8
BRANCH   7  23
HETATM   23  CAK   D T1000     -14.075   4.984  -3.085  1.00 59.62     0.025 A 
HETATM   24  CAM   D T1000     -14.798   4.327  -2.035  1.00 60.49     0.019 A 
HETATM   25  CAP   D T1000     -14.503   3.939  -0.682  1.00 60.58     0.002 A 
HETATM   26  CAN   D T1000     -16.058   4.068  -2.627  1.00 61.04     0.081 A 
HETATM   27  CAQ   D T1000     -15.486   3.276   0.088  1.00 59.56     0.000 A 
HETATM   28  CAR   D T1000     -16.748   3.010  -0.498  1.00 60.35     0.002 A 
HETATM   29  CAS   D T1000     -17.061   3.393  -1.842  1.00 60.55     0.019 A 
HETATM   30  NAO   D T1000     -16.050   4.547  -3.915  1.00 60.44    -0.244 NA
HETATM   31  CAL   D T1000     -14.863   5.112  -4.235  1.00 59.16     0.099 A 
ENDBRANCH   7  23
TORSDOF 6
ENDMDL
MODEL 3
REMARK VINA RESULT:    -8.047      1.938      6.375
REMARK INTER + INTRA:         -12.164
REMARK INTER:                 -11.404
REMARK INTRA:                  -0.760
REMARK UNBOUND:                -1.295
REMARK  6 active torsions:
REMARK  status: ('A' for Active; 'I' for Inactive)
REMARK    1  A    between atoms: NBC_2  and  CBB_4 
REMARK    2  A    between atoms: CBB_4  and  CBA_5 
REMARK    3  A    between atoms: CBA_5  and  CAY_6 
REMARK    4  A    between atoms: CAY_6  and  NAH_7 
REMARK    5  A    between atoms: CAG_15  and  CAI_16 
REMARK    6  A    between atoms: CAJ_22  and  CAK_23 
ROOT
HETATM    1  CAI   D T1000     -12.388   5.269  -3.253  1.00 59.57     0.064 A 
HETATM    2  CAT   D T1000     -11.829   6.371  -2.428  1.00 60.04     0.282 A 
HETATM    3  OAZ   D T1000     -12.476   6.962  -1.498  1.00 63.91    -0.265 OA
HETATM    4  NAU   D T1000     -10.565   6.719  -2.724  1.00 59.30    -0.169 NA
HETATM    5  CAV   D T1000     -10.195   5.925  -3.713  1.00 59.13     0.282 A 
HETATM    6  OAX   D T1000      -9.024   6.027  -4.198  1.00 59.19    -0.265 OA
HETATM    7  CAJ   D T1000     -11.244   4.954  -4.157  1.00 59.47     0.064 A 
ENDROOT
BRANCH   1   8
HETATM    8  CAG   D T1000     -13.798   4.678  -3.117  1.00 60.05     0.023 A 
HETATM    9  CAW   D T1000     -14.602   4.530  -4.240  1.00 61.31     0.076 A 
HETATM   10  NAH   D T1000     -15.781   3.985  -3.800  1.00 62.19    -0.326 N 
HETATM   11  CAE   D T1000     -15.748   3.780  -2.462  1.00 60.17     0.060 A 
HETATM   12  CAF   D T1000     -16.689   3.245  -1.525  1.00 59.69     0.017 A 
HETATM   13  CAD   D T1000     -14.477   4.222  -1.982  1.00 59.51     0.017 A 
HETATM   14  CAA   D T1000     -16.367   3.154  -0.157  1.00 60.21     0.002 A 
HETATM   15  CAB   D T1000     -15.094   3.599   0.320  1.00 60.52     0.000 A 
HETATM   16  CAC   D T1000     -14.136   4.139  -0.593  1.00 59.56     0.002 A 
BRANCH  10  17
HETATM   17  CAY   D T1000     -16.913   3.684  -4.687  1.00 63.29     0.108 C 
BRANCH  17  18
HETATM   18  CBA   D T1000     -16.875   2.211  -5.073  1.00 66.90     0.048 C 
BRANCH  18  19
HETATM   19  CBB   D T1000     -15.556   1.975  -5.807  1.00 68.12     0.099 C 
BRANCH  19  20
HETATM   20  NBC   D T1000     -14.847   0.743  -5.377  1.00 69.41    -0.365 N 
HETATM   21  CBD   D T1000     -13.819   0.960  -4.375  1.00 71.44     0.121 C 
HETATM   22  CBE   D T1000     -15.095  -0.616  -5.858  1.00 69.10     0.121 C 
ENDBRANCH  19  20
ENDBRANCH  18  19
ENDBRANCH  17  18
ENDBRANCH  10  17
ENDBRANCH   1   8
BRANCH   7  23
HETATM   23  CAK   D T1000     -11.087   3.919  -5.266  1.00 59.62     0.025 A 
HETATM   24  CAM   D T1000      -9.932   3.165  -5.657  1.00 60.49     0.019 A 
HETATM   25  CAP   D T1000      -8.571   3.072  -5.201  1.00 60.58     0.002 A 
HETATM   26  CAN   D T1000     -10.405   2.397  -6.749  1.00 61.04     0.081 A 
HETATM   27  CAQ   D T1000      -7.670   2.199  -5.852  1.00 59.56     0.000 A 
HETATM   28  CAR   D T1000      -8.136   1.429  -6.947  1.00 60.35     0.002 A 
HETATM   29  CAS   D T1000      -9.487   1.505  -7.413  1.00 60.55     0.019 A 
HETATM   30  NAO   D T1000     -11.732   2.691  -6.956  1.00 60.44    -0.244 NA
HETATM   31  CAL   D T1000     -12.186   3.613  -6.076  1.00 59.16     0.099 A 
ENDBRANCH   7  23
TORSDOF 6
ENDMDL
MODEL 4
REMARK VINA RESULT:    -7.817      3.184      7.331
REMARK INTER + INTRA:         -11.853
REMARK INTER:                 -10.518
REMARK INTRA:                  -1.336
REMARK UNBOUND:                -1.295
REMARK  6 active torsions:
REMARK  status: ('A' for Active; 'I' for Inactive)
REMARK    1  A    between atoms: NBC_2  and  CBB_4 
REMARK    2  A    between atoms: CBB_4  and  CBA_5 
REMARK    3  A    between atoms: CBA_5  and  CAY_6 
REMARK    4  A    between atoms: CAY_6  and  NAH_7 
REMARK    5  A    between atoms: CAG_15  and  CAI_16 
REMARK    6  A    between atoms: CAJ_22  and  CAK_23 
ROOT
HETATM    1  CAI   D T1000     -14.224   2.258  -5.740  1.00 59.57     0.064 A 
HETATM    2  CAT   D T1000     -15.254   3.254  -5.349  1.00 60.04     0.282 A 
HETATM    3  OAZ   D T1000     -14.993   4.471  -5.057  1.00 63.91    -0.265 OA
HETATM    4  NAU   D T1000     -16.515   2.789  -5.323  1.00 59.30    -0.169 NA
HETATM    5  CAV   D T1000     -16.437   1.517  -5.674  1.00 59.13     0.282 A 
HETATM    6  OAX   D T1000     -17.496   0.817  -5.743  1.00 59.19    -0.265 OA
HETATM    7  CAJ   D T1000     -15.050   1.037  -5.968  1.00 59.47     0.064 A 
ENDROOT
BRANCH   1   8
HETATM    8  CAG   D T1000     -12.717   2.529  -5.856  1.00 60.05     0.023 A 
HETATM    9  CAW   D T1000     -12.103   3.426  -4.990  1.00 61.31     0.076 A 
HETATM   10  NAH   D T1000     -10.778   3.452  -5.341  1.00 62.19    -0.326 N 
HETATM   11  CAE   D T1000     -10.535   2.611  -6.374  1.00 60.17     0.060 A 
HETATM   12  CAF   D T1000      -9.353   2.264  -7.104  1.00 59.69     0.017 A 
HETATM   13  CAD   D T1000     -11.772   1.997  -6.739  1.00 59.51     0.017 A 
HETATM   14  CAA   D T1000      -9.408   1.334  -8.159  1.00 60.21     0.002 A 
HETATM   15  CAB   D T1000     -10.649   0.722  -8.524  1.00 60.52     0.000 A 
HETATM   16  CAC   D T1000     -11.845   1.051  -7.813  1.00 59.56     0.002 A 
BRANCH  10  17
HETATM   17  CAY   D T1000      -9.780   4.296  -4.669  1.00 63.29     0.108 C 
BRANCH  17  18
HETATM   18  CBA   D T1000     -10.440   5.591  -4.210  1.00 66.90     0.048 C 
BRANCH  18  19
HETATM   19  CBB   D T1000     -10.265   5.669  -2.695  1.00 68.12     0.099 C 
BRANCH  19  20
HETATM   20  NBC   D T1000     -11.355   6.406  -2.007  1.00 69.41    -0.365 N 
HETATM   21  CBD   D T1000     -12.255   5.566  -1.237  1.00 71.44     0.121 C 
HETATM   22  CBE   D T1000     -11.582   7.851  -2.035  1.00 69.10     0.121 C 
ENDBRANCH  19  20
ENDBRANCH  18  19
ENDBRANCH  17  18
ENDBRANCH  10  17
ENDBRANCH   1   8
BRANCH   7  23
HETATM   23  CAK   D T1000     -14.670  -0.374  -6.403  1.00 59.62     0.025 A 
HETATM   24  CAM   D T1000     -14.548  -0.925  -7.721  1.00 60.49     0.019 A 
HETATM   25  CAP   D T1000     -14.707  -0.416  -9.057  1.00 60.58     0.002 A 
HETATM   26  CAN   D T1000     -14.192  -2.273  -7.475  1.00 61.04     0.081 A 
HETATM   27  CAQ   D T1000     -14.510  -1.276 -10.163  1.00 59.56     0.000 A 
HETATM   28  CAR   D T1000     -14.157  -2.626  -9.924  1.00 60.35     0.002 A 
HETATM   29  CAS   D T1000     -13.991  -3.149  -8.602  1.00 60.55     0.019 A 
HETATM   30  NAO   D T1000     -14.114  -2.470  -6.116  1.00 60.44    -0.244 NA
HETATM   31  CAL   D T1000     -14.398  -1.340  -5.427  1.00 59.16     0.099 A 
ENDBRANCH   7  23
TORSDOF 6
ENDMDL
MODEL 5
REMARK VINA RESULT:    -7.762      2.429      7.102
REMARK INTER + INTRA:         -11.780
REMARK INTER:                 -10.488
REMARK INTRA:                  -1.292
REMARK UNBOUND:                -1.295
REMARK  6 active torsions:
REMARK  status: ('A' for Active; 'I' for Inactive)
REMARK    1  A    between atoms: NBC_2  and  CBB_4 
REMARK    2  A    between atoms: CBB_4  and  CBA_5 
REMARK    3  A    between atoms: CBA_5  and  CAY_6 
REMARK    4  A    between atoms: CAY_6  and  NAH_7 
REMARK    5  A    between atoms: CAG_15  and  CAI_16 
REMARK    6  A    between atoms: CAJ_22  and  CAK_23 
ROOT
HETATM    1  CAI   D T1000     -11.729   5.428  -3.158  1.00 59.57     0.064 A 
HETATM    2  CAT   D T1000     -10.276   5.557  -3.436  1.00 60.04     0.282 A 
HETATM    3  OAZ   D T1000      -9.475   6.256  -2.728  1.00 63.91    -0.265 OA
HETATM    4  NAU   D T1000      -9.838   4.870  -4.506  1.00 59.30    -0.169 NA
HETATM    5  CAV   D T1000     -10.901   4.262  -5.004  1.00 59.13     0.282 A 
HETATM    6  OAX   D T1000     -10.780   3.525  -6.032  1.00 59.19    -0.265 OA
HETATM    7  CAJ   D T1000     -12.171   4.522  -4.257  1.00 59.47     0.064 A 
ENDROOT
BRANCH   1   8
HETATM    8  CAG   D T1000     -12.480   6.098  -1.999  1.00 60.05     0.023 A 
HETATM    9  CAW   D T1000     -13.225   5.329  -1.115  1.00 61.31     0.076 A 
HETATM   10  NAH   D T1000     -13.767   6.202  -0.208  1.00 62.19    -0.326 N 
HETATM   11  CAE   D T1000     -13.390   7.474  -0.477  1.00 60.17     0.060 A 
HETATM   12  CAF   D T1000     -13.662   8.735   0.145  1.00 59.69     0.017 A 
HETATM   13  CAD   D T1000     -12.556   7.447  -1.637  1.00 59.51     0.017 A 
HETATM   14  CAA   D T1000     -13.117   9.925  -0.374  1.00 60.21     0.002 A 
HETATM   15  CAB   D T1000     -12.284   9.894  -1.537  1.00 60.52     0.000 A 
HETATM   16  CAC   D T1000     -11.997   8.650  -2.179  1.00 59.56     0.002 A 
BRANCH  10  17
HETATM   17  CAY   D T1000     -14.643   5.782   0.895  1.00 63.29     0.108 C 
BRANCH  17  18
HETATM   18  CBA   D T1000     -15.471   4.582   0.455  1.00 66.90     0.048 C 
BRANCH  18  19
HETATM   19  CBB   D T1000     -16.897   5.081   0.230  1.00 68.12     0.099 C 
BRANCH  19  20
HETATM   20  NBC   D T1000     -17.568   5.546   1.470  1.00 69.41    -0.365 N 
HETATM   21  CBD   D T1000     -17.819   4.500   2.445  1.00 71.44     0.121 C 
HETATM   22  CBE   D T1000     -17.976   6.917   1.778  1.00 69.10     0.121 C 
ENDBRANCH  19  20
ENDBRANCH  18  19
ENDBRANCH  17  18
ENDBRANCH  10  17
ENDBRANCH   1   8
BRANCH   7  23
HETATM   23  CAK   D T1000     -13.540   3.943  -4.602  1.00 59.62     0.025 A 
HETATM   24  CAM   D T1000     -13.897   2.615  -5.008  1.00 60.49     0.019 A 
HETATM   25  CAP   D T1000     -13.180   1.388  -5.227  1.00 60.58     0.002 A 
HETATM   26  CAN   D T1000     -15.297   2.704  -5.200  1.00 61.04     0.081 A 
HETATM   27  CAQ   D T1000     -13.877   0.233  -5.650  1.00 59.56     0.000 A 
HETATM   28  CAR   D T1000     -15.278   0.315  -5.847  1.00 60.35     0.002 A 
HETATM   29  CAS   D T1000     -16.009   1.526  -5.630  1.00 60.55     0.019 A 
HETATM   30  NAO   D T1000     -15.704   3.987  -4.918  1.00 60.44    -0.244 NA
HETATM   31  CAL   D T1000     -14.666   4.774  -4.551  1.00 59.16     0.099 A 
ENDBRANCH   7  23
TORSDOF 6
ENDMDL
MODEL 6
REMARK VINA RESULT:    -7.736      2.822      7.641
REMARK INTER + INTRA:         -11.744
REMARK INTER:                 -10.319
REMARK INTRA:                  -1.425
REMARK UNBOUND:                -1.295
REMARK  6 active torsions:
REMARK  status: ('A' for Active; 'I' for Inactive)
REMARK    1  A    between atoms: NBC_2  and  CBB_4 
REMARK    2  A    between atoms: CBB_4  and  CBA_5 
REMARK    3  A    between atoms: CBA_5  and  CAY_6 
REMARK    4  A    between atoms: CAY_6  and  NAH_7 
REMARK    5  A    between atoms: CAG_15  and  CAI_16 
REMARK    6  A    between atoms: CAJ_22  and  CAK_23 
ROOT
HETATM    1  CAI   D T1000     -13.939   2.352  -5.198  1.00 59.57     0.064 A 
HETATM    2  CAT   D T1000     -14.338   1.408  -6.273  1.00 60.04     0.282 A 
HETATM    3  OAZ   D T1000     -15.462   0.800  -6.306  1.00 63.91    -0.265 OA
HETATM    4  NAU   D T1000     -13.422   1.227  -7.240  1.00 59.30    -0.169 NA
HETATM    5  CAV   D T1000     -12.394   1.991  -6.910  1.00 59.13     0.282 A 
HETATM    6  OAX   D T1000     -11.369   2.025  -7.661  1.00 59.19    -0.265 OA
HETATM    7  CAJ   D T1000     -12.576   2.762  -5.640  1.00 59.47     0.064 A 
ENDROOT
BRANCH   1   8
HETATM    8  CAG   D T1000     -14.798   2.740  -3.986  1.00 60.05     0.023 A 
HETATM    9  CAW   D T1000     -14.264   2.679  -2.705  1.00 61.31     0.076 A 
HETATM   10  NAH   D T1000     -15.261   3.079  -1.853  1.00 62.19    -0.326 N 
HETATM   11  CAE   D T1000     -16.385   3.393  -2.539  1.00 60.17     0.060 A 
HETATM   12  CAF   D T1000     -17.681   3.858  -2.144  1.00 59.69     0.017 A 
HETATM   13  CAD   D T1000     -16.124   3.181  -3.927  1.00 59.51     0.017 A 
HETATM   14  CAA   D T1000     -18.679   4.104  -3.107  1.00 60.21     0.002 A 
HETATM   15  CAB   D T1000     -18.415   3.889  -4.497  1.00 60.52     0.000 A 
HETATM   16  CAC   D T1000     -17.131   3.424  -4.918  1.00 59.56     0.002 A 
BRANCH  10  17
HETATM   17  CAY   D T1000     -15.100   3.140  -0.393  1.00 63.29     0.108 C 
BRANCH  17  18
HETATM   18  CBA   D T1000     -14.502   4.486  -0.006  1.00 66.90     0.048 C 
BRANCH  18  19
HETATM   19  CBB   D T1000     -15.555   5.221   0.822  1.00 68.12     0.099 C 
BRANCH  19  20
HETATM   20  NBC   D T1000     -15.872   6.579   0.313  1.00 69.41    -0.365 N 
HETATM   21  CBD   D T1000     -14.739   7.486   0.276  1.00 71.44     0.121 C 
HETATM   22  CBE   D T1000     -17.179   7.056  -0.140  1.00 69.10     0.121 C 
ENDBRANCH  19  20
ENDBRANCH  18  19
ENDBRANCH  17  18
ENDBRANCH  10  17
ENDBRANCH   1   8
BRANCH   7  23
HETATM   23  CAK   D T1000     -11.561   3.724  -5.031  1.00 59.62     0.025 A 
HETATM   24  CAM   D T1000     -11.774   4.889  -4.223  1.00 60.49     0.019 A 
HETATM   25  CAP   D T1000     -12.927   5.565  -3.692  1.00 60.58     0.002 A 
HETATM   26  CAN   D T1000     -10.460   5.362  -3.989  1.00 61.04     0.081 A 
HETATM   27  CAQ   D T1000     -12.759   6.736  -2.917  1.00 59.56     0.000 A 
HETATM   28  CAR   D T1000     -11.447   7.216  -2.680  1.00 60.35     0.002 A 
HETATM   29  CAS   D T1000     -10.288   6.555  -3.198  1.00 60.55     0.019 A 
HETATM   30  NAO   D T1000      -9.568   4.522  -4.614  1.00 60.44    -0.244 NA
HETATM   31  CAL   D T1000     -10.196   3.513  -5.260  1.00 59.16     0.099 A 
ENDBRANCH   7  23
TORSDOF 6
ENDMDL
MODEL 7
REMARK VINA RESULT:    -7.662      2.989      6.006
REMARK INTER + INTRA:         -11.644
REMARK INTER:                 -10.090
REMARK INTRA:                  -1.554
REMARK UNBOUND:                -1.295
REMARK  6 active torsions:
REMARK  status: ('A' for Active; 'I' for Inactive)
REMARK    1  A    between atoms: NBC_2  and  CBB_4 
REMARK    2  A    between atoms: CBB_4  and  CBA_5 
REMARK    3  A    between atoms: CBA_5  and  CAY_6 
REMARK    4  A    between atoms: CAY_6  and  NAH_7 
REMARK    5  A    between atoms: CAG_15  and  CAI_16 
REMARK    6  A    between atoms: CAJ_22  and  CAK_23 
ROOT
HETATM    1  CAI   D T1000     -16.332   3.730  -3.139  1.00 59.57     0.064 A 
HETATM    2  CAT   D T1000     -17.283   3.054  -4.057  1.00 60.04     0.282 A 
HETATM    3  OAZ   D T1000     -17.024   2.785  -5.279  1.00 63.91    -0.265 OA
HETATM    4  NAU   D T1000     -18.468   2.729  -3.511  1.00 59.30    -0.169 NA
HETATM    5  CAV   D T1000     -18.410   3.137  -2.255  1.00 59.13     0.282 A 
HETATM    6  OAX   D T1000     -19.405   2.950  -1.487  1.00 59.19    -0.265 OA
HETATM    7  CAJ   D T1000     -17.119   3.792  -1.874  1.00 59.47     0.064 A 
ENDROOT
BRANCH   1   8
HETATM    8  CAG   D T1000     -14.916   4.198  -3.505  1.00 60.05     0.023 A 
HETATM    9  CAW   D T1000     -14.472   5.451  -3.104  1.00 61.31     0.076 A 
HETATM   10  NAH   D T1000     -13.191   5.575  -3.577  1.00 62.19    -0.326 N 
HETATM   11  CAE   D T1000     -12.814   4.459  -4.245  1.00 60.17     0.060 A 
HETATM   12  CAF   D T1000     -11.608   4.074  -4.914  1.00 59.69     0.017 A 
HETATM   13  CAD   D T1000     -13.910   3.544  -4.223  1.00 59.51     0.017 A 
HETATM   14  CAA   D T1000     -11.504   2.815  -5.538  1.00 60.21     0.002 A 
HETATM   15  CAB   D T1000     -12.606   1.902  -5.516  1.00 60.52     0.000 A 
HETATM   16  CAC   D T1000     -13.821   2.261  -4.856  1.00 59.56     0.002 A 
BRANCH  10  17
HETATM   17  CAY   D T1000     -12.367   6.775  -3.375  1.00 63.29     0.108 C 
BRANCH  17  18
HETATM   18  CBA   D T1000     -12.117   6.973  -1.885  1.00 66.90     0.048 C 
BRANCH  18  19
HETATM   19  CBB   D T1000     -12.206   8.473  -1.613  1.00 68.12     0.099 C 
BRANCH  19  20
HETATM   20  NBC   D T1000     -13.113   8.823  -0.491  1.00 69.41    -0.365 N 
HETATM   21  CBD   D T1000     -12.874  10.132   0.089  1.00 71.44     0.121 C 
HETATM   22  CBE   D T1000     -14.187   7.991   0.051  1.00 69.10     0.121 C 
ENDBRANCH  19  20
ENDBRANCH  18  19
ENDBRANCH  17  18
ENDBRANCH  10  17
ENDBRANCH   1   8
BRANCH   7  23
HETATM   23  CAK   D T1000     -16.776   4.345  -0.494  1.00 59.62     0.025 A 
HETATM   24  CAM   D T1000     -17.337   5.460   0.211  1.00 60.49     0.019 A 
HETATM   25  CAP   D T1000     -18.372   6.422  -0.060  1.00 60.58     0.002 A 
HETATM   26  CAN   D T1000     -16.597   5.483   1.417  1.00 61.04     0.081 A 
HETATM   27  CAQ   D T1000     -18.664   7.426   0.892  1.00 59.56     0.000 A 
HETATM   28  CAR   D T1000     -17.924   7.457   2.101  1.00 60.35     0.002 A 
HETATM   29  CAS   D T1000     -16.894   6.505   2.389  1.00 60.55     0.019 A 
HETATM   30  NAO   D T1000     -15.686   4.453   1.398  1.00 60.44    -0.244 NA
HETATM   31  CAL   D T1000     -15.761   3.737   0.252  1.00 59.16     0.099 A 
ENDBRANCH   7  23
TORSDOF 6
ENDMDL
MODEL 8
REMARK VINA RESULT:    -7.656      3.399      8.049
REMARK INTER + INTRA:         -11.635
REMARK INTER:                 -10.003
REMARK INTRA:                  -1.633
REMARK UNBOUND:                -1.295
REMARK  6 active torsions:
REMARK  status: ('A' for Active; 'I' for Inactive)
REMARK    1  A    between atoms: NBC_2  and  CBB_4 
REMARK    2  A    between atoms: CBB_4  and  CBA_5 
REMARK    3  A    between atoms: CBA_5  and  CAY_6 
REMARK    4  A    between atoms: CAY_6  and  NAH_7 
REMARK    5  A    between atoms: CAG_15  and  CAI_16 
REMARK    6  A    between atoms: CAJ_22  and  CAK_23 
ROOT
HETATM    1  CAI   D T1000     -16.123   1.400  -5.733  1.00 59.57     0.064 A 
HETATM    2  CAT   D T1000     -17.497   1.962  -5.677  1.00 60.04     0.282 A 
HETATM    3  OAZ   D T1000     -17.773   3.126  -5.227  1.00 63.91    -0.265 OA
HETATM    4  NAU   D T1000     -18.462   1.153  -6.148  1.00 59.30    -0.169 NA
HETATM    5  CAV   D T1000     -17.850   0.047  -6.532  1.00 59.13     0.282 A 
HETATM    6  OAX   D T1000     -18.526  -0.906  -7.032  1.00 59.19    -0.265 OA
HETATM    7  CAJ   D T1000     -16.367   0.056  -6.330  1.00 59.47     0.064 A 
ENDROOT
BRANCH   1   8
HETATM    8  CAG   D T1000     -14.846   2.115  -5.269  1.00 60.05     0.023 A 
HETATM    9  CAW   D T1000     -14.819   2.766  -4.042  1.00 61.31     0.076 A 
HETATM   10  NAH   D T1000     -13.562   3.299  -3.917  1.00 62.19    -0.326 N 
HETATM   11  CAE   D T1000     -12.804   3.005  -5.000  1.00 60.17     0.060 A 
HETATM   12  CAF   D T1000     -11.452   3.306  -5.366  1.00 59.69     0.017 A 
HETATM   13  CAD   D T1000     -13.605   2.240  -5.902  1.00 59.51     0.017 A 
HETATM   14  CAA   D T1000     -10.923   2.855  -6.590  1.00 60.21     0.002 A 
HETATM   15  CAB   D T1000     -11.729   2.092  -7.493  1.00 60.52     0.000 A 
HETATM   16  CAC   D T1000     -13.082   1.778  -7.153  1.00 59.56     0.002 A 
BRANCH  10  17
HETATM   17  CAY   D T1000     -13.129   4.085  -2.754  1.00 63.29     0.108 C 
BRANCH  17  18
HETATM   18  CBA   D T1000     -13.335   5.567  -3.040  1.00 66.90     0.048 C 
BRANCH  18  19
HETATM   19  CBB   D T1000     -12.932   6.326  -1.777  1.00 68.12     0.099 C 
BRANCH  19  20
HETATM   20  NBC   D T1000     -11.772   7.233  -1.971  1.00 69.41    -0.365 N 
HETATM   21  CBD   D T1000     -12.059   8.635  -1.727  1.00 71.44     0.121 C 
HETATM   22  CBE   D T1000     -10.419   6.843  -2.367  1.00 69.10     0.121 C 
ENDBRANCH  19  20
ENDBRANCH  18  19
ENDBRANCH  17  18
ENDBRANCH  10  17
ENDBRANCH   1   8
BRANCH   7  23
HETATM   23  CAK   D T1000     -15.412  -1.078  -6.693  1.00 59.62     0.025 A 
HETATM   24  CAM   D T1000     -14.750  -1.356  -7.933  1.00 60.49     0.019 A 
HETATM   25  CAP   D T1000     -14.705  -0.731  -9.228  1.00 60.58     0.002 A 
HETATM   26  CAN   D T1000     -14.027  -2.540  -7.653  1.00 61.04     0.081 A 
HETATM   27  CAQ   D T1000     -13.925  -1.305 -10.258  1.00 59.56     0.000 A 
HETATM   28  CAR   D T1000     -13.201  -2.492  -9.985  1.00 60.35     0.002 A 
HETATM   29  CAS   D T1000     -13.230  -3.126  -8.702  1.00 60.55     0.019 A 
HETATM   30  NAO   D T1000     -14.259  -2.903  -6.347  1.00 60.44    -0.244 NA
HETATM   31  CAL   D T1000     -15.097  -2.041  -5.727  1.00 59.16     0.099 A 
ENDBRANCH   7  23
TORSDOF 6
ENDMDL
MODEL 9
REMARK VINA RESULT:    -7.623      2.416      7.055
REMARK INTER + INTRA:         -11.591
REMARK INTER:                 -10.457
REMARK INTRA:                  -1.134
REMARK UNBOUND:                -1.295
REMARK  6 active torsions:
REMARK  status: ('A' for Active; 'I' for Inactive)
REMARK    1  A    between atoms: NBC_2  and  CBB_4 
REMARK    2  A    between atoms: CBB_4  and  CBA_5 
REMARK    3  A    between atoms: CBA_5  and  CAY_6 
REMARK    4  A    between atoms: CAY_6  and  NAH_7 
REMARK    5  A    between atoms: CAG_15  and  CAI_16 
REMARK    6  A    between atoms: CAJ_22  and  CAK_23 
ROOT
HETATM    1  CAI   D T1000     -12.433   3.064  -4.984  1.00 59.57     0.064 A 
HETATM    2  CAT   D T1000     -11.114   3.326  -5.614  1.00 60.04     0.282 A 
HETATM    3  OAZ   D T1000     -10.241   4.127  -5.132  1.00 63.91    -0.265 OA
HETATM    4  NAU   D T1000     -10.882   2.650  -6.752  1.00 59.30    -0.169 NA
HETATM    5  CAV   D T1000     -11.964   1.922  -6.966  1.00 59.13     0.282 A 
HETATM    6  OAX   D T1000     -12.023   1.165  -7.985  1.00 59.19    -0.265 OA
HETATM    7  CAJ   D T1000     -13.033   2.081  -5.930  1.00 59.47     0.064 A 
ENDROOT
BRANCH   1   8
HETATM    8  CAG   D T1000     -12.943   3.697  -3.681  1.00 60.05     0.023 A 
HETATM    9  CAW   D T1000     -13.729   2.956  -2.809  1.00 61.31     0.076 A 
HETATM   10  NAH   D T1000     -14.022   3.785  -1.756  1.00 62.19    -0.326 N 
HETATM   11  CAE   D T1000     -13.450   5.001  -1.926  1.00 60.17     0.060 A 
HETATM   12  CAF   D T1000     -13.435   6.200  -1.143  1.00 59.69     0.017 A 
HETATM   13  CAD   D T1000     -12.744   4.983  -3.168  1.00 59.51     0.017 A 
HETATM   14  CAA   D T1000     -12.736   7.339  -1.587  1.00 60.21     0.002 A 
HETATM   15  CAB   D T1000     -12.032   7.318  -2.833  1.00 60.52     0.000 A 
HETATM   16  CAC   D T1000     -12.031   6.135  -3.635  1.00 59.56     0.002 A 
BRANCH  10  17
HETATM   17  CAY   D T1000     -14.854   3.380  -0.615  1.00 63.29     0.108 C 
BRANCH  17  18
HETATM   18  CBA   D T1000     -16.246   3.011  -1.109  1.00 66.90     0.048 C 
BRANCH  18  19
HETATM   19  CBB   D T1000     -17.047   4.309  -1.196  1.00 68.12     0.099 C 
BRANCH  19  20
HETATM   20  NBC   D T1000     -17.306   4.939   0.123  1.00 69.41    -0.365 N 
HETATM   21  CBD   D T1000     -16.942   6.342   0.201  1.00 71.44     0.121 C 
HETATM   22  CBE   D T1000     -17.880   4.288   1.301  1.00 69.10     0.121 C 
ENDBRANCH  19  20
ENDBRANCH  18  19
ENDBRANCH  17  18
ENDBRANCH  10  17
ENDBRANCH   1   8
BRANCH   7  23
HETATM   23  CAK   D T1000     -14.377   1.357  -5.920  1.00 59.62     0.025 A 
HETATM   24  CAM   D T1000     -14.661  -0.046  -5.983  1.00 60.49     0.019 A 
HETATM   25  CAP   D T1000     -13.870  -1.245  -6.062  1.00 60.58     0.002 A 
HETATM   26  CAN   D T1000     -16.076  -0.088  -5.957  1.00 61.04     0.081 A 
HETATM   27  CAQ   D T1000     -14.509  -2.505  -6.119  1.00 59.56     0.000 A 
HETATM   28  CAR   D T1000     -15.925  -2.555  -6.097  1.00 60.35     0.002 A 
HETATM   29  CAS   D T1000     -16.728  -1.373  -6.015  1.00 60.55     0.019 A 
HETATM   30  NAO   D T1000     -16.557   1.197  -5.880  1.00 60.44    -0.244 NA
HETATM   31  CAL   D T1000     -15.556   2.108  -5.856  1.00 59.16     0.099 A 
ENDBRANCH   7  23
TORSDOF 6
ENDMDL
