MODEL 1
REMARK VINA RESULT:    -8.503      0.000      0.000
REMARK INTER + INTRA:         -12.996
REMARK INTER:                 -11.486
REMARK INTRA:                  -1.510
REMARK UNBOUND:                -1.510
REMARK  6 active torsions:
REMARK  status: ('A' for Active; 'I' for Inactive)
REMARK    1  A    between atoms: NBC_2  and  CBB_4 
REMARK    2  A    between atoms: CBB_4  and  CBA_5 
REMARK    3  A    between atoms: CBA_5  and  CAY_6 
REMARK    4  A    between atoms: CAY_6  and  NAH_7 
REMARK    5  A    between atoms: CAG_15  and  CAI_16 
REMARK    6  A    between atoms: CAJ_22  and  CAK_23 
ROOT
HETATM    1  CAI   D T1000      -4.141  -0.539 -11.562  1.00 59.57     0.064 A 
HETATM    2  CAT   D T1000      -5.527  -0.027 -11.427  1.00 60.04     0.282 A 
HETATM    3  OAZ   D T1000      -5.815   1.180 -11.121  1.00 63.91    -0.265 OA
HETATM    4  NAU   D T1000      -6.494  -0.934 -11.656  1.00 59.30    -0.169 NA
HETATM    5  CAV   D T1000      -5.869  -2.061 -11.946  1.00 59.13     0.282 A 
HETATM    6  OAX   D T1000      -6.543  -3.104 -12.219  1.00 59.19    -0.265 OA
HETATM    7  CAJ   D T1000      -4.374  -1.967 -11.924  1.00 59.47     0.064 A 
ENDROOT
BRANCH   1   8
HETATM    8  CAG   D T1000      -2.860   0.285 -11.364  1.00 60.05     0.023 A 
HETATM    9  CAW   D T1000      -2.342   1.033 -12.414  1.00 61.31     0.076 A 
HETATM   10  NAH   D T1000      -1.214   1.644 -11.932  1.00 62.19    -0.326 N 
HETATM   11  CAE   D T1000      -1.009   1.322 -10.632  1.00 60.17     0.060 A 
HETATM   12  CAF   D T1000      -0.006   1.682  -9.676  1.00 59.69     0.017 A 
HETATM   13  CAD   D T1000      -2.055   0.436 -10.230  1.00 59.51     0.017 A 
HETATM   14  CAA   D T1000      -0.051   1.175  -8.363  1.00 60.21     0.002 A 
HETATM   15  CAB   D T1000      -1.099   0.287  -7.963  1.00 60.52     0.000 A 
HETATM   16  CAC   D T1000      -2.112  -0.090  -8.898  1.00 59.56     0.002 A 
BRANCH  10  17
HETATM   17  CAY   D T1000      -0.360   2.522 -12.743  1.00 63.29     0.108 C 
BRANCH  17  18
HETATM   18  CBA   D T1000      -0.860   3.956 -12.633  1.00 66.90     0.048 C 
BRANCH  18  19
HETATM   19  CBB   D T1000       0.371   4.848 -12.480  1.00 68.12     0.099 C 
BRANCH  19  20
HETATM   20  NBC   D T1000       0.918   4.878 -11.101  1.00 69.41    -0.365 N 
HETATM   21  CBD   D T1000      -0.004   5.384 -10.099  1.00 71.44     0.121 C 
HETATM   22  CBE   D T1000       2.255   4.452 -10.686  1.00 69.10     0.121 C 
ENDBRANCH  19  20
ENDBRANCH  18  19
ENDBRANCH  17  18
ENDBRANCH  10  17
ENDBRANCH   1   8
BRANCH   7  23
HETATM   23  CAK   D T1000      -3.407  -3.106 -12.229  1.00 59.62     0.025 A 
HETATM   24  CAM   D T1000      -2.088  -3.347 -11.720  1.00 60.49     0.019 A 
HETATM   25  CAP   D T1000      -1.217  -2.684 -10.787  1.00 60.58     0.002 A 
HETATM   26  CAN   D T1000      -1.699  -4.534 -12.386  1.00 61.04     0.081 A 
HETATM   27  CAQ   D T1000       0.065  -3.217 -10.521  1.00 59.56     0.000 A 
HETATM   28  CAR   D T1000       0.461  -4.403 -11.187  1.00 60.35     0.002 A 
HETATM   29  CAS   D T1000      -0.392  -5.081 -12.116  1.00 60.55     0.019 A 
HETATM   30  NAO   D T1000      -2.725  -4.938 -13.209  1.00 60.44    -0.244 NA
HETATM   31  CAL   D T1000      -3.782  -4.096 -13.145  1.00 59.16     0.099 A 
ENDBRANCH   7  23
TORSDOF 6
ENDMDL
MODEL 2
REMARK VINA RESULT:    -8.488      1.888      6.880
REMARK INTER + INTRA:         -12.976
REMARK INTER:                 -11.275
REMARK INTRA:                  -1.701
REMARK UNBOUND:                -1.510
REMARK  6 active torsions:
REMARK  status: ('A' for Active; 'I' for Inactive)
REMARK    1  A    between atoms: NBC_2  and  CBB_4 
REMARK    2  A    between atoms: CBB_4  and  CBA_5 
REMARK    3  A    between atoms: CBA_5  and  CAY_6 
REMARK    4  A    between atoms: CAY_6  and  NAH_7 
REMARK    5  A    between atoms: CAG_15  and  CAI_16 
REMARK    6  A    between atoms: CAJ_22  and  CAK_23 
ROOT
HETATM    1  CAI   D T1000      -2.658  -0.054 -10.321  1.00 59.57     0.064 A 
HETATM    2  CAT   D T1000      -4.122  -0.194 -10.118  1.00 60.04     0.282 A 
HETATM    3  OAZ   D T1000      -4.756  -1.297 -10.234  1.00 63.91    -0.265 OA
HETATM    4  NAU   D T1000      -4.763   0.944  -9.793  1.00 59.30    -0.169 NA
HETATM    5  CAV   D T1000      -3.834   1.882  -9.753  1.00 59.13     0.282 A 
HETATM    6  OAX   D T1000      -4.156   3.076  -9.458  1.00 59.19    -0.265 OA
HETATM    7  CAJ   D T1000      -2.450   1.402 -10.067  1.00 59.47     0.064 A 
ENDROOT
BRANCH   1   8
HETATM    8  CAG   D T1000      -1.694  -1.191 -10.688  1.00 60.05     0.023 A 
HETATM    9  CAW   D T1000      -2.025  -2.086 -11.698  1.00 61.31     0.076 A 
HETATM   10  NAH   D T1000      -0.980  -2.970 -11.785  1.00 62.19    -0.326 N 
HETATM   11  CAE   D T1000      -0.013  -2.665 -10.888  1.00 60.17     0.060 A 
HETATM   12  CAF   D T1000       1.256  -3.247 -10.573  1.00 59.69     0.017 A 
HETATM   13  CAD   D T1000      -0.443  -1.517 -10.153  1.00 59.51     0.017 A 
HETATM   14  CAA   D T1000       2.066  -2.699  -9.559  1.00 60.21     0.002 A 
HETATM   15  CAB   D T1000       1.632  -1.552  -8.825  1.00 60.52     0.000 A 
HETATM   16  CAC   D T1000       0.369  -0.951  -9.117  1.00 59.56     0.002 A 
BRANCH  10  17
HETATM   17  CAY   D T1000      -0.947  -4.091 -12.734  1.00 63.29     0.108 C 
BRANCH  17  18
HETATM   18  CBA   D T1000      -1.395  -5.364 -12.027  1.00 66.90     0.048 C 
BRANCH  18  19
HETATM   19  CBB   D T1000      -2.533  -5.958 -12.855  1.00 68.12     0.099 C 
BRANCH  19  20
HETATM   20  NBC   D T1000      -3.745  -5.103 -12.906  1.00 69.41    -0.365 N 
HETATM   21  CBD   D T1000      -4.180  -4.756 -14.246  1.00 71.44     0.121 C 
HETATM   22  CBE   D T1000      -4.507  -4.605 -11.759  1.00 69.10     0.121 C 
ENDBRANCH  19  20
ENDBRANCH  18  19
ENDBRANCH  17  18
ENDBRANCH  10  17
ENDBRANCH   1   8
BRANCH   7  23
HETATM   23  CAK   D T1000      -1.192   2.263 -10.083  1.00 59.62     0.025 A 
HETATM   24  CAM   D T1000      -0.476   2.816 -11.195  1.00 60.49     0.019 A 
HETATM   25  CAP   D T1000      -0.640   2.801 -12.624  1.00 60.58     0.002 A 
HETATM   26  CAN   D T1000       0.604   3.492 -10.577  1.00 61.04     0.081 A 
HETATM   27  CAQ   D T1000       0.296   3.471 -13.446  1.00 59.56     0.000 A 
HETATM   28  CAR   D T1000       1.380   4.147 -12.834  1.00 60.35     0.002 A 
HETATM   29  CAS   D T1000       1.558   4.177 -11.413  1.00 60.55     0.019 A 
HETATM   30  NAO   D T1000       0.503   3.337  -9.214  1.00 60.44    -0.244 NA
HETATM   31  CAL   D T1000      -0.574   2.594  -8.871  1.00 59.16     0.099 A 
ENDBRANCH   7  23
TORSDOF 6
ENDMDL
MODEL 3
REMARK VINA RESULT:    -8.330      1.970      5.193
REMARK INTER + INTRA:         -12.763
REMARK INTER:                 -10.684
REMARK INTRA:                  -2.078
REMARK UNBOUND:                -1.510
REMARK  6 active torsions:
REMARK  status: ('A' for Active; 'I' for Inactive)
REMARK    1  A    between atoms: NBC_2  and  CBB_4 
REMARK    2  A    between atoms: CBB_4  and  CBA_5 
REMARK    3  A    between atoms: CBA_5  and  CAY_6 
REMARK    4  A    between atoms: CAY_6  and  NAH_7 
REMARK    5  A    between atoms: CAG_15  and  CAI_16 
REMARK    6  A    between atoms: CAJ_22  and  CAK_23 
ROOT
HETATM    1  CAI   D T1000      -4.152  -1.709 -11.784  1.00 59.57     0.064 A 
HETATM    2  CAT   D T1000      -5.205  -2.738 -11.972  1.00 60.04     0.282 A 
HETATM    3  OAZ   D T1000      -5.101  -3.947 -11.571  1.00 63.91    -0.265 OA
HETATM    4  NAU   D T1000      -6.312  -2.311 -12.607  1.00 59.30    -0.169 NA
HETATM    5  CAV   D T1000      -6.102  -1.036 -12.879  1.00 59.13     0.282 A 
HETATM    6  OAX   D T1000      -6.998  -0.363 -13.479  1.00 59.19    -0.265 OA
HETATM    7  CAJ   D T1000      -4.775  -0.512 -12.421  1.00 59.47     0.064 A 
ENDROOT
BRANCH   1   8
HETATM    8  CAG   D T1000      -2.802  -1.929 -11.088  1.00 60.05     0.023 A 
HETATM    9  CAW   D T1000      -2.396  -1.077 -10.067  1.00 61.31     0.076 A 
HETATM   10  NAH   D T1000      -1.168  -1.527  -9.657  1.00 62.19    -0.326 N 
HETATM   11  CAE   D T1000      -0.792  -2.619 -10.364  1.00 60.17     0.060 A 
HETATM   12  CAF   D T1000       0.365  -3.460 -10.334  1.00 59.69     0.017 A 
HETATM   13  CAD   D T1000      -1.826  -2.908 -11.307  1.00 59.51     0.017 A 
HETATM   14  CAA   D T1000       0.484  -4.552 -11.215  1.00 60.21     0.002 A 
HETATM   15  CAB   D T1000      -0.553  -4.837 -12.159  1.00 60.52     0.000 A 
HETATM   16  CAC   D T1000      -1.719  -4.013 -12.212  1.00 59.56     0.002 A 
BRANCH  10  17
HETATM   17  CAY   D T1000      -0.386  -0.883  -8.592  1.00 63.29     0.108 C 
BRANCH  17  18
HETATM   18  CBA   D T1000      -0.891   0.538  -8.384  1.00 66.90     0.048 C 
BRANCH  18  19
HETATM   19  CBB   D T1000       0.308   1.469  -8.559  1.00 68.12     0.099 C 
BRANCH  19  20
HETATM   20  NBC   D T1000       0.071   2.571  -9.525  1.00 69.41    -0.365 N 
HETATM   21  CBD   D T1000      -0.345   2.134 -10.846  1.00 71.44     0.121 C 
HETATM   22  CBE   D T1000       0.213   4.003  -9.262  1.00 69.10     0.121 C 
ENDBRANCH  19  20
ENDBRANCH  18  19
ENDBRANCH  17  18
ENDBRANCH  10  17
ENDBRANCH   1   8
BRANCH   7  23
HETATM   23  CAK   D T1000      -4.276   0.919 -12.592  1.00 59.62     0.025 A 
HETATM   24  CAM   D T1000      -4.029   1.925 -11.602  1.00 60.49     0.019 A 
HETATM   25  CAP   D T1000      -4.128   1.993 -10.168  1.00 60.58     0.002 A 
HETATM   26  CAN   D T1000      -3.606   3.036 -12.372  1.00 61.04     0.081 A 
HETATM   27  CAQ   D T1000      -3.800   3.195  -9.497  1.00 59.56     0.000 A 
HETATM   28  CAR   D T1000      -3.378   4.310 -10.263  1.00 60.35     0.002 A 
HETATM   29  CAS   D T1000      -3.270   4.261 -11.690  1.00 60.55     0.019 A 
HETATM   30  NAO   D T1000      -3.608   2.681 -13.701  1.00 60.44    -0.244 NA
HETATM   31  CAL   D T1000      -4.012   1.402 -13.879  1.00 59.16     0.099 A 
ENDBRANCH   7  23
TORSDOF 6
ENDMDL
MODEL 4
REMARK VINA RESULT:    -8.305      2.271      4.996
REMARK INTER + INTRA:         -12.728
REMARK INTER:                 -11.911
REMARK INTRA:                  -0.818
REMARK UNBOUND:                -1.510
REMARK  6 active torsions:
REMARK  status: ('A' for Active; 'I' for Inactive)
REMARK    1  A    between atoms: NBC_2  and  CBB_4 
REMARK    2  A    between atoms: CBB_4  and  CBA_5 
REMARK    3  A    between atoms: CBA_5  and  CAY_6 
REMARK    4  A    between atoms: CAY_6  and  NAH_7 
REMARK    5  A    between atoms: CAG_15  and  CAI_16 
REMARK    6  A    between atoms: CAJ_22  and  CAK_23 
ROOT
HETATM    1  CAI   D T1000      -3.582  -2.958 -12.618  1.00 59.57     0.064 A 
HETATM    2  CAT   D T1000      -3.720  -4.214 -13.397  1.00 60.04     0.282 A 
HETATM    3  OAZ   D T1000      -4.655  -4.430 -14.242  1.00 63.91    -0.265 OA
HETATM    4  NAU   D T1000      -2.774  -5.140 -13.156  1.00 59.30    -0.169 NA
HETATM    5  CAV   D T1000      -1.973  -4.609 -12.250  1.00 59.13     0.282 A 
HETATM    6  OAX   D T1000      -0.969  -5.268 -11.833  1.00 59.19    -0.265 OA
HETATM    7  CAJ   D T1000      -2.359  -3.230 -11.810  1.00 59.47     0.064 A 
ENDROOT
BRANCH   1   8
HETATM    8  CAG   D T1000      -4.517  -1.743 -12.708  1.00 60.05     0.023 A 
HETATM    9  CAW   D T1000      -4.005  -0.490 -13.021  1.00 61.31     0.076 A 
HETATM   10  NAH   D T1000      -5.071   0.371 -13.023  1.00 62.19    -0.326 N 
HETATM   11  CAE   D T1000      -6.222  -0.283 -12.736  1.00 60.17     0.060 A 
HETATM   12  CAF   D T1000      -7.587   0.132 -12.617  1.00 59.69     0.017 A 
HETATM   13  CAD   D T1000      -5.901  -1.659 -12.520  1.00 59.51     0.017 A 
HETATM   14  CAA   D T1000      -8.595  -0.797 -12.296  1.00 60.21     0.002 A 
HETATM   15  CAB   D T1000      -8.270  -2.174 -12.079  1.00 60.52     0.000 A 
HETATM   16  CAC   D T1000      -6.916  -2.615 -12.189  1.00 59.56     0.002 A 
BRANCH  10  17
HETATM   17  CAY   D T1000      -4.948   1.809 -13.298  1.00 63.29     0.108 C 
BRANCH  17  18
HETATM   18  CBA   D T1000      -3.628   2.077 -14.007  1.00 66.90     0.048 C 
BRANCH  18  19
HETATM   19  CBB   D T1000      -2.849   3.067 -13.143  1.00 68.12     0.099 C 
BRANCH  19  20
HETATM   20  NBC   D T1000      -1.431   2.685 -12.928  1.00 69.41    -0.365 N 
HETATM   21  CBD   D T1000      -0.471   3.518 -13.629  1.00 71.44     0.121 C 
HETATM   22  CBE   D T1000      -0.944   1.584 -12.095  1.00 69.10     0.121 C 
ENDBRANCH  19  20
ENDBRANCH  18  19
ENDBRANCH  17  18
ENDBRANCH  10  17
ENDBRANCH   1   8
BRANCH   7  23
HETATM   23  CAK   D T1000      -1.609  -2.380 -10.789  1.00 59.62     0.025 A 
HETATM   24  CAM   D T1000      -0.253  -2.481 -10.334  1.00 60.49     0.019 A 
HETATM   25  CAP   D T1000       0.863  -3.338 -10.633  1.00 60.58     0.002 A 
HETATM   26  CAN   D T1000      -0.157  -1.439  -9.381  1.00 61.04     0.081 A 
HETATM   27  CAQ   D T1000       2.094  -3.149  -9.963  1.00 59.56     0.000 A 
HETATM   28  CAR   D T1000       2.196  -2.110  -9.005  1.00 60.35     0.002 A 
HETATM   29  CAS   D T1000       1.098  -1.244  -8.697  1.00 60.55     0.019 A 
HETATM   30  NAO   D T1000      -1.368  -0.792  -9.305  1.00 60.44    -0.244 NA
HETATM   31  CAL   D T1000      -2.280  -1.334 -10.144  1.00 59.16     0.099 A 
ENDBRANCH   7  23
TORSDOF 6
ENDMDL
MODEL 5
REMARK VINA RESULT:    -8.287      2.369      4.009
REMARK INTER + INTRA:         -12.704
REMARK INTER:                 -11.020
REMARK INTRA:                  -1.684
REMARK UNBOUND:                -1.510
REMARK  6 active torsions:
REMARK  status: ('A' for Active; 'I' for Inactive)
REMARK    1  A    between atoms: NBC_2  and  CBB_4 
REMARK    2  A    between atoms: CBB_4  and  CBA_5 
REMARK    3  A    between atoms: CBA_5  and  CAY_6 
REMARK    4  A    between atoms: CAY_6  and  NAH_7 
REMARK    5  A    between atoms: CAG_15  and  CAI_16 
REMARK    6  A    between atoms: CAJ_22  and  CAK_23 
ROOT
HETATM    1  CAI   D T1000      -0.340  -2.364 -11.271  1.00 59.57     0.064 A 
HETATM    2  CAT   D T1000       0.914  -3.073 -10.911  1.00 60.04     0.282 A 
HETATM    3  OAZ   D T1000       1.954  -2.491 -10.446  1.00 63.91    -0.265 OA
HETATM    4  NAU   D T1000       0.892  -4.404 -11.104  1.00 59.30    -0.169 NA
HETATM    5  CAV   D T1000      -0.309  -4.678 -11.582  1.00 59.13     0.282 A 
HETATM    6  OAX   D T1000      -0.619  -5.881 -11.854  1.00 59.19    -0.265 OA
HETATM    7  CAJ   D T1000      -1.201  -3.486 -11.745  1.00 59.47     0.064 A 
ENDROOT
BRANCH   1   8
HETATM    8  CAG   D T1000      -0.582  -0.854 -11.141  1.00 60.05     0.023 A 
HETATM    9  CAW   D T1000      -0.862  -0.092 -12.268  1.00 61.31     0.076 A 
HETATM   10  NAH   D T1000      -1.024   1.197 -11.832  1.00 62.19    -0.326 N 
HETATM   11  CAE   D T1000      -0.867   1.275 -10.488  1.00 60.17     0.060 A 
HETATM   12  CAF   D T1000      -0.936   2.354  -9.551  1.00 59.69     0.017 A 
HETATM   13  CAD   D T1000      -0.574  -0.037 -10.004  1.00 59.51     0.017 A 
HETATM   14  CAA   D T1000      -0.720   2.128  -8.178  1.00 60.21     0.002 A 
HETATM   15  CAB   D T1000      -0.425   0.814  -7.697  1.00 60.52     0.000 A 
HETATM   16  CAC   D T1000      -0.349  -0.282  -8.611  1.00 59.56     0.002 A 
BRANCH  10  17
HETATM   17  CAY   D T1000      -1.321   2.323 -12.727  1.00 63.29     0.108 C 
BRANCH  17  18
HETATM   18  CBA   D T1000      -0.040   2.769 -13.421  1.00 66.90     0.048 C 
BRANCH  18  19
HETATM   19  CBB   D T1000      -0.005   4.294 -13.357  1.00 68.12     0.099 C 
BRANCH  19  20
HETATM   20  NBC   D T1000       0.383   4.828 -12.028  1.00 69.41    -0.365 N 
HETATM   21  CBD   D T1000       1.639   4.311 -11.515  1.00 71.44     0.121 C 
HETATM   22  CBE   D T1000      -0.366   5.798 -11.228  1.00 69.10     0.121 C 
ENDBRANCH  19  20
ENDBRANCH  18  19
ENDBRANCH  17  18
ENDBRANCH  10  17
ENDBRANCH   1   8
BRANCH   7  23
HETATM   23  CAK   D T1000      -2.636  -3.513 -12.261  1.00 59.62     0.025 A 
HETATM   24  CAM   D T1000      -3.758  -2.705 -11.885  1.00 60.49     0.019 A 
HETATM   25  CAP   D T1000      -3.974  -1.625 -10.960  1.00 60.58     0.002 A 
HETATM   26  CAN   D T1000      -4.805  -3.214 -12.692  1.00 61.04     0.081 A 
HETATM   27  CAQ   D T1000      -5.261  -1.049 -10.839  1.00 59.56     0.000 A 
HETATM   28  CAR   D T1000      -6.312  -1.556 -11.642  1.00 60.35     0.002 A 
HETATM   29  CAS   D T1000      -6.117  -2.628 -12.572  1.00 60.55     0.019 A 
HETATM   30  NAO   D T1000      -4.309  -4.233 -13.472  1.00 60.44    -0.244 NA
HETATM   31  CAL   D T1000      -2.994  -4.449 -13.239  1.00 59.16     0.099 A 
ENDBRANCH   7  23
TORSDOF 6
ENDMDL
MODEL 6
REMARK VINA RESULT:    -8.253      2.004      3.084
REMARK INTER + INTRA:         -12.658
REMARK INTER:                 -10.376
REMARK INTRA:                  -2.282
REMARK UNBOUND:                -1.510
REMARK  6 active torsions:
REMARK  status: ('A' for Active; 'I' for Inactive)
REMARK    1  A    between atoms: NBC_2  and  CBB_4 
REMARK    2  A    between atoms: CBB_4  and  CBA_5 
REMARK    3  A    between atoms: CBA_5  and  CAY_6 
REMARK    4  A    between atoms: CAY_6  and  NAH_7 
REMARK    5  A    between atoms: CAG_15  and  CAI_16 
REMARK    6  A    between atoms: CAJ_22  and  CAK_23 
ROOT
HETATM    1  CAI   D T1000      -4.317  -1.915 -12.203  1.00 59.57     0.064 A 
HETATM    2  CAT   D T1000      -5.567  -2.684 -12.426  1.00 60.04     0.282 A 
HETATM    3  OAZ   D T1000      -6.709  -2.145 -12.626  1.00 63.91    -0.265 OA
HETATM    4  NAU   D T1000      -5.424  -4.021 -12.409  1.00 59.30    -0.169 NA
HETATM    5  CAV   D T1000      -4.142  -4.244 -12.186  1.00 59.13     0.282 A 
HETATM    6  OAX   D T1000      -3.710  -5.438 -12.125  1.00 59.19    -0.265 OA
HETATM    7  CAJ   D T1000      -3.313  -3.005 -12.031  1.00 59.47     0.064 A 
ENDROOT
BRANCH   1   8
HETATM    8  CAG   D T1000      -4.200  -0.385 -12.182  1.00 60.05     0.023 A 
HETATM    9  CAW   D T1000      -3.801   0.300 -13.323  1.00 61.31     0.076 A 
HETATM   10  NAH   D T1000      -3.793   1.630 -12.991  1.00 62.19    -0.326 N 
HETATM   11  CAE   D T1000      -4.175   1.808 -11.703  1.00 60.17     0.060 A 
HETATM   12  CAF   D T1000      -4.338   2.965 -10.877  1.00 59.69     0.017 A 
HETATM   13  CAD   D T1000      -4.443   0.521 -11.144  1.00 59.51     0.017 A 
HETATM   14  CAA   D T1000      -4.756   2.839  -9.538  1.00 60.21     0.002 A 
HETATM   15  CAB   D T1000      -5.022   1.549  -8.980  1.00 60.52     0.000 A 
HETATM   16  CAC   D T1000      -4.866   0.376  -9.782  1.00 59.56     0.002 A 
BRANCH  10  17
HETATM   17  CAY   D T1000      -3.410   2.695 -13.927  1.00 63.29     0.108 C 
BRANCH  17  18
HETATM   18  CBA   D T1000      -1.900   2.676 -14.125  1.00 66.90     0.048 C 
BRANCH  18  19
HETATM   19  CBB   D T1000      -1.291   3.517 -13.005  1.00 68.12     0.099 C 
BRANCH  19  20
HETATM   20  NBC   D T1000      -0.513   2.726 -12.020  1.00 69.41    -0.365 N 
HETATM   21  CBD   D T1000       0.362   3.516 -11.172  1.00 71.44     0.121 C 
HETATM   22  CBE   D T1000      -0.558   1.275 -11.840  1.00 69.10     0.121 C 
ENDBRANCH  19  20
ENDBRANCH  18  19
ENDBRANCH  17  18
ENDBRANCH  10  17
ENDBRANCH   1   8
BRANCH   7  23
HETATM   23  CAK   D T1000      -1.809  -2.967 -11.779  1.00 59.62     0.025 A 
HETATM   24  CAM   D T1000      -1.075  -2.328 -10.727  1.00 60.49     0.019 A 
HETATM   25  CAP   D T1000      -1.420  -1.543  -9.572  1.00 60.58     0.002 A 
HETATM   26  CAN   D T1000       0.271  -2.631 -11.046  1.00 61.04     0.081 A 
HETATM   27  CAQ   D T1000      -0.398  -1.050  -8.726  1.00 59.56     0.000 A 
HETATM   28  CAR   D T1000       0.950  -1.347  -9.042  1.00 60.35     0.002 A 
HETATM   29  CAS   D T1000       1.314  -2.130 -10.184  1.00 60.55     0.019 A 
HETATM   30  NAO   D T1000       0.296  -3.390 -12.193  1.00 60.44    -0.244 NA
HETATM   31  CAL   D T1000      -0.949  -3.615 -12.673  1.00 59.16     0.099 A 
ENDBRANCH   7  23
TORSDOF 6
ENDMDL
MODEL 7
REMARK VINA RESULT:    -8.252      2.056      6.240
REMARK INTER + INTRA:         -12.657
REMARK INTER:                 -11.373
REMARK INTRA:                  -1.284
REMARK UNBOUND:                -1.510
REMARK  6 active torsions:
REMARK  status: ('A' for Active; 'I' for Inactive)
REMARK    1  A    between atoms: NBC_2  and  CBB_4 
REMARK    2  A    between atoms: CBB_4  and  CBA_5 
REMARK    3  A    between atoms: CBA_5  and  CAY_6 
REMARK    4  A    between atoms: CAY_6  and  NAH_7 
REMARK    5  A    between atoms: CAG_15  and  CAI_16 
REMARK    6  A    between atoms: CAJ_22  and  CAK_23 
ROOT
HETATM    1  CAI   D T1000      -3.286   0.299 -11.160  1.00 59.57     0.064 A 
HETATM    2  CAT   D T1000      -4.489   0.346 -10.291  1.00 60.04     0.282 A 
HETATM    3  OAZ   D T1000      -5.078  -0.691  -9.832  1.00 63.91    -0.265 OA
HETATM    4  NAU   D T1000      -4.935   1.582 -10.003  1.00 59.30    -0.169 NA
HETATM    5  CAV   D T1000      -4.115   2.414 -10.619  1.00 59.13     0.282 A 
HETATM    6  OAX   D T1000      -4.293   3.669 -10.515  1.00 59.19    -0.265 OA
HETATM    7  CAJ   D T1000      -3.020   1.748 -11.395  1.00 59.47     0.064 A 
ENDROOT
BRANCH   1   8
HETATM    8  CAG   D T1000      -2.573  -0.976 -11.630  1.00 60.05     0.023 A 
HETATM    9  CAW   D T1000      -1.190  -1.074 -11.543  1.00 61.31     0.076 A 
HETATM   10  NAH   D T1000      -0.860  -2.311 -12.034  1.00 62.19    -0.326 N 
HETATM   11  CAE   D T1000      -1.968  -2.991 -12.415  1.00 60.17     0.060 A 
HETATM   12  CAF   D T1000      -2.182  -4.291 -12.974  1.00 59.69     0.017 A 
HETATM   13  CAD   D T1000      -3.100  -2.154 -12.172  1.00 59.51     0.017 A 
HETATM   14  CAA   D T1000      -3.482  -4.738 -13.278  1.00 60.21     0.002 A 
HETATM   15  CAB   D T1000      -4.613  -3.897 -13.035  1.00 60.52     0.000 A 
HETATM   16  CAC   D T1000      -4.429  -2.593 -12.478  1.00 59.56     0.002 A 
BRANCH  10  17
HETATM   17  CAY   D T1000       0.522  -2.802 -12.128  1.00 63.29     0.108 C 
BRANCH  17  18
HETATM   18  CBA   D T1000       0.784  -3.792 -11.002  1.00 66.90     0.048 C 
BRANCH  18  19
HETATM   19  CBB   D T1000       0.415  -3.091  -9.696  1.00 68.12     0.099 C 
BRANCH  19  20
HETATM   20  NBC   D T1000       1.502  -2.242  -9.147  1.00 69.41    -0.365 N 
HETATM   21  CBD   D T1000       1.068  -0.936  -8.684  1.00 71.44     0.121 C 
HETATM   22  CBE   D T1000       2.916  -2.603  -9.035  1.00 69.10     0.121 C 
ENDBRANCH  19  20
ENDBRANCH  18  19
ENDBRANCH  17  18
ENDBRANCH  10  17
ENDBRANCH   1   8
BRANCH   7  23
HETATM   23  CAK   D T1000      -1.931   2.462 -12.189  1.00 59.62     0.025 A 
HETATM   24  CAM   D T1000      -0.676   2.995 -11.745  1.00 60.49     0.019 A 
HETATM   25  CAP   D T1000       0.017   3.061 -10.487  1.00 60.58     0.002 A 
HETATM   26  CAN   D T1000      -0.126   3.547 -12.928  1.00 61.04     0.081 A 
HETATM   27  CAQ   D T1000       1.280   3.693 -10.412  1.00 59.56     0.000 A 
HETATM   28  CAR   D T1000       1.835   4.249 -11.591  1.00 60.35     0.002 A 
HETATM   29  CAS   D T1000       1.162   4.191 -12.854  1.00 60.55     0.019 A 
HETATM   30  NAO   D T1000      -1.003   3.336 -13.966  1.00 60.44    -0.244 NA
HETATM   31  CAL   D T1000      -2.115   2.681 -13.560  1.00 59.16     0.099 A 
ENDBRANCH   7  23
TORSDOF 6
ENDMDL
MODEL 8
REMARK VINA RESULT:    -8.222      2.139      3.541
REMARK INTER + INTRA:         -12.617
REMARK INTER:                 -11.010
REMARK INTRA:                  -1.607
REMARK UNBOUND:                -1.510
REMARK  6 active torsions:
REMARK  status: ('A' for Active; 'I' for Inactive)
REMARK    1  A    between atoms: NBC_2  and  CBB_4 
REMARK    2  A    between atoms: CBB_4  and  CBA_5 
REMARK    3  A    between atoms: CBA_5  and  CAY_6 
REMARK    4  A    between atoms: CAY_6  and  NAH_7 
REMARK    5  A    between atoms: CAG_15  and  CAI_16 
REMARK    6  A    between atoms: CAJ_22  and  CAK_23 
ROOT
HETATM    1  CAI   D T1000      -3.321   0.780 -12.272  1.00 59.57     0.064 A 
HETATM    2  CAT   D T1000      -4.430   0.681 -13.254  1.00 60.04     0.282 A 
HETATM    3  OAZ   D T1000      -4.978   1.690 -13.815  1.00 63.91    -0.265 OA
HETATM    4  NAU   D T1000      -4.836  -0.571 -13.530  1.00 59.30    -0.169 NA
HETATM    5  CAV   D T1000      -4.075  -1.366 -12.799  1.00 59.13     0.282 A 
HETATM    6  OAX   D T1000      -4.234  -2.626 -12.864  1.00 59.19    -0.265 OA
HETATM    7  CAJ   D T1000      -3.069  -0.654 -11.948  1.00 59.47     0.064 A 
ENDROOT
BRANCH   1   8
HETATM    8  CAG   D T1000      -2.668   2.083 -11.790  1.00 60.05     0.023 A 
HETATM    9  CAW   D T1000      -3.193   2.765 -10.700  1.00 61.31     0.076 A 
HETATM   10  NAH   D T1000      -2.404   3.871 -10.521  1.00 62.19    -0.326 N 
HETATM   11  CAE   D T1000      -1.409   3.908 -11.439  1.00 60.17     0.060 A 
HETATM   12  CAF   D T1000      -0.334   4.820 -11.690  1.00 59.69     0.017 A 
HETATM   13  CAD   D T1000      -1.550   2.765 -12.285  1.00 59.51     0.017 A 
HETATM   14  CAA   D T1000       0.568   4.594 -12.747  1.00 60.21     0.002 A 
HETATM   15  CAB   D T1000       0.422   3.450 -13.593  1.00 60.52     0.000 A 
HETATM   16  CAC   D T1000      -0.642   2.524 -13.367  1.00 59.56     0.002 A 
BRANCH  10  17
HETATM   17  CAY   D T1000      -2.636   4.869  -9.468  1.00 63.29     0.108 C 
BRANCH  17  18
HETATM   18  CBA   D T1000      -2.632   4.180  -8.110  1.00 66.90     0.048 C 
BRANCH  18  19
HETATM   19  CBB   D T1000      -1.172   3.918  -7.745  1.00 68.12     0.099 C 
BRANCH  19  20
HETATM   20  NBC   D T1000      -0.371   5.155  -7.567  1.00 69.41    -0.365 N 
HETATM   21  CBD   D T1000      -0.868   6.051  -6.538  1.00 71.44     0.121 C 
HETATM   22  CBE   D T1000       0.834   5.526  -8.311  1.00 69.10     0.121 C 
ENDBRANCH  19  20
ENDBRANCH  18  19
ENDBRANCH  17  18
ENDBRANCH  10  17
ENDBRANCH   1   8
BRANCH   7  23
HETATM   23  CAK   D T1000      -2.059  -1.320 -11.019  1.00 59.62     0.025 A 
HETATM   24  CAM   D T1000      -1.161  -2.408 -11.273  1.00 60.49     0.019 A 
HETATM   25  CAP   D T1000      -0.859  -3.237 -12.409  1.00 60.58     0.002 A 
HETATM   26  CAN   D T1000      -0.506  -2.580 -10.030  1.00 61.04     0.081 A 
HETATM   27  CAQ   D T1000       0.114  -4.259 -12.294  1.00 59.56     0.000 A 
HETATM   28  CAR   D T1000       0.771  -4.438 -11.052  1.00 60.35     0.002 A 
HETATM   29  CAS   D T1000       0.487  -3.620  -9.911  1.00 60.55     0.019 A 
HETATM   30  NAO   D T1000      -0.994  -1.654  -9.138  1.00 60.44    -0.244 NA
HETATM   31  CAL   D T1000      -1.943  -0.868  -9.698  1.00 59.16     0.099 A 
ENDBRANCH   7  23
TORSDOF 6
ENDMDL
MODEL 9
REMARK VINA RESULT:    -8.174      1.632      2.930
REMARK INTER + INTRA:         -12.552
REMARK INTER:                 -10.886
REMARK INTRA:                  -1.666
REMARK UNBOUND:                -1.510
REMARK  6 active torsions:
REMARK  status: ('A' for Active; 'I' for Inactive)
REMARK    1  A    between atoms: NBC_2  and  CBB_4 
REMARK    2  A    between atoms: CBB_4  and  CBA_5 
REMARK    3  A    between atoms: CBA_5  and  CAY_6 
REMARK    4  A    between atoms: CAY_6  and  NAH_7 
REMARK    5  A    between atoms: CAG_15  and  CAI_16 
REMARK    6  A    between atoms: CAJ_22  and  CAK_23 
ROOT
HETATM    1  CAI   D T1000      -3.569   0.031 -11.134  1.00 59.57     0.064 A 
HETATM    2  CAT   D T1000      -4.976   0.449 -10.911  1.00 60.04     0.282 A 
HETATM    3  OAZ   D T1000      -5.330   1.646 -10.638  1.00 63.91    -0.265 OA
HETATM    4  NAU   D T1000      -5.886  -0.537 -11.018  1.00 59.30    -0.169 NA
HETATM    5  CAV   D T1000      -5.202  -1.629 -11.305  1.00 59.13     0.282 A 
HETATM    6  OAX   D T1000      -5.815  -2.730 -11.473  1.00 59.19    -0.265 OA
HETATM    7  CAJ   D T1000      -3.722  -1.427 -11.409  1.00 59.47     0.064 A 
ENDROOT
BRANCH   1   8
HETATM    8  CAG   D T1000      -2.344   0.954 -11.078  1.00 60.05     0.023 A 
HETATM    9  CAW   D T1000      -1.578   1.028  -9.921  1.00 61.31     0.076 A 
HETATM   10  NAH   D T1000      -0.573   1.923 -10.182  1.00 62.19    -0.326 N 
HETATM   11  CAE   D T1000      -0.670   2.404 -11.445  1.00 60.17     0.060 A 
HETATM   12  CAF   D T1000       0.106   3.336 -12.205  1.00 59.69     0.017 A 
HETATM   13  CAD   D T1000      -1.811   1.801 -12.057  1.00 59.51     0.017 A 
HETATM   14  CAA   D T1000      -0.247   3.652 -13.531  1.00 60.21     0.002 A 
HETATM   15  CAB   D T1000      -1.391   3.047 -14.140  1.00 60.52     0.000 A 
HETATM   16  CAC   D T1000      -2.185   2.114 -13.404  1.00 59.56     0.002 A 
BRANCH  10  17
HETATM   17  CAY   D T1000       0.453   2.296  -9.199  1.00 63.29     0.108 C 
BRANCH  17  18
HETATM   18  CBA   D T1000       0.274   3.758  -8.811  1.00 66.90     0.048 C 
BRANCH  18  19
HETATM   19  CBB   D T1000      -0.843   3.811  -7.771  1.00 68.12     0.099 C 
BRANCH  19  20
HETATM   20  NBC   D T1000      -2.160   4.207  -8.329  1.00 69.41    -0.365 N 
HETATM   21  CBD   D T1000      -2.096   5.243  -9.343  1.00 71.44     0.121 C 
HETATM   22  CBE   D T1000      -3.463   3.654  -7.958  1.00 69.10     0.121 C 
ENDBRANCH  19  20
ENDBRANCH  18  19
ENDBRANCH  17  18
ENDBRANCH  10  17
ENDBRANCH   1   8
BRANCH   7  23
HETATM   23  CAK   D T1000      -2.698  -2.508 -11.739  1.00 59.62     0.025 A 
HETATM   24  CAM   D T1000      -1.443  -2.801 -11.110  1.00 60.49     0.019 A 
HETATM   25  CAP   D T1000      -0.704  -2.256 -10.003  1.00 60.58     0.002 A 
HETATM   26  CAN   D T1000      -0.949  -3.889 -11.871  1.00 61.04     0.081 A 
HETATM   27  CAQ   D T1000       0.552  -2.808  -9.656  1.00 59.56     0.000 A 
HETATM   28  CAR   D T1000       1.052  -3.894 -10.415  1.00 60.35     0.002 A 
HETATM   29  CAS   D T1000       0.330  -4.454 -11.518  1.00 60.55     0.019 A 
HETATM   30  NAO   D T1000      -1.861  -4.192 -12.855  1.00 60.44    -0.244 NA
HETATM   31  CAL   D T1000      -2.938  -3.375 -12.811  1.00 59.16     0.099 A 
ENDBRANCH   7  23
TORSDOF 6
ENDMDL
