MODEL 1
REMARK VINA RESULT:    -8.728      0.000      0.000
REMARK INTER + INTRA:         -12.303
REMARK INTER:                 -11.789
REMARK INTRA:                  -0.514
REMARK UNBOUND:                -0.514
REMARK  6 active torsions:
REMARK  status: ('A' for Active; 'I' for Inactive)
REMARK    1  A    between atoms: NBC_2  and  CBB_4 
REMARK    2  A    between atoms: CBB_4  and  CBA_5 
REMARK    3  A    between atoms: CBA_5  and  CAY_6 
REMARK    4  A    between atoms: CAY_6  and  NAH_7 
REMARK    5  A    between atoms: CAG_15  and  CAI_16 
REMARK    6  A    between atoms: CAJ_22  and  CAK_23 
ROOT
HETATM    1  CAI   D T1000       8.280   1.973  -5.057  1.00 59.57     0.064 A 
HETATM    2  CAT   D T1000       8.814   0.603  -5.264  1.00 60.04     0.282 A 
HETATM    3  OAZ   D T1000       9.594   0.011  -4.442  1.00 63.91    -0.265 OA
HETATM    4  NAU   D T1000       8.412   0.002  -6.398  1.00 59.30    -0.169 NA
HETATM    5  CAV   D T1000       7.625   0.871  -7.007  1.00 59.13     0.282 A 
HETATM    6  OAX   D T1000       7.088   0.562  -8.117  1.00 59.19    -0.265 OA
HETATM    7  CAJ   D T1000       7.447   2.166  -6.278  1.00 59.47     0.064 A 
ENDROOT
BRANCH   1   8
HETATM    8  CAG   D T1000       8.574   2.873  -3.847  1.00 60.05     0.023 A 
HETATM    9  CAW   D T1000       8.241   2.449  -2.567  1.00 61.31     0.076 A 
HETATM   10  NAH   D T1000       8.620   3.456  -1.718  1.00 62.19    -0.326 N 
HETATM   11  CAE   D T1000       9.180   4.481  -2.403  1.00 60.17     0.060 A 
HETATM   12  CAF   D T1000       9.736   5.740  -2.011  1.00 59.69     0.017 A 
HETATM   13  CAD   D T1000       9.163   4.140  -3.791  1.00 59.51     0.017 A 
HETATM   14  CAA   D T1000      10.257   6.627  -2.974  1.00 60.21     0.002 A 
HETATM   15  CAB   D T1000      10.237   6.284  -4.362  1.00 60.52     0.000 A 
HETATM   16  CAC   D T1000       9.687   5.033  -4.782  1.00 59.56     0.002 A 
BRANCH  10  17
HETATM   17  CAY   D T1000       8.427   3.402  -0.262  1.00 63.29     0.108 C 
BRANCH  17  18
HETATM   18  CBA   D T1000       9.252   2.259   0.316  1.00 66.90     0.048 C 
BRANCH  18  19
HETATM   19  CBB   D T1000      10.596   2.848   0.740  1.00 68.12     0.099 C 
BRANCH  19  20
HETATM   20  NBC   D T1000      11.678   2.638  -0.254  1.00 69.41    -0.365 N 
HETATM   21  CBD   D T1000      11.592   1.384  -0.982  1.00 71.44     0.121 C 
HETATM   22  CBE   D T1000      12.778   3.556  -0.550  1.00 69.10     0.121 C 
ENDBRANCH  19  20
ENDBRANCH  18  19
ENDBRANCH  17  18
ENDBRANCH  10  17
ENDBRANCH   1   8
BRANCH   7  23
HETATM   23  CAK   D T1000       6.588   3.337  -6.743  1.00 59.62     0.025 A 
HETATM   24  CAM   D T1000       5.832   3.496  -7.952  1.00 60.49     0.019 A 
HETATM   25  CAP   D T1000       5.583   2.684  -9.112  1.00 60.58     0.002 A 
HETATM   26  CAN   D T1000       5.275   4.789  -7.814  1.00 61.04     0.081 A 
HETATM   27  CAQ   D T1000       4.764   3.181 -10.154  1.00 59.56     0.000 A 
HETATM   28  CAR   D T1000       4.206   4.475 -10.024  1.00 60.35     0.002 A 
HETATM   29  CAS   D T1000       4.439   5.297  -8.875  1.00 60.55     0.019 A 
HETATM   30  NAO   D T1000       5.681   5.323  -6.614  1.00 60.44    -0.244 NA
HETATM   31  CAL   D T1000       6.483   4.473  -5.932  1.00 59.16     0.099 A 
ENDBRANCH   7  23
TORSDOF 6
ENDMDL
MODEL 2
REMARK VINA RESULT:    -8.477      2.009      7.096
REMARK INTER + INTRA:         -11.964
REMARK INTER:                 -11.641
REMARK INTRA:                  -0.323
REMARK UNBOUND:                -0.514
REMARK  6 active torsions:
REMARK  status: ('A' for Active; 'I' for Inactive)
REMARK    1  A    between atoms: NBC_2  and  CBB_4 
REMARK    2  A    between atoms: CBB_4  and  CBA_5 
REMARK    3  A    between atoms: CBA_5  and  CAY_6 
REMARK    4  A    between atoms: CAY_6  and  NAH_7 
REMARK    5  A    between atoms: CAG_15  and  CAI_16 
REMARK    6  A    between atoms: CAJ_22  and  CAK_23 
ROOT
HETATM    1  CAI   D T1000       7.167   1.912  -6.719  1.00 59.57     0.064 A 
HETATM    2  CAT   D T1000       7.331   0.597  -7.389  1.00 60.04     0.282 A 
HETATM    3  OAZ   D T1000       6.994   0.369  -8.601  1.00 63.91    -0.265 OA
HETATM    4  NAU   D T1000       7.875  -0.366  -6.625  1.00 59.30    -0.169 NA
HETATM    5  CAV   D T1000       8.105   0.192  -5.450  1.00 59.13     0.282 A 
HETATM    6  OAX   D T1000       8.632  -0.496  -4.520  1.00 59.19    -0.265 OA
HETATM    7  CAJ   D T1000       7.707   1.632  -5.357  1.00 59.47     0.064 A 
ENDROOT
BRANCH   1   8
HETATM    8  CAG   D T1000       6.582   3.177  -7.364  1.00 60.05     0.023 A 
HETATM    9  CAW   D T1000       6.949   4.432  -6.894  1.00 61.31     0.076 A 
HETATM   10  NAH   D T1000       6.270   5.343  -7.659  1.00 62.19    -0.326 N 
HETATM   11  CAE   D T1000       5.505   4.720  -8.587  1.00 60.17     0.060 A 
HETATM   12  CAF   D T1000       4.625   5.189  -9.614  1.00 59.69     0.017 A 
HETATM   13  CAD   D T1000       5.678   3.311  -8.422  1.00 59.51     0.017 A 
HETATM   14  CAA   D T1000       3.944   4.280 -10.448  1.00 60.21     0.002 A 
HETATM   15  CAB   D T1000       4.119   2.871 -10.280  1.00 60.52     0.000 A 
HETATM   16  CAC   D T1000       4.991   2.374  -9.261  1.00 59.56     0.002 A 
BRANCH  10  17
HETATM   17  CAY   D T1000       6.374   6.797  -7.470  1.00 63.29     0.108 C 
BRANCH  17  18
HETATM   18  CBA   D T1000       5.152   7.297  -6.710  1.00 66.90     0.048 C 
BRANCH  18  19
HETATM   19  CBB   D T1000       5.035   8.794  -6.985  1.00 68.12     0.099 C 
BRANCH  19  20
HETATM   20  NBC   D T1000       5.895   9.629  -6.110  1.00 69.41    -0.365 N 
HETATM   21  CBD   D T1000       5.167  10.463  -5.170  1.00 71.44     0.121 C 
HETATM   22  CBE   D T1000       7.357   9.676  -6.115  1.00 69.10     0.121 C 
ENDBRANCH  19  20
ENDBRANCH  18  19
ENDBRANCH  17  18
ENDBRANCH  10  17
ENDBRANCH   1   8
BRANCH   7  23
HETATM   23  CAK   D T1000       7.868   2.522  -4.130  1.00 59.62     0.025 A 
HETATM   24  CAM   D T1000       8.647   3.714  -3.958  1.00 60.49     0.019 A 
HETATM   25  CAP   D T1000       9.510   4.498  -4.800  1.00 60.58     0.002 A 
HETATM   26  CAN   D T1000       8.407   4.063  -2.608  1.00 61.04     0.081 A 
HETATM   27  CAQ   D T1000      10.145   5.650  -4.277  1.00 59.56     0.000 A 
HETATM   28  CAR   D T1000       9.910   6.003  -2.926  1.00 60.35     0.002 A 
HETATM   29  CAS   D T1000       9.052   5.237  -2.073  1.00 60.55     0.019 A 
HETATM   30  NAO   D T1000       7.549   3.140  -2.056  1.00 60.44    -0.244 NA
HETATM   31  CAL   D T1000       7.199   2.185  -2.947  1.00 59.16     0.099 A 
ENDBRANCH   7  23
TORSDOF 6
ENDMDL
MODEL 3
REMARK VINA RESULT:    -8.336      2.954      9.039
REMARK INTER + INTRA:         -11.774
REMARK INTER:                 -10.573
REMARK INTRA:                  -1.201
REMARK UNBOUND:                -0.514
REMARK  6 active torsions:
REMARK  status: ('A' for Active; 'I' for Inactive)
REMARK    1  A    between atoms: NBC_2  and  CBB_4 
REMARK    2  A    between atoms: CBB_4  and  CBA_5 
REMARK    3  A    between atoms: CBA_5  and  CAY_6 
REMARK    4  A    between atoms: CAY_6  and  NAH_7 
REMARK    5  A    between atoms: CAG_15  and  CAI_16 
REMARK    6  A    between atoms: CAJ_22  and  CAK_23 
ROOT
HETATM    1  CAI   D T1000       9.115   4.176  -0.714  1.00 59.57     0.064 A 
HETATM    2  CAT   D T1000       9.140   5.638  -0.455  1.00 60.04     0.282 A 
HETATM    3  OAZ   D T1000       8.778   6.520  -1.307  1.00 63.91    -0.265 OA
HETATM    4  NAU   D T1000       9.576   5.991   0.768  1.00 59.30    -0.169 NA
HETATM    5  CAV   D T1000       9.862   4.861   1.389  1.00 59.13     0.282 A 
HETATM    6  OAX   D T1000      10.295   4.892   2.583  1.00 59.19    -0.265 OA
HETATM    7  CAJ   D T1000       9.622   3.627   0.576  1.00 59.47     0.064 A 
ENDROOT
BRANCH   1   8
HETATM    8  CAG   D T1000       8.656   3.508  -2.019  1.00 60.05     0.023 A 
HETATM    9  CAW   D T1000       7.467   3.902  -2.622  1.00 61.31     0.076 A 
HETATM   10  NAH   D T1000       7.335   3.133  -3.748  1.00 62.19    -0.326 N 
HETATM   11  CAE   D T1000       8.384   2.287  -3.882  1.00 60.17     0.060 A 
HETATM   12  CAF   D T1000       8.734   1.299  -4.857  1.00 59.69     0.017 A 
HETATM   13  CAD   D T1000       9.261   2.499  -2.774  1.00 59.51     0.017 A 
HETATM   14  CAA   D T1000       9.921   0.550  -4.728  1.00 60.21     0.002 A 
HETATM   15  CAB   D T1000      10.796   0.765  -3.617  1.00 60.52     0.000 A 
HETATM   16  CAC   D T1000      10.470   1.744  -2.627  1.00 59.56     0.002 A 
BRANCH  10  17
HETATM   17  CAY   D T1000       6.191   3.232  -4.666  1.00 63.29     0.108 C 
BRANCH  17  18
HETATM   18  CBA   D T1000       6.613   3.993  -5.917  1.00 66.90     0.048 C 
BRANCH  18  19
HETATM   19  CBB   D T1000       6.183   3.153  -7.117  1.00 68.12     0.099 C 
BRANCH  19  20
HETATM   20  NBC   D T1000       6.193   3.899  -8.400  1.00 69.41    -0.365 N 
HETATM   21  CBD   D T1000       7.066   5.060  -8.415  1.00 71.44     0.121 C 
HETATM   22  CBE   D T1000       5.428   3.571  -9.604  1.00 69.10     0.121 C 
ENDBRANCH  19  20
ENDBRANCH  18  19
ENDBRANCH  17  18
ENDBRANCH  10  17
ENDBRANCH   1   8
BRANCH   7  23
HETATM   23  CAK   D T1000       9.854   2.194   1.044  1.00 59.62     0.025 A 
HETATM   24  CAM   D T1000      10.936   1.645   1.810  1.00 60.49     0.019 A 
HETATM   25  CAP   D T1000      12.132   2.172   2.408  1.00 60.58     0.002 A 
HETATM   26  CAN   D T1000      10.599   0.273   1.902  1.00 61.04     0.081 A 
HETATM   27  CAQ   D T1000      13.007   1.308   3.108  1.00 59.56     0.000 A 
HETATM   28  CAR   D T1000      12.678  -0.066   3.202  1.00 60.35     0.002 A 
HETATM   29  CAS   D T1000      11.490  -0.609   2.615  1.00 60.55     0.019 A 
HETATM   30  NAO   D T1000       9.412   0.062   1.241  1.00 60.44    -0.244 NA
HETATM   31  CAL   D T1000       8.925   1.204   0.704  1.00 59.16     0.099 A 
ENDBRANCH   7  23
TORSDOF 6
ENDMDL
MODEL 4
REMARK VINA RESULT:    -8.225      2.792      7.728
REMARK INTER + INTRA:         -11.624
REMARK INTER:                 -10.348
REMARK INTRA:                  -1.276
REMARK UNBOUND:                -0.514
REMARK  6 active torsions:
REMARK  status: ('A' for Active; 'I' for Inactive)
REMARK    1  A    between atoms: NBC_2  and  CBB_4 
REMARK    2  A    between atoms: CBB_4  and  CBA_5 
REMARK    3  A    between atoms: CBA_5  and  CAY_6 
REMARK    4  A    between atoms: CAY_6  and  NAH_7 
REMARK    5  A    between atoms: CAG_15  and  CAI_16 
REMARK    6  A    between atoms: CAJ_22  and  CAK_23 
ROOT
HETATM    1  CAI   D T1000       9.186   3.388  -0.922  1.00 59.57     0.064 A 
HETATM    2  CAT   D T1000       9.436   2.529   0.263  1.00 60.04     0.282 A 
HETATM    3  OAZ   D T1000       9.210   1.271   0.292  1.00 63.91    -0.265 OA
HETATM    4  NAU   D T1000       9.934   3.170   1.336  1.00 59.30    -0.169 NA
HETATM    5  CAV   D T1000      10.049   4.437   0.977  1.00 59.13     0.282 A 
HETATM    6  OAX   D T1000      10.508   5.285   1.805  1.00 59.19    -0.265 OA
HETATM    7  CAJ   D T1000       9.613   4.728  -0.425  1.00 59.47     0.064 A 
ENDROOT
BRANCH   1   8
HETATM    8  CAG   D T1000       8.632   2.909  -2.272  1.00 60.05     0.023 A 
HETATM    9  CAW   D T1000       7.427   3.412  -2.748  1.00 61.31     0.076 A 
HETATM   10  NAH   D T1000       7.205   2.800  -3.953  1.00 62.19    -0.326 N 
HETATM   11  CAE   D T1000       8.214   1.949  -4.257  1.00 60.17     0.060 A 
HETATM   12  CAF   D T1000       8.473   1.086  -5.369  1.00 59.69     0.017 A 
HETATM   13  CAD   D T1000       9.157   1.989  -3.184  1.00 59.51     0.017 A 
HETATM   14  CAA   D T1000       9.637   0.293  -5.407  1.00 60.21     0.002 A 
HETATM   15  CAB   D T1000      10.579   0.335  -4.331  1.00 60.52     0.000 A 
HETATM   16  CAC   D T1000      10.344   1.186  -3.207  1.00 59.56     0.002 A 
BRANCH  10  17
HETATM   17  CAY   D T1000       6.017   3.052  -4.782  1.00 63.29     0.108 C 
BRANCH  17  18
HETATM   18  CBA   D T1000       6.386   3.996  -5.920  1.00 66.90     0.048 C 
BRANCH  18  19
HETATM   19  CBB   D T1000       6.231   3.211  -7.220  1.00 68.12     0.099 C 
BRANCH  19  20
HETATM   20  NBC   D T1000       6.289   4.058  -8.438  1.00 69.41    -0.365 N 
HETATM   21  CBD   D T1000       5.502   3.562  -9.553  1.00 71.44     0.121 C 
HETATM   22  CBE   D T1000       7.042   5.302  -8.598  1.00 69.10     0.121 C 
ENDBRANCH  19  20
ENDBRANCH  18  19
ENDBRANCH  17  18
ENDBRANCH  10  17
ENDBRANCH   1   8
BRANCH   7  23
HETATM   23  CAK   D T1000       9.648   6.094  -1.101  1.00 59.62     0.025 A 
HETATM   24  CAM   D T1000       9.239   7.375  -0.601  1.00 60.49     0.019 A 
HETATM   25  CAP   D T1000       8.690   7.857   0.637  1.00 60.58     0.002 A 
HETATM   26  CAN   D T1000       9.494   8.241  -1.690  1.00 61.04     0.081 A 
HETATM   27  CAQ   D T1000       8.389   9.232   0.783  1.00 59.56     0.000 A 
HETATM   28  CAR   D T1000       8.639  10.104  -0.304  1.00 60.35     0.002 A 
HETATM   29  CAS   D T1000       9.188   9.643  -1.543  1.00 60.55     0.019 A 
HETATM   30  NAO   D T1000      10.014   7.507  -2.730  1.00 60.44    -0.244 NA
HETATM   31  CAL   D T1000      10.123   6.196  -2.415  1.00 59.16     0.099 A 
ENDBRANCH   7  23
TORSDOF 6
ENDMDL
MODEL 5
REMARK VINA RESULT:    -8.174      1.993      7.704
REMARK INTER + INTRA:         -11.555
REMARK INTER:                 -10.393
REMARK INTRA:                  -1.162
REMARK UNBOUND:                -0.514
REMARK  6 active torsions:
REMARK  status: ('A' for Active; 'I' for Inactive)
REMARK    1  A    between atoms: NBC_2  and  CBB_4 
REMARK    2  A    between atoms: CBB_4  and  CBA_5 
REMARK    3  A    between atoms: CBA_5  and  CAY_6 
REMARK    4  A    between atoms: CAY_6  and  NAH_7 
REMARK    5  A    between atoms: CAG_15  and  CAI_16 
REMARK    6  A    between atoms: CAJ_22  and  CAK_23 
ROOT
HETATM    1  CAI   D T1000      10.074   2.106  -3.074  1.00 59.57     0.064 A 
HETATM    2  CAT   D T1000      11.011   1.002  -2.746  1.00 60.04     0.282 A 
HETATM    3  OAZ   D T1000      11.253   0.018  -3.525  1.00 63.91    -0.265 OA
HETATM    4  NAU   D T1000      11.612   1.104  -1.548  1.00 59.30    -0.169 NA
HETATM    5  CAV   D T1000      11.152   2.218  -1.007  1.00 59.13     0.282 A 
HETATM    6  OAX   D T1000      11.561   2.575   0.142  1.00 59.19    -0.265 OA
HETATM    7  CAJ   D T1000      10.169   2.961  -1.856  1.00 59.47     0.064 A 
ENDROOT
BRANCH   1   8
HETATM    8  CAG   D T1000       9.268   2.237  -4.375  1.00 60.05     0.023 A 
HETATM    9  CAW   D T1000       9.142   3.474  -4.995  1.00 61.31     0.076 A 
HETATM   10  NAH   D T1000       8.377   3.268  -6.113  1.00 62.19    -0.326 N 
HETATM   11  CAE   D T1000       8.029   1.964  -6.226  1.00 60.17     0.060 A 
HETATM   12  CAF   D T1000       7.260   1.230  -7.185  1.00 59.69     0.017 A 
HETATM   13  CAD   D T1000       8.585   1.264  -5.112  1.00 59.51     0.017 A 
HETATM   14  CAA   D T1000       7.058  -0.156  -7.035  1.00 60.21     0.002 A 
HETATM   15  CAB   D T1000       7.616  -0.853  -5.918  1.00 60.52     0.000 A 
HETATM   16  CAC   D T1000       8.386  -0.145  -4.944  1.00 59.56     0.002 A 
BRANCH  10  17
HETATM   17  CAY   D T1000       7.999   4.340  -7.044  1.00 63.29     0.108 C 
BRANCH  17  18
HETATM   18  CBA   D T1000       6.551   4.741  -6.792  1.00 66.90     0.048 C 
BRANCH  18  19
HETATM   19  CBB   D T1000       6.062   5.462  -8.045  1.00 68.12     0.099 C 
BRANCH  19  20
HETATM   20  NBC   D T1000       5.102   4.670  -8.853  1.00 69.41    -0.365 N 
HETATM   21  CBD   D T1000       3.750   5.202  -8.875  1.00 71.44     0.121 C 
HETATM   22  CBE   D T1000       5.395   3.448  -9.602  1.00 69.10     0.121 C 
ENDBRANCH  19  20
ENDBRANCH  18  19
ENDBRANCH  17  18
ENDBRANCH  10  17
ENDBRANCH   1   8
BRANCH   7  23
HETATM   23  CAK   D T1000       9.490   4.276  -1.488  1.00 59.62     0.025 A 
HETATM   24  CAM   D T1000      10.067   5.564  -1.232  1.00 60.49     0.019 A 
HETATM   25  CAP   D T1000      11.400   6.102  -1.229  1.00 60.58     0.002 A 
HETATM   26  CAN   D T1000       8.941   6.365  -0.924  1.00 61.04     0.081 A 
HETATM   27  CAQ   D T1000      11.608   7.465  -0.909  1.00 59.56     0.000 A 
HETATM   28  CAR   D T1000      10.486   8.270  -0.598  1.00 60.35     0.002 A 
HETATM   29  CAS   D T1000       9.150   7.754  -0.599  1.00 60.55     0.019 A 
HETATM   30  NAO   D T1000       7.808   5.589  -1.006  1.00 60.44    -0.244 NA
HETATM   31  CAL   D T1000       8.098   4.312  -1.344  1.00 59.16     0.099 A 
ENDBRANCH   7  23
TORSDOF 6
ENDMDL
MODEL 6
REMARK VINA RESULT:    -8.123      3.742      6.472
REMARK INTER + INTRA:         -11.485
REMARK INTER:                 -10.216
REMARK INTRA:                  -1.269
REMARK UNBOUND:                -0.514
REMARK  6 active torsions:
REMARK  status: ('A' for Active; 'I' for Inactive)
REMARK    1  A    between atoms: NBC_2  and  CBB_4 
REMARK    2  A    between atoms: CBB_4  and  CBA_5 
REMARK    3  A    between atoms: CBA_5  and  CAY_6 
REMARK    4  A    between atoms: CAY_6  and  NAH_7 
REMARK    5  A    between atoms: CAG_15  and  CAI_16 
REMARK    6  A    between atoms: CAJ_22  and  CAK_23 
ROOT
HETATM    1  CAI   D T1000       9.374   5.145  -0.627  1.00 59.57     0.064 A 
HETATM    2  CAT   D T1000       9.192   4.331   0.602  1.00 60.04     0.282 A 
HETATM    3  OAZ   D T1000       9.330   4.789   1.787  1.00 63.91    -0.265 OA
HETATM    4  NAU   D T1000       8.861   3.045   0.388  1.00 59.30    -0.169 NA
HETATM    5  CAV   D T1000       8.799   2.902  -0.924  1.00 59.13     0.282 A 
HETATM    6  OAX   D T1000       8.494   1.772  -1.420  1.00 59.19    -0.265 OA
HETATM    7  CAJ   D T1000       9.100   4.146  -1.700  1.00 59.47     0.064 A 
ENDROOT
BRANCH   1   8
HETATM    8  CAG   D T1000       9.743   6.635  -0.664  1.00 60.05     0.023 A 
HETATM    9  CAW   D T1000       8.748   7.602  -0.585  1.00 61.31     0.076 A 
HETATM   10  NAH   D T1000       9.384   8.814  -0.646  1.00 62.19    -0.326 N 
HETATM   11  CAE   D T1000      10.724   8.652  -0.749  1.00 60.17     0.060 A 
HETATM   12  CAF   D T1000      11.823   9.565  -0.838  1.00 59.69     0.017 A 
HETATM   13  CAD   D T1000      10.995   7.249  -0.769  1.00 59.51     0.017 A 
HETATM   14  CAA   D T1000      13.145   9.092  -0.942  1.00 60.21     0.002 A 
HETATM   15  CAB   D T1000      13.413   7.687  -0.963  1.00 60.52     0.000 A 
HETATM   16  CAC   D T1000      12.335   6.752  -0.877  1.00 59.56     0.002 A 
BRANCH  10  17
HETATM   17  CAY   D T1000       8.676  10.102  -0.606  1.00 63.29     0.108 C 
BRANCH  17  18
HETATM   18  CBA   D T1000       9.067  10.931  -1.823  1.00 66.90     0.048 C 
BRANCH  18  19
HETATM   19  CBB   D T1000       8.069  10.599  -2.929  1.00 68.12     0.099 C 
BRANCH  19  20
HETATM   20  NBC   D T1000       6.964  11.583  -3.049  1.00 69.41    -0.365 N 
HETATM   21  CBD   D T1000       6.200  11.482  -4.280  1.00 71.44     0.121 C 
HETATM   22  CBE   D T1000       6.594  12.601  -2.065  1.00 69.10     0.121 C 
ENDBRANCH  19  20
ENDBRANCH  18  19
ENDBRANCH  17  18
ENDBRANCH  10  17
ENDBRANCH   1   8
BRANCH   7  23
HETATM   23  CAK   D T1000       9.090   4.271  -3.219  1.00 59.62     0.025 A 
HETATM   24  CAM   D T1000       8.048   3.967  -4.157  1.00 60.49     0.019 A 
HETATM   25  CAP   D T1000       6.700   3.474  -4.058  1.00 60.58     0.002 A 
HETATM   26  CAN   D T1000       8.641   4.268  -5.406  1.00 61.04     0.081 A 
HETATM   27  CAQ   D T1000       5.937   3.277  -5.234  1.00 59.56     0.000 A 
HETATM   28  CAR   D T1000       6.526   3.574  -6.487  1.00 60.35     0.002 A 
HETATM   29  CAS   D T1000       7.864   4.068  -6.605  1.00 60.55     0.019 A 
HETATM   30  NAO   D T1000       9.924   4.715  -5.192  1.00 60.44    -0.244 NA
HETATM   31  CAL   D T1000      10.238   4.732  -3.876  1.00 59.16     0.099 A 
ENDBRANCH   7  23
TORSDOF 6
ENDMDL
MODEL 7
REMARK VINA RESULT:    -7.713      3.184      5.289
REMARK INTER + INTRA:         -10.932
REMARK INTER:                  -9.769
REMARK INTRA:                  -1.163
REMARK UNBOUND:                -0.514
REMARK  6 active torsions:
REMARK  status: ('A' for Active; 'I' for Inactive)
REMARK    1  A    between atoms: NBC_2  and  CBB_4 
REMARK    2  A    between atoms: CBB_4  and  CBA_5 
REMARK    3  A    between atoms: CBA_5  and  CAY_6 
REMARK    4  A    between atoms: CAY_6  and  NAH_7 
REMARK    5  A    between atoms: CAG_15  and  CAI_16 
REMARK    6  A    between atoms: CAJ_22  and  CAK_23 
ROOT
HETATM    1  CAI   D T1000      10.012   3.456  -2.132  1.00 59.57     0.064 A 
HETATM    2  CAT   D T1000      11.064   2.456  -1.816  1.00 60.04     0.282 A 
HETATM    3  OAZ   D T1000      11.980   2.638  -0.943  1.00 63.91    -0.265 OA
HETATM    4  NAU   D T1000      10.993   1.313  -2.521  1.00 59.30    -0.169 NA
HETATM    5  CAV   D T1000       9.948   1.447  -3.319  1.00 59.13     0.282 A 
HETATM    6  OAX   D T1000       9.633   0.500  -4.106  1.00 59.19    -0.265 OA
HETATM    7  CAJ   D T1000       9.228   2.752  -3.187  1.00 59.47     0.064 A 
ENDROOT
BRANCH   1   8
HETATM    8  CAG   D T1000       9.861   4.833  -1.470  1.00 60.05     0.023 A 
HETATM    9  CAW   D T1000       9.764   5.976  -2.255  1.00 61.31     0.076 A 
HETATM   10  NAH   D T1000       9.642   7.029  -1.386  1.00 62.19    -0.326 N 
HETATM   11  CAE   D T1000       9.649   6.600  -0.102  1.00 60.17     0.060 A 
HETATM   12  CAF   D T1000       9.548   7.267   1.160  1.00 59.69     0.017 A 
HETATM   13  CAD   D T1000       9.795   5.178  -0.116  1.00 59.51     0.017 A 
HETATM   14  CAA   D T1000       9.590   6.538   2.365  1.00 60.21     0.002 A 
HETATM   15  CAB   D T1000       9.737   5.115   2.347  1.00 60.52     0.000 A 
HETATM   16  CAC   D T1000       9.841   4.423   1.100  1.00 59.56     0.002 A 
BRANCH  10  17
HETATM   17  CAY   D T1000       9.526   8.428  -1.822  1.00 63.29     0.108 C 
BRANCH  17  18
HETATM   18  CBA   D T1000      10.613   9.258  -1.150  1.00 66.90     0.048 C 
BRANCH  18  19
HETATM   19  CBB   D T1000      10.259  10.726  -1.378  1.00 68.12     0.099 C 
BRANCH  19  20
HETATM   20  NBC   D T1000       9.575  11.360  -0.224  1.00 69.41    -0.365 N 
HETATM   21  CBD   D T1000       8.595  12.369  -0.586  1.00 71.44     0.121 C 
HETATM   22  CBE   D T1000       9.796  11.061   1.191  1.00 69.10     0.121 C 
ENDBRANCH  19  20
ENDBRANCH  18  19
ENDBRANCH  17  18
ENDBRANCH  10  17
ENDBRANCH   1   8
BRANCH   7  23
HETATM   23  CAK   D T1000       7.989   3.168  -3.974  1.00 59.62     0.025 A 
HETATM   24  CAM   D T1000       7.889   3.842  -5.236  1.00 60.49     0.019 A 
HETATM   25  CAP   D T1000       8.830   4.348  -6.198  1.00 60.58     0.002 A 
HETATM   26  CAN   D T1000       6.492   3.963  -5.425  1.00 61.04     0.081 A 
HETATM   27  CAQ   D T1000       8.360   4.989  -7.370  1.00 59.56     0.000 A 
HETATM   28  CAR   D T1000       6.963   5.115  -7.564  1.00 60.35     0.002 A 
HETATM   29  CAS   D T1000       6.011   4.615  -6.619  1.00 60.55     0.019 A 
HETATM   30  NAO   D T1000       5.847   3.394  -4.352  1.00 60.44    -0.244 NA
HETATM   31  CAL   D T1000       6.720   2.899  -3.445  1.00 59.16     0.099 A 
ENDBRANCH   7  23
TORSDOF 6
ENDMDL
MODEL 8
REMARK VINA RESULT:    -7.658      2.799      8.282
REMARK INTER + INTRA:         -10.858
REMARK INTER:                  -9.068
REMARK INTRA:                  -1.789
REMARK UNBOUND:                -0.514
REMARK  6 active torsions:
REMARK  status: ('A' for Active; 'I' for Inactive)
REMARK    1  A    between atoms: NBC_2  and  CBB_4 
REMARK    2  A    between atoms: CBB_4  and  CBA_5 
REMARK    3  A    between atoms: CBA_5  and  CAY_6 
REMARK    4  A    between atoms: CAY_6  and  NAH_7 
REMARK    5  A    between atoms: CAG_15  and  CAI_16 
REMARK    6  A    between atoms: CAJ_22  and  CAK_23 
ROOT
HETATM    1  CAI   D T1000      10.726   2.421  -0.306  1.00 59.57     0.064 A 
HETATM    2  CAT   D T1000      10.062   1.460   0.611  1.00 60.04     0.282 A 
HETATM    3  OAZ   D T1000       9.185   0.609   0.237  1.00 63.91    -0.265 OA
HETATM    4  NAU   D T1000      10.452   1.537   1.896  1.00 59.30    -0.169 NA
HETATM    5  CAV   D T1000      11.356   2.500   1.941  1.00 59.13     0.282 A 
HETATM    6  OAX   D T1000      11.910   2.791   3.047  1.00 59.19    -0.265 OA
HETATM    7  CAJ   D T1000      11.634   3.154   0.623  1.00 59.47     0.064 A 
ENDROOT
BRANCH   1   8
HETATM    8  CAG   D T1000      10.471   2.537  -1.816  1.00 60.05     0.023 A 
HETATM    9  CAW   D T1000      10.408   1.393  -2.602  1.00 61.31     0.076 A 
HETATM   10  NAH   D T1000      10.174   1.819  -3.883  1.00 62.19    -0.326 N 
HETATM   11  CAE   D T1000      10.079   3.169  -3.934  1.00 60.17     0.060 A 
HETATM   12  CAF   D T1000       9.844   4.101  -4.995  1.00 59.69     0.017 A 
HETATM   13  CAD   D T1000      10.273   3.671  -2.610  1.00 59.51     0.017 A 
HETATM   14  CAA   D T1000       9.802   5.486  -4.739  1.00 60.21     0.002 A 
HETATM   15  CAB   D T1000       9.996   5.985  -3.413  1.00 60.52     0.000 A 
HETATM   16  CAC   D T1000      10.235   5.077  -2.335  1.00 59.56     0.002 A 
BRANCH  10  17
HETATM   17  CAY   D T1000      10.052   0.908  -5.029  1.00 63.29     0.108 C 
BRANCH  17  18
HETATM   18  CBA   D T1000       8.707   0.195  -4.967  1.00 66.90     0.048 C 
BRANCH  18  19
HETATM   19  CBB   D T1000       8.069   0.321  -6.349  1.00 68.12     0.099 C 
BRANCH  19  20
HETATM   20  NBC   D T1000       7.089   1.430  -6.454  1.00 69.41    -0.365 N 
HETATM   21  CBD   D T1000       6.571   1.650  -7.793  1.00 71.44     0.121 C 
HETATM   22  CBE   D T1000       6.620   2.284  -5.363  1.00 69.10     0.121 C 
ENDBRANCH  19  20
ENDBRANCH  18  19
ENDBRANCH  17  18
ENDBRANCH  10  17
ENDBRANCH   1   8
BRANCH   7  23
HETATM   23  CAK   D T1000      12.633   4.280   0.382  1.00 59.62     0.025 A 
HETATM   24  CAM   D T1000      12.457   5.700   0.492  1.00 60.49     0.019 A 
HETATM   25  CAP   D T1000      11.369   6.567   0.854  1.00 60.58     0.002 A 
HETATM   26  CAN   D T1000      13.726   6.209   0.125  1.00 61.04     0.081 A 
HETATM   27  CAQ   D T1000      11.556   7.970   0.844  1.00 59.56     0.000 A 
HETATM   28  CAR   D T1000      12.821   8.486   0.475  1.00 60.35     0.002 A 
HETATM   29  CAS   D T1000      13.918   7.639   0.115  1.00 60.55     0.019 A 
HETATM   30  NAO   D T1000      14.560   5.156  -0.166  1.00 60.44    -0.244 NA
HETATM   31  CAL   D T1000      13.935   3.965  -0.024  1.00 59.16     0.099 A 
ENDBRANCH   7  23
TORSDOF 6
ENDMDL
MODEL 9
REMARK VINA RESULT:    -7.598      2.947      5.167
REMARK INTER + INTRA:         -10.776
REMARK INTER:                  -9.643
REMARK INTRA:                  -1.133
REMARK UNBOUND:                -0.514
REMARK  6 active torsions:
REMARK  status: ('A' for Active; 'I' for Inactive)
REMARK    1  A    between atoms: NBC_2  and  CBB_4 
REMARK    2  A    between atoms: CBB_4  and  CBA_5 
REMARK    3  A    between atoms: CBA_5  and  CAY_6 
REMARK    4  A    between atoms: CAY_6  and  NAH_7 
REMARK    5  A    between atoms: CAG_15  and  CAI_16 
REMARK    6  A    between atoms: CAJ_22  and  CAK_23 
ROOT
HETATM    1  CAI   D T1000      10.696   3.027  -2.190  1.00 59.57     0.064 A 
HETATM    2  CAT   D T1000      11.200   1.769  -1.581  1.00 60.04     0.282 A 
HETATM    3  OAZ   D T1000      11.747   1.705  -0.428  1.00 63.91    -0.265 OA
HETATM    4  NAU   D T1000      11.039   0.668  -2.336  1.00 59.30    -0.169 NA
HETATM    5  CAV   D T1000      10.449   1.075  -3.447  1.00 59.13     0.282 A 
HETATM    6  OAX   D T1000      10.164   0.231  -4.353  1.00 59.19    -0.265 OA
HETATM    7  CAJ   D T1000      10.170   2.545  -3.499  1.00 59.47     0.064 A 
ENDROOT
BRANCH   1   8
HETATM    8  CAG   D T1000      10.749   4.417  -1.540  1.00 60.05     0.023 A 
HETATM    9  CAW   D T1000       9.625   5.234  -1.550  1.00 61.31     0.076 A 
HETATM   10  NAH   D T1000       9.984   6.389  -0.905  1.00 62.19    -0.326 N 
HETATM   11  CAE   D T1000      11.270   6.329  -0.486  1.00 60.17     0.060 A 
HETATM   12  CAF   D T1000      12.118   7.239   0.223  1.00 59.69     0.017 A 
HETATM   13  CAD   D T1000      11.802   5.065  -0.885  1.00 59.51     0.017 A 
HETATM   14  CAA   D T1000      13.450   6.894   0.524  1.00 60.21     0.002 A 
HETATM   15  CAB   D T1000      13.980   5.627   0.123  1.00 60.52     0.000 A 
HETATM   16  CAC   D T1000      13.156   4.700  -0.589  1.00 59.56     0.002 A 
BRANCH  10  17
HETATM   17  CAY   D T1000       9.072   7.525  -0.714  1.00 63.29     0.108 C 
BRANCH  17  18
HETATM   18  CBA   D T1000       9.211   8.488  -1.887  1.00 66.90     0.048 C 
BRANCH  18  19
HETATM   19  CBB   D T1000       9.797   9.785  -1.334  1.00 68.12     0.099 C 
BRANCH  19  20
HETATM   20  NBC   D T1000       8.901  10.958  -1.490  1.00 69.41    -0.365 N 
HETATM   21  CBD   D T1000       8.913  11.878  -0.366  1.00 71.44     0.121 C 
HETATM   22  CBE   D T1000       8.045  11.253  -2.639  1.00 69.10     0.121 C 
ENDBRANCH  19  20
ENDBRANCH  18  19
ENDBRANCH  17  18
ENDBRANCH  10  17
ENDBRANCH   1   8
BRANCH   7  23
HETATM   23  CAK   D T1000       9.493   3.281  -4.650  1.00 59.62     0.025 A 
HETATM   24  CAM   D T1000       8.332   2.920  -5.412  1.00 60.49     0.019 A 
HETATM   25  CAP   D T1000       7.405   1.820  -5.397  1.00 60.58     0.002 A 
HETATM   26  CAN   D T1000       8.215   3.981  -6.341  1.00 61.04     0.081 A 
HETATM   27  CAQ   D T1000       6.345   1.783  -6.334  1.00 59.56     0.000 A 
HETATM   28  CAR   D T1000       6.224   2.841  -7.268  1.00 60.35     0.002 A 
HETATM   29  CAS   D T1000       7.134   3.945  -7.296  1.00 60.55     0.019 A 
HETATM   30  NAO   D T1000       9.231   4.880  -6.119  1.00 60.44    -0.244 NA
HETATM   31  CAL   D T1000      10.032   4.492  -5.100  1.00 59.16     0.099 A 
ENDBRANCH   7  23
TORSDOF 6
ENDMDL
