MODEL 1
REMARK VINA RESULT:    -9.559      0.000      0.000
REMARK INTER + INTRA:         -14.681
REMARK INTER:                 -12.912
REMARK INTRA:                  -1.769
REMARK UNBOUND:                -1.769
REMARK  6 active torsions:
REMARK  status: ('A' for Active; 'I' for Inactive)
REMARK    1  A    between atoms: NBC_2  and  CBB_4 
REMARK    2  A    between atoms: CBB_4  and  CBA_5 
REMARK    3  A    between atoms: CBA_5  and  CAY_6 
REMARK    4  A    between atoms: CAY_6  and  NAH_7 
REMARK    5  A    between atoms: CAG_15  and  CAI_16 
REMARK    6  A    between atoms: CAJ_22  and  CAK_23 
ROOT
HETATM    1  CAI   D T1000      -3.712   0.337   9.845  1.00 59.57     0.064 A 
HETATM    2  CAT   D T1000      -4.996   1.045   9.610  1.00 60.04     0.282 A 
HETATM    3  OAZ   D T1000      -6.144   0.524   9.818  1.00 63.91    -0.265 OA
HETATM    4  NAU   D T1000      -4.876   2.305   9.157  1.00 59.30    -0.169 NA
HETATM    5  CAV   D T1000      -3.579   2.531   9.056  1.00 59.13     0.282 A 
HETATM    6  OAX   D T1000      -3.166   3.663   8.652  1.00 59.19    -0.265 OA
HETATM    7  CAJ   D T1000      -2.714   1.375   9.455  1.00 59.47     0.064 A 
ENDROOT
BRANCH   1   8
HETATM    8  CAG   D T1000      -3.565  -1.099  10.366  1.00 60.05     0.023 A 
HETATM    9  CAW   D T1000      -2.601  -1.399  11.320  1.00 61.31     0.076 A 
HETATM   10  NAH   D T1000      -2.717  -2.741  11.575  1.00 62.19    -0.326 N 
HETATM   11  CAE   D T1000      -3.710  -3.289  10.835  1.00 60.17     0.060 A 
HETATM   12  CAF   D T1000      -4.239  -4.615  10.726  1.00 59.69     0.017 A 
HETATM   13  CAD   D T1000      -4.282  -2.254  10.033  1.00 59.51     0.017 A 
HETATM   14  CAA   D T1000      -5.303  -4.894   9.845  1.00 60.21     0.002 A 
HETATM   15  CAB   D T1000      -5.871  -3.855   9.042  1.00 60.52     0.000 A 
HETATM   16  CAC   D T1000      -5.361  -2.522   9.131  1.00 59.56     0.002 A 
BRANCH  10  17
HETATM   17  CAY   D T1000      -1.859  -3.461  12.527  1.00 63.29     0.108 C 
BRANCH  17  18
HETATM   18  CBA   D T1000      -0.858  -4.314  11.759  1.00 66.90     0.048 C 
BRANCH  18  19
HETATM   19  CBB   D T1000       0.533  -3.773  12.083  1.00 68.12     0.099 C 
BRANCH  19  20
HETATM   20  NBC   D T1000       0.837  -2.477  11.427  1.00 69.41    -0.365 N 
HETATM   21  CBD   D T1000       0.821  -2.521   9.976  1.00 71.44     0.121 C 
HETATM   22  CBE   D T1000       1.131  -1.210  12.096  1.00 69.10     0.121 C 
ENDBRANCH  19  20
ENDBRANCH  18  19
ENDBRANCH  17  18
ENDBRANCH  10  17
ENDBRANCH   1   8
BRANCH   7  23
HETATM   23  CAK   D T1000      -1.189   1.362   9.448  1.00 59.62     0.025 A 
HETATM   24  CAM   D T1000      -0.265   1.975  10.357  1.00 60.49     0.019 A 
HETATM   25  CAP   D T1000      -0.382   2.771  11.549  1.00 60.58     0.002 A 
HETATM   26  CAN   D T1000       0.996   1.627   9.815  1.00 61.04     0.081 A 
HETATM   27  CAQ   D T1000       0.785   3.228  12.206  1.00 59.56     0.000 A 
HETATM   28  CAR   D T1000       2.049   2.886  11.668  1.00 60.35     0.002 A 
HETATM   29  CAS   D T1000       2.186   2.091  10.484  1.00 60.55     0.019 A 
HETATM   30  NAO   D T1000       0.799   0.868   8.685  1.00 60.44    -0.244 NA
HETATM   31  CAL   D T1000      -0.516   0.685   8.425  1.00 59.16     0.099 A 
ENDBRANCH   7  23
TORSDOF 6
ENDMDL
MODEL 2
REMARK VINA RESULT:    -9.497      1.598      2.515
REMARK INTER + INTRA:         -14.597
REMARK INTER:                 -13.266
REMARK INTRA:                  -1.330
REMARK UNBOUND:                -1.769
REMARK  6 active torsions:
REMARK  status: ('A' for Active; 'I' for Inactive)
REMARK    1  A    between atoms: NBC_2  and  CBB_4 
REMARK    2  A    between atoms: CBB_4  and  CBA_5 
REMARK    3  A    between atoms: CBA_5  and  CAY_6 
REMARK    4  A    between atoms: CAY_6  and  NAH_7 
REMARK    5  A    between atoms: CAG_15  and  CAI_16 
REMARK    6  A    between atoms: CAJ_22  and  CAK_23 
ROOT
HETATM    1  CAI   D T1000      -3.403   0.183   9.997  1.00 59.57     0.064 A 
HETATM    2  CAT   D T1000      -4.540   1.129   9.855  1.00 60.04     0.282 A 
HETATM    3  OAZ   D T1000      -5.759   0.813  10.071  1.00 63.91    -0.265 OA
HETATM    4  NAU   D T1000      -4.200   2.373   9.478  1.00 59.30    -0.169 NA
HETATM    5  CAV   D T1000      -2.887   2.365   9.344  1.00 59.13     0.282 A 
HETATM    6  OAX   D T1000      -2.281   3.428   8.998  1.00 59.19    -0.265 OA
HETATM    7  CAJ   D T1000      -2.241   1.046   9.638  1.00 59.47     0.064 A 
ENDROOT
BRANCH   1   8
HETATM    8  CAG   D T1000      -3.512  -1.288  10.421  1.00 60.05     0.023 A 
HETATM    9  CAW   D T1000      -2.642  -1.806  11.371  1.00 61.31     0.076 A 
HETATM   10  NAH   D T1000      -2.986  -3.124  11.530  1.00 62.19    -0.326 N 
HETATM   11  CAE   D T1000      -4.031  -3.449  10.733  1.00 60.17     0.060 A 
HETATM   12  CAF   D T1000      -4.767  -4.659  10.521  1.00 59.69     0.017 A 
HETATM   13  CAD   D T1000      -4.398  -2.284   9.993  1.00 59.51     0.017 A 
HETATM   14  CAA   D T1000      -5.833  -4.699   9.601  1.00 60.21     0.002 A 
HETATM   15  CAB   D T1000      -6.196  -3.530   8.860  1.00 60.52     0.000 A 
HETATM   16  CAC   D T1000      -5.477  -2.309   9.051  1.00 59.56     0.002 A 
BRANCH  10  17
HETATM   17  CAY   D T1000      -2.289  -4.037  12.447  1.00 63.29     0.108 C 
BRANCH  17  18
HETATM   18  CBA   D T1000      -1.498  -5.057  11.640  1.00 66.90     0.048 C 
BRANCH  18  19
HETATM   19  CBB   D T1000      -1.759  -6.425  12.269  1.00 68.12     0.099 C 
BRANCH  19  20
HETATM   20  NBC   D T1000      -2.653  -7.292  11.461  1.00 69.41    -0.365 N 
HETATM   21  CBD   D T1000      -3.597  -8.072  12.240  1.00 71.44     0.121 C 
HETATM   22  CBE   D T1000      -2.663  -7.413  10.003  1.00 69.10     0.121 C 
ENDBRANCH  19  20
ENDBRANCH  18  19
ENDBRANCH  17  18
ENDBRANCH  10  17
ENDBRANCH   1   8
BRANCH   7  23
HETATM   23  CAK   D T1000      -0.745   0.754   9.574  1.00 59.62     0.025 A 
HETATM   24  CAM   D T1000       0.206   0.617  10.638  1.00 60.49     0.019 A 
HETATM   25  CAP   D T1000       0.147   0.676  12.073  1.00 60.58     0.002 A 
HETATM   26  CAN   D T1000       1.422   0.376   9.952  1.00 61.04     0.081 A 
HETATM   27  CAQ   D T1000       1.327   0.495  12.833  1.00 59.56     0.000 A 
HETATM   28  CAR   D T1000       2.546   0.257  12.154  1.00 60.35     0.002 A 
HETATM   29  CAS   D T1000       2.624   0.190  10.725  1.00 60.55     0.019 A 
HETATM   30  NAO   D T1000       1.174   0.373   8.599  1.00 60.44    -0.244 NA
HETATM   31  CAL   D T1000      -0.131   0.602   8.326  1.00 59.16     0.099 A 
ENDBRANCH   7  23
TORSDOF 6
ENDMDL
MODEL 3
REMARK VINA RESULT:    -9.330      1.663      2.100
REMARK INTER + INTRA:         -14.371
REMARK INTER:                 -12.321
REMARK INTRA:                  -2.050
REMARK UNBOUND:                -1.769
REMARK  6 active torsions:
REMARK  status: ('A' for Active; 'I' for Inactive)
REMARK    1  A    between atoms: NBC_2  and  CBB_4 
REMARK    2  A    between atoms: CBB_4  and  CBA_5 
REMARK    3  A    between atoms: CBA_5  and  CAY_6 
REMARK    4  A    between atoms: CAY_6  and  NAH_7 
REMARK    5  A    between atoms: CAG_15  and  CAI_16 
REMARK    6  A    between atoms: CAJ_22  and  CAK_23 
ROOT
HETATM    1  CAI   D T1000      -2.807  -0.151  10.559  1.00 59.57     0.064 A 
HETATM    2  CAT   D T1000      -3.773   0.964  10.733  1.00 60.04     0.282 A 
HETATM    3  OAZ   D T1000      -5.008   0.798  11.014  1.00 63.91    -0.265 OA
HETATM    4  NAU   D T1000      -3.255   2.194  10.575  1.00 59.30    -0.169 NA
HETATM    5  CAV   D T1000      -1.976   2.016  10.299  1.00 59.13     0.282 A 
HETATM    6  OAX   D T1000      -1.226   3.023  10.105  1.00 59.19    -0.265 OA
HETATM    7  CAJ   D T1000      -1.545   0.582  10.252  1.00 59.47     0.064 A 
ENDROOT
BRANCH   1   8
HETATM    8  CAG   D T1000      -3.134  -1.645  10.692  1.00 60.05     0.023 A 
HETATM    9  CAW   D T1000      -2.336  -2.465  11.480  1.00 61.31     0.076 A 
HETATM   10  NAH   D T1000      -2.876  -3.723  11.396  1.00 62.19    -0.326 N 
HETATM   11  CAE   D T1000      -3.974  -3.725  10.603  1.00 60.17     0.060 A 
HETATM   12  CAF   D T1000      -4.891  -4.745  10.195  1.00 59.69     0.017 A 
HETATM   13  CAD   D T1000      -4.170  -2.393  10.122  1.00 59.51     0.017 A 
HETATM   14  CAA   D T1000      -5.968  -4.442   9.338  1.00 60.21     0.002 A 
HETATM   15  CAB   D T1000      -6.160  -3.108   8.858  1.00 60.52     0.000 A 
HETATM   16  CAC   D T1000      -5.258  -2.070   9.248  1.00 59.56     0.002 A 
BRANCH  10  17
HETATM   17  CAY   D T1000      -2.312  -4.893  12.082  1.00 63.29     0.108 C 
BRANCH  17  18
HETATM   18  CBA   D T1000      -1.536  -5.739  11.081  1.00 66.90     0.048 C 
BRANCH  18  19
HETATM   19  CBB   D T1000      -0.076  -5.739  11.532  1.00 68.12     0.099 C 
BRANCH  19  20
HETATM   20  NBC   D T1000       0.688  -4.552  11.076  1.00 69.41    -0.365 N 
HETATM   21  CBD   D T1000       1.394  -3.850  12.133  1.00 71.44     0.121 C 
HETATM   22  CBE   D T1000       0.790  -4.055   9.703  1.00 69.10     0.121 C 
ENDBRANCH  19  20
ENDBRANCH  18  19
ENDBRANCH  17  18
ENDBRANCH  10  17
ENDBRANCH   1   8
BRANCH   7  23
HETATM   23  CAK   D T1000      -0.130   0.087   9.968  1.00 59.62     0.025 A 
HETATM   24  CAM   D T1000       0.959  -0.136  10.873  1.00 60.49     0.019 A 
HETATM   25  CAP   D T1000       1.148  -0.011  12.293  1.00 60.58     0.002 A 
HETATM   26  CAN   D T1000       2.003  -0.567  10.018  1.00 61.04     0.081 A 
HETATM   27  CAQ   D T1000       2.405  -0.321  12.864  1.00 59.56     0.000 A 
HETATM   28  CAR   D T1000       3.454  -0.750  12.015  1.00 60.35     0.002 A 
HETATM   29  CAS   D T1000       3.284  -0.884  10.599  1.00 60.55     0.019 A 
HETATM   30  NAO   D T1000       1.535  -0.590   8.725  1.00 60.44    -0.244 NA
HETATM   31  CAL   D T1000       0.243  -0.197   8.650  1.00 59.16     0.099 A 
ENDBRANCH   7  23
TORSDOF 6
ENDMDL
MODEL 4
REMARK VINA RESULT:    -9.320      0.755      6.162
REMARK INTER + INTRA:         -14.358
REMARK INTER:                 -12.674
REMARK INTRA:                  -1.684
REMARK UNBOUND:                -1.769
REMARK  6 active torsions:
REMARK  status: ('A' for Active; 'I' for Inactive)
REMARK    1  A    between atoms: NBC_2  and  CBB_4 
REMARK    2  A    between atoms: CBB_4  and  CBA_5 
REMARK    3  A    between atoms: CBA_5  and  CAY_6 
REMARK    4  A    between atoms: CAY_6  and  NAH_7 
REMARK    5  A    between atoms: CAG_15  and  CAI_16 
REMARK    6  A    between atoms: CAJ_22  and  CAK_23 
ROOT
HETATM    1  CAI   D T1000      -2.515   1.274   9.557  1.00 59.57     0.064 A 
HETATM    2  CAT   D T1000      -3.291   2.456   9.103  1.00 60.04     0.282 A 
HETATM    3  OAZ   D T1000      -2.758   3.557   8.732  1.00 63.91    -0.265 OA
HETATM    4  NAU   D T1000      -4.625   2.294   9.103  1.00 59.30    -0.169 NA
HETATM    5  CAV   D T1000      -4.840   1.064   9.532  1.00 59.13     0.282 A 
HETATM    6  OAX   D T1000      -6.030   0.628   9.627  1.00 59.19    -0.265 OA
HETATM    7  CAJ   D T1000      -3.598   0.294   9.860  1.00 59.47     0.064 A 
ENDROOT
BRANCH   1   8
HETATM    8  CAG   D T1000      -0.984   1.189   9.644  1.00 60.05     0.023 A 
HETATM    9  CAW   D T1000      -0.306   0.160   9.003  1.00 61.31     0.076 A 
HETATM   10  NAH   D T1000       1.026   0.355   9.266  1.00 62.19    -0.326 N 
HETATM   11  CAE   D T1000       1.210   1.458  10.030  1.00 60.17     0.060 A 
HETATM   12  CAF   D T1000       2.371   2.097  10.571  1.00 59.69     0.017 A 
HETATM   13  CAD   D T1000      -0.073   2.024  10.301  1.00 59.51     0.017 A 
HETATM   14  CAA   D T1000       2.251   3.263  11.353  1.00 60.21     0.002 A 
HETATM   15  CAB   D T1000       0.964   3.825  11.623  1.00 60.52     0.000 A 
HETATM   16  CAC   D T1000      -0.212   3.207  11.097  1.00 59.56     0.002 A 
BRANCH  10  17
HETATM   17  CAY   D T1000       2.087  -0.535   8.774  1.00 63.29     0.108 C 
BRANCH  17  18
HETATM   18  CBA   D T1000       1.906  -1.919   9.381  1.00 66.90     0.048 C 
BRANCH  18  19
HETATM   19  CBB   D T1000       2.394  -1.841  10.827  1.00 68.12     0.099 C 
BRANCH  19  20
HETATM   20  NBC   D T1000       1.313  -2.009  11.830  1.00 69.41    -0.365 N 
HETATM   21  CBD   D T1000       0.748  -3.345  11.887  1.00 71.44     0.121 C 
HETATM   22  CBE   D T1000       0.797  -0.980  12.734  1.00 69.10     0.121 C 
ENDBRANCH  19  20
ENDBRANCH  18  19
ENDBRANCH  17  18
ENDBRANCH  10  17
ENDBRANCH   1   8
BRANCH   7  23
HETATM   23  CAK   D T1000      -3.550  -1.146  10.362  1.00 59.62     0.025 A 
HETATM   24  CAM   D T1000      -4.338  -2.277   9.970  1.00 60.49     0.019 A 
HETATM   25  CAP   D T1000      -5.392  -2.506   9.019  1.00 60.58     0.002 A 
HETATM   26  CAN   D T1000      -3.846  -3.313  10.801  1.00 61.04     0.081 A 
HETATM   27  CAQ   D T1000      -5.964  -3.796   8.902  1.00 59.56     0.000 A 
HETATM   28  CAR   D T1000      -5.478  -4.835   9.731  1.00 60.35     0.002 A 
HETATM   29  CAS   D T1000      -4.427  -4.627  10.681  1.00 60.55     0.019 A 
HETATM   30  NAO   D T1000      -2.849  -2.805  11.600  1.00 60.44    -0.244 NA
HETATM   31  CAL   D T1000      -2.639  -1.489  11.367  1.00 59.16     0.099 A 
ENDBRANCH   7  23
TORSDOF 6
ENDMDL
MODEL 5
REMARK VINA RESULT:    -9.315      2.691      6.283
REMARK INTER + INTRA:         -14.352
REMARK INTER:                 -13.213
REMARK INTRA:                  -1.139
REMARK UNBOUND:                -1.769
REMARK  6 active torsions:
REMARK  status: ('A' for Active; 'I' for Inactive)
REMARK    1  A    between atoms: NBC_2  and  CBB_4 
REMARK    2  A    between atoms: CBB_4  and  CBA_5 
REMARK    3  A    between atoms: CBA_5  and  CAY_6 
REMARK    4  A    between atoms: CAY_6  and  NAH_7 
REMARK    5  A    between atoms: CAG_15  and  CAI_16 
REMARK    6  A    between atoms: CAJ_22  and  CAK_23 
ROOT
HETATM    1  CAI   D T1000      -2.607  -3.872  11.062  1.00 59.57     0.064 A 
HETATM    2  CAT   D T1000      -2.657  -5.229  11.664  1.00 60.04     0.282 A 
HETATM    3  OAZ   D T1000      -1.659  -5.795  12.225  1.00 63.91    -0.265 OA
HETATM    4  NAU   D T1000      -3.850  -5.842  11.584  1.00 59.30    -0.169 NA
HETATM    5  CAV   D T1000      -4.650  -4.998  10.958  1.00 59.13     0.282 A 
HETATM    6  OAX   D T1000      -5.862  -5.316  10.747  1.00 59.19    -0.265 OA
HETATM    7  CAJ   D T1000      -4.003  -3.706  10.564  1.00 59.47     0.064 A 
ENDROOT
BRANCH   1   8
HETATM    8  CAG   D T1000      -1.376  -2.955  11.025  1.00 60.05     0.023 A 
HETATM    9  CAW   D T1000      -1.421  -1.704  11.625  1.00 61.31     0.076 A 
HETATM   10  NAH   D T1000      -0.190  -1.136  11.424  1.00 62.19    -0.326 N 
HETATM   11  CAE   D T1000       0.622  -1.974  10.736  1.00 60.17     0.060 A 
HETATM   12  CAF   D T1000       1.974  -1.878  10.278  1.00 59.69     0.017 A 
HETATM   13  CAD   D T1000      -0.116  -3.165  10.454  1.00 59.51     0.017 A 
HETATM   14  CAA   D T1000       2.569  -2.939   9.565  1.00 60.21     0.002 A 
HETATM   15  CAB   D T1000       1.826  -4.129   9.284  1.00 60.52     0.000 A 
HETATM   16  CAC   D T1000       0.473  -4.250   9.728  1.00 59.56     0.002 A 
BRANCH  10  17
HETATM   17  CAY   D T1000       0.169   0.208  11.898  1.00 63.29     0.108 C 
BRANCH  17  18
HETATM   18  CBA   D T1000      -0.295   1.243  10.882  1.00 66.90     0.048 C 
BRANCH  18  19
HETATM   19  CBB   D T1000      -0.735   2.477  11.668  1.00 68.12     0.099 C 
BRANCH  19  20
HETATM   20  NBC   D T1000       0.319   3.516  11.785  1.00 69.41    -0.365 N 
HETATM   21  CBD   D T1000       0.608   4.220  10.548  1.00 71.44     0.121 C 
HETATM   22  CBE   D T1000       1.054   3.878  12.997  1.00 69.10     0.121 C 
ENDBRANCH  19  20
ENDBRANCH  18  19
ENDBRANCH  17  18
ENDBRANCH  10  17
ENDBRANCH   1   8
BRANCH   7  23
HETATM   23  CAK   D T1000      -4.691  -2.551   9.843  1.00 59.62     0.025 A 
HETATM   24  CAM   D T1000      -4.630  -1.143  10.107  1.00 60.49     0.019 A 
HETATM   25  CAP   D T1000      -3.948  -0.312  11.062  1.00 60.58     0.002 A 
HETATM   26  CAN   D T1000      -5.491  -0.595   9.124  1.00 61.04     0.081 A 
HETATM   27  CAQ   D T1000      -4.135   1.090  11.033  1.00 59.56     0.000 A 
HETATM   28  CAR   D T1000      -4.996   1.644  10.055  1.00 60.35     0.002 A 
HETATM   29  CAS   D T1000      -5.681   0.833   9.093  1.00 60.55     0.019 A 
HETATM   30  NAO   D T1000      -5.996  -1.619   8.358  1.00 60.44    -0.244 NA
HETATM   31  CAL   D T1000      -5.537  -2.826   8.763  1.00 59.16     0.099 A 
ENDBRANCH   7  23
TORSDOF 6
ENDMDL
MODEL 6
REMARK VINA RESULT:    -8.960      2.834      5.466
REMARK INTER + INTRA:         -13.872
REMARK INTER:                 -12.508
REMARK INTRA:                  -1.364
REMARK UNBOUND:                -1.769
REMARK  6 active torsions:
REMARK  status: ('A' for Active; 'I' for Inactive)
REMARK    1  A    between atoms: NBC_2  and  CBB_4 
REMARK    2  A    between atoms: CBB_4  and  CBA_5 
REMARK    3  A    between atoms: CBA_5  and  CAY_6 
REMARK    4  A    between atoms: CAY_6  and  NAH_7 
REMARK    5  A    between atoms: CAG_15  and  CAI_16 
REMARK    6  A    between atoms: CAJ_22  and  CAK_23 
ROOT
HETATM    1  CAI   D T1000      -2.084  -3.845  11.164  1.00 59.57     0.064 A 
HETATM    2  CAT   D T1000      -2.366  -5.244  11.575  1.00 60.04     0.282 A 
HETATM    3  OAZ   D T1000      -3.542  -5.704  11.771  1.00 63.91    -0.265 OA
HETATM    4  NAU   D T1000      -1.280  -6.021  11.730  1.00 59.30    -0.169 NA
HETATM    5  CAV   D T1000      -0.243  -5.252  11.454  1.00 59.13     0.282 A 
HETATM    6  OAX   D T1000       0.932  -5.733  11.512  1.00 59.19    -0.265 OA
HETATM    7  CAJ   D T1000      -0.595  -3.845  11.079  1.00 59.47     0.064 A 
ENDROOT
BRANCH   1   8
HETATM    8  CAG   D T1000      -3.138  -2.757  10.911  1.00 60.05     0.023 A 
HETATM    9  CAW   D T1000      -2.920  -1.459  11.354  1.00 61.31     0.076 A 
HETATM   10  NAH   D T1000      -4.025  -0.736  10.985  1.00 62.19    -0.326 N 
HETATM   11  CAE   D T1000      -4.915  -1.517  10.327  1.00 60.17     0.060 A 
HETATM   12  CAF   D T1000      -6.195  -1.268   9.737  1.00 59.69     0.017 A 
HETATM   13  CAD   D T1000      -4.376  -2.839  10.264  1.00 59.51     0.017 A 
HETATM   14  CAA   D T1000      -6.910  -2.305   9.105  1.00 60.21     0.002 A 
HETATM   15  CAB   D T1000      -6.367  -3.627   9.046  1.00 60.52     0.000 A 
HETATM   16  CAC   D T1000      -5.092  -3.905   9.628  1.00 59.56     0.002 A 
BRANCH  10  17
HETATM   17  CAY   D T1000      -4.194   0.693  11.283  1.00 63.29     0.108 C 
BRANCH  17  18
HETATM   18  CBA   D T1000      -3.562   1.519  10.171  1.00 66.90     0.048 C 
BRANCH  18  19
HETATM   19  CBB   D T1000      -4.605   2.544   9.728  1.00 68.12     0.099 C 
BRANCH  19  20
HETATM   20  NBC   D T1000      -4.872   2.530   8.268  1.00 69.41    -0.365 N 
HETATM   21  CBD   D T1000      -4.785   1.217   7.655  1.00 71.44     0.121 C 
HETATM   22  CBE   D T1000      -5.209   3.683   7.433  1.00 69.10     0.121 C 
ENDBRANCH  19  20
ENDBRANCH  18  19
ENDBRANCH  17  18
ENDBRANCH  10  17
ENDBRANCH   1   8
BRANCH   7  23
HETATM   23  CAK   D T1000       0.398  -2.750  10.701  1.00 59.62     0.025 A 
HETATM   24  CAM   D T1000       0.813  -1.596  11.444  1.00 60.49     0.019 A 
HETATM   25  CAP   D T1000       0.505  -1.051  12.738  1.00 60.58     0.002 A 
HETATM   26  CAN   D T1000       1.724  -0.961  10.565  1.00 61.04     0.081 A 
HETATM   27  CAQ   D T1000       1.118   0.154  13.157  1.00 59.56     0.000 A 
HETATM   28  CAR   D T1000       2.028   0.796  12.282  1.00 60.35     0.002 A 
HETATM   29  CAS   D T1000       2.350   0.266  10.991  1.00 60.55     0.019 A 
HETATM   30  NAO   D T1000       1.821  -1.704   9.413  1.00 60.44    -0.244 NA
HETATM   31  CAL   D T1000       1.029  -2.800   9.453  1.00 59.16     0.099 A 
ENDBRANCH   7  23
TORSDOF 6
ENDMDL
MODEL 7
REMARK VINA RESULT:    -8.589      1.686      6.458
REMARK INTER + INTRA:         -13.370
REMARK INTER:                 -12.030
REMARK INTRA:                  -1.340
REMARK UNBOUND:                -1.769
REMARK  6 active torsions:
REMARK  status: ('A' for Active; 'I' for Inactive)
REMARK    1  A    between atoms: NBC_2  and  CBB_4 
REMARK    2  A    between atoms: CBB_4  and  CBA_5 
REMARK    3  A    between atoms: CBA_5  and  CAY_6 
REMARK    4  A    between atoms: CAY_6  and  NAH_7 
REMARK    5  A    between atoms: CAG_15  and  CAI_16 
REMARK    6  A    between atoms: CAJ_22  and  CAK_23 
ROOT
HETATM    1  CAI   D T1000      -1.788   0.811  10.016  1.00 59.57     0.064 A 
HETATM    2  CAT   D T1000      -2.282   2.183   9.731  1.00 60.04     0.282 A 
HETATM    3  OAZ   D T1000      -1.520   3.170   9.452  1.00 63.91    -0.265 OA
HETATM    4  NAU   D T1000      -3.618   2.327   9.781  1.00 59.30    -0.169 NA
HETATM    5  CAV   D T1000      -4.100   1.137  10.087  1.00 59.13     0.282 A 
HETATM    6  OAX   D T1000      -5.355   0.973  10.195  1.00 59.19    -0.265 OA
HETATM    7  CAJ   D T1000      -3.060   0.074  10.268  1.00 59.47     0.064 A 
ENDROOT
BRANCH   1   8
HETATM    8  CAG   D T1000      -0.317   0.373  10.016  1.00 60.05     0.023 A 
HETATM    9  CAW   D T1000       0.381   0.276   8.819  1.00 61.31     0.076 A 
HETATM   10  NAH   D T1000       1.648  -0.133   9.145  1.00 62.19    -0.326 N 
HETATM   11  CAE   D T1000       1.777  -0.286  10.485  1.00 60.17     0.060 A 
HETATM   12  CAF   D T1000       2.862  -0.680  11.330  1.00 59.69     0.017 A 
HETATM   13  CAD   D T1000       0.519   0.028  11.085  1.00 59.51     0.017 A 
HETATM   14  CAA   D T1000       2.695  -0.753  12.728  1.00 60.21     0.002 A 
HETATM   15  CAB   D T1000       1.433  -0.438  13.324  1.00 60.52     0.000 A 
HETATM   16  CAC   D T1000       0.332  -0.044  12.503  1.00 59.56     0.002 A 
BRANCH  10  17
HETATM   17  CAY   D T1000       2.703  -0.371   8.150  1.00 63.29     0.108 C 
BRANCH  17  18
HETATM   18  CBA   D T1000       3.946   0.421   8.531  1.00 66.90     0.048 C 
BRANCH  18  19
HETATM   19  CBB   D T1000       3.600   1.901   8.375  1.00 68.12     0.099 C 
BRANCH  19  20
HETATM   20  NBC   D T1000       3.718   2.677   9.634  1.00 69.41    -0.365 N 
HETATM   21  CBD   D T1000       2.487   3.315  10.066  1.00 71.44     0.121 C 
HETATM   22  CBE   D T1000       4.924   2.838  10.447  1.00 69.10     0.121 C 
ENDBRANCH  19  20
ENDBRANCH  18  19
ENDBRANCH  17  18
ENDBRANCH  10  17
ENDBRANCH   1   8
BRANCH   7  23
HETATM   23  CAK   D T1000      -3.332  -1.388  10.612  1.00 59.62     0.025 A 
HETATM   24  CAM   D T1000      -4.308  -2.287  10.070  1.00 60.49     0.019 A 
HETATM   25  CAP   D T1000      -5.329  -2.199   9.062  1.00 60.58     0.002 A 
HETATM   26  CAN   D T1000      -4.084  -3.480  10.800  1.00 61.04     0.081 A 
HETATM   27  CAQ   D T1000      -6.142  -3.324   8.784  1.00 59.56     0.000 A 
HETATM   28  CAR   D T1000      -5.925  -4.518   9.513  1.00 60.35     0.002 A 
HETATM   29  CAS   D T1000      -4.909  -4.628  10.517  1.00 60.55     0.019 A 
HETATM   30  NAO   D T1000      -3.053  -3.271  11.686  1.00 60.44    -0.244 NA
HETATM   31  CAL   D T1000      -2.569  -2.010  11.606  1.00 59.16     0.099 A 
ENDBRANCH   7  23
TORSDOF 6
ENDMDL
MODEL 8
REMARK VINA RESULT:    -8.564      1.446      5.573
REMARK INTER + INTRA:         -13.337
REMARK INTER:                 -11.588
REMARK INTRA:                  -1.749
REMARK UNBOUND:                -1.769
REMARK  6 active torsions:
REMARK  status: ('A' for Active; 'I' for Inactive)
REMARK    1  A    between atoms: NBC_2  and  CBB_4 
REMARK    2  A    between atoms: CBB_4  and  CBA_5 
REMARK    3  A    between atoms: CBA_5  and  CAY_6 
REMARK    4  A    between atoms: CAY_6  and  NAH_7 
REMARK    5  A    between atoms: CAG_15  and  CAI_16 
REMARK    6  A    between atoms: CAJ_22  and  CAK_23 
ROOT
HETATM    1  CAI   D T1000      -3.001   0.920   9.471  1.00 59.57     0.064 A 
HETATM    2  CAT   D T1000      -3.739   2.108   8.971  1.00 60.04     0.282 A 
HETATM    3  OAZ   D T1000      -3.191   3.238   8.734  1.00 63.91    -0.265 OA
HETATM    4  NAU   D T1000      -5.055   1.918   8.773  1.00 59.30    -0.169 NA
HETATM    5  CAV   D T1000      -5.293   0.662   9.106  1.00 59.13     0.282 A 
HETATM    6  OAX   D T1000      -6.471   0.196   9.011  1.00 59.19    -0.265 OA
HETATM    7  CAJ   D T1000      -4.087  -0.097   9.570  1.00 59.47     0.064 A 
ENDROOT
BRANCH   1   8
HETATM    8  CAG   D T1000      -1.496   0.864   9.771  1.00 60.05     0.023 A 
HETATM    9  CAW   D T1000      -0.646   0.151   8.935  1.00 61.31     0.076 A 
HETATM   10  NAH   D T1000       0.613   0.288   9.460  1.00 62.19    -0.326 N 
HETATM   11  CAE   D T1000       0.590   1.057  10.575  1.00 60.17     0.060 A 
HETATM   12  CAF   D T1000       1.603   1.506  11.482  1.00 59.69     0.017 A 
HETATM   13  CAD   D T1000      -0.764   1.446  10.812  1.00 59.51     0.017 A 
HETATM   14  CAA   D T1000       1.272   2.317  12.585  1.00 60.21     0.002 A 
HETATM   15  CAB   D T1000      -0.086   2.703  12.819  1.00 60.52     0.000 A 
HETATM   16  CAC   D T1000      -1.117   2.267  11.931  1.00 59.56     0.002 A 
BRANCH  10  17
HETATM   17  CAY   D T1000       1.808  -0.335   8.872  1.00 63.29     0.108 C 
BRANCH  17  18
HETATM   18  CBA   D T1000       1.865  -1.801   9.279  1.00 66.90     0.048 C 
BRANCH  18  19
HETATM   19  CBB   D T1000       3.295  -2.082   9.738  1.00 68.12     0.099 C 
BRANCH  19  20
HETATM   20  NBC   D T1000       3.611  -1.526  11.077  1.00 69.41    -0.365 N 
HETATM   21  CBD   D T1000       2.759  -2.013  12.147  1.00 71.44     0.121 C 
HETATM   22  CBE   D T1000       4.673  -0.571  11.395  1.00 69.10     0.121 C 
ENDBRANCH  19  20
ENDBRANCH  18  19
ENDBRANCH  17  18
ENDBRANCH  10  17
ENDBRANCH   1   8
BRANCH   7  23
HETATM   23  CAK   D T1000      -4.069  -1.560  10.003  1.00 59.62     0.025 A 
HETATM   24  CAM   D T1000      -3.166  -2.241  10.883  1.00 60.49     0.019 A 
HETATM   25  CAP   D T1000      -2.019  -1.862  11.661  1.00 60.58     0.002 A 
HETATM   26  CAN   D T1000      -3.650  -3.573  10.869  1.00 61.04     0.081 A 
HETATM   27  CAQ   D T1000      -1.342  -2.835  12.436  1.00 59.56     0.000 A 
HETATM   28  CAR   D T1000      -1.818  -4.168  12.424  1.00 60.35     0.002 A 
HETATM   29  CAS   D T1000      -2.962  -4.564  11.658  1.00 60.55     0.019 A 
HETATM   30  NAO   D T1000      -4.749  -3.637  10.044  1.00 60.44    -0.244 NA
HETATM   31  CAL   D T1000      -5.037  -2.434   9.495  1.00 59.16     0.099 A 
ENDBRANCH   7  23
TORSDOF 6
ENDMDL
MODEL 9
REMARK VINA RESULT:    -8.483      2.339      5.249
REMARK INTER + INTRA:         -13.228
REMARK INTER:                 -12.110
REMARK INTRA:                  -1.118
REMARK UNBOUND:                -1.769
REMARK  6 active torsions:
REMARK  status: ('A' for Active; 'I' for Inactive)
REMARK    1  A    between atoms: NBC_2  and  CBB_4 
REMARK    2  A    between atoms: CBB_4  and  CBA_5 
REMARK    3  A    between atoms: CBA_5  and  CAY_6 
REMARK    4  A    between atoms: CAY_6  and  NAH_7 
REMARK    5  A    between atoms: CAG_15  and  CAI_16 
REMARK    6  A    between atoms: CAJ_22  and  CAK_23 
ROOT
HETATM    1  CAI   D T1000      -2.608  -2.949  10.924  1.00 59.57     0.064 A 
HETATM    2  CAT   D T1000      -3.622  -3.984  11.252  1.00 60.04     0.282 A 
HETATM    3  OAZ   D T1000      -4.869  -3.742  11.387  1.00 63.91    -0.265 OA
HETATM    4  NAU   D T1000      -3.135  -5.229  11.400  1.00 59.30    -0.169 NA
HETATM    5  CAV   D T1000      -1.833  -5.135  11.197  1.00 59.13     0.282 A 
HETATM    6  OAX   D T1000      -1.107  -6.176  11.267  1.00 59.19    -0.265 OA
HETATM    7  CAJ   D T1000      -1.352  -3.751  10.886  1.00 59.47     0.064 A 
ENDROOT
BRANCH   1   8
HETATM    8  CAG   D T1000      -2.896  -1.458  10.695  1.00 60.05     0.023 A 
HETATM    9  CAW   D T1000      -2.046  -0.496  11.224  1.00 61.31     0.076 A 
HETATM   10  NAH   D T1000      -2.563   0.719  10.855  1.00 62.19    -0.326 N 
HETATM   11  CAE   D T1000      -3.687   0.561  10.116  1.00 60.17     0.060 A 
HETATM   12  CAF   D T1000      -4.591   1.478   9.492  1.00 59.69     0.017 A 
HETATM   13  CAD   D T1000      -3.939  -0.841   9.995  1.00 59.51     0.017 A 
HETATM   14  CAA   D T1000      -5.707   1.008   8.770  1.00 60.21     0.002 A 
HETATM   15  CAB   D T1000      -5.956  -0.396   8.652  1.00 60.52     0.000 A 
HETATM   16  CAC   D T1000      -5.070  -1.334   9.267  1.00 59.56     0.002 A 
BRANCH  10  17
HETATM   17  CAY   D T1000      -1.959   2.005  11.232  1.00 63.29     0.108 C 
BRANCH  17  18
HETATM   18  CBA   D T1000      -0.984   2.442  10.148  1.00 66.90     0.048 C 
BRANCH  18  19
HETATM   19  CBB   D T1000       0.404   1.969  10.576  1.00 68.12     0.099 C 
BRANCH  19  20
HETATM   20  NBC   D T1000       1.345   3.077  10.876  1.00 69.41    -0.365 N 
HETATM   21  CBD   D T1000       0.936   3.931  11.977  1.00 71.44     0.121 C 
HETATM   22  CBE   D T1000       2.603   3.362  10.185  1.00 69.10     0.121 C 
ENDBRANCH  19  20
ENDBRANCH  18  19
ENDBRANCH  17  18
ENDBRANCH  10  17
ENDBRANCH   1   8
BRANCH   7  23
HETATM   23  CAK   D T1000       0.094  -3.357  10.597  1.00 59.62     0.025 A 
HETATM   24  CAM   D T1000       0.951  -2.448  11.301  1.00 60.49     0.019 A 
HETATM   25  CAP   D T1000       0.821  -1.620  12.469  1.00 60.58     0.002 A 
HETATM   26  CAN   D T1000       2.149  -2.489  10.545  1.00 61.04     0.081 A 
HETATM   27  CAQ   D T1000       1.910  -0.817  12.884  1.00 59.56     0.000 A 
HETATM   28  CAR   D T1000       3.109  -0.851  12.132  1.00 60.35     0.002 A 
HETATM   29  CAS   D T1000       3.259  -1.672  10.968  1.00 60.55     0.019 A 
HETATM   30  NAO   D T1000       1.981  -3.361   9.495  1.00 60.44    -0.244 NA
HETATM   31  CAL   D T1000       0.744  -3.909   9.488  1.00 59.16     0.099 A 
ENDBRANCH   7  23
TORSDOF 6
ENDMDL
