MODEL 1
REMARK VINA RESULT:    -7.466      0.000      0.000
REMARK INTER + INTRA:         -11.534
REMARK INTER:                 -10.085
REMARK INTRA:                  -1.449
REMARK UNBOUND:                -1.449
REMARK  6 active torsions:
REMARK  status: ('A' for Active; 'I' for Inactive)
REMARK    1  A    between atoms: NBC_2  and  CBB_4 
REMARK    2  A    between atoms: CBB_4  and  CBA_5 
REMARK    3  A    between atoms: CBA_5  and  CAY_6 
REMARK    4  A    between atoms: CAY_6  and  NAH_7 
REMARK    5  A    between atoms: CAG_15  and  CAI_16 
REMARK    6  A    between atoms: CAJ_22  and  CAK_23 
ROOT
HETATM    1  CAI   D T1000      10.106  -3.434  -0.235  1.00 59.57     0.064 A 
HETATM    2  CAT   D T1000       9.561  -4.614   0.482  1.00 60.04     0.282 A 
HETATM    3  OAZ   D T1000       8.525  -5.260   0.105  1.00 63.91    -0.265 OA
HETATM    4  NAU   D T1000      10.243  -4.977   1.583  1.00 59.30    -0.169 NA
HETATM    5  CAV   D T1000      11.244  -4.118   1.686  1.00 59.13     0.282 A 
HETATM    6  OAX   D T1000      12.069  -4.227   2.647  1.00 59.19    -0.265 OA
HETATM    7  CAJ   D T1000      11.286  -3.082   0.608  1.00 59.47     0.064 A 
ENDROOT
BRANCH   1   8
HETATM    8  CAG   D T1000       9.525  -2.820  -1.517  1.00 60.05     0.023 A 
HETATM    9  CAW   D T1000       9.041  -1.519  -1.509  1.00 61.31     0.076 A 
HETATM   10  NAH   D T1000       8.597  -1.266  -2.781  1.00 62.19    -0.326 N 
HETATM   11  CAE   D T1000       8.787  -2.341  -3.582  1.00 60.17     0.060 A 
HETATM   12  CAF   D T1000       8.513  -2.602  -4.963  1.00 59.69     0.017 A 
HETATM   13  CAD   D T1000       9.384  -3.374  -2.795  1.00 59.51     0.017 A 
HETATM   14  CAA   D T1000       8.828  -3.850  -5.535  1.00 60.21     0.002 A 
HETATM   15  CAB   D T1000       9.424  -4.881  -4.743  1.00 60.52     0.000 A 
HETATM   16  CAC   D T1000       9.707  -4.650  -3.361  1.00 59.56     0.002 A 
BRANCH  10  17
HETATM   17  CAY   D T1000       7.992   0.010  -3.188  1.00 63.29     0.108 C 
BRANCH  17  18
HETATM   18  CBA   D T1000       9.026   0.846  -3.928  1.00 66.90     0.048 C 
BRANCH  18  19
HETATM   19  CBB   D T1000       8.472   1.109  -5.327  1.00 68.12     0.099 C 
BRANCH  19  20
HETATM   20  NBC   D T1000       9.402   1.861  -6.205  1.00 69.41    -0.365 N 
HETATM   21  CBD   D T1000      10.809   1.625  -5.934  1.00 71.44     0.121 C 
HETATM   22  CBE   D T1000       9.032   2.779  -7.283  1.00 69.10     0.121 C 
ENDBRANCH  19  20
ENDBRANCH  18  19
ENDBRANCH  17  18
ENDBRANCH  10  17
ENDBRANCH   1   8
BRANCH   7  23
HETATM   23  CAK   D T1000      12.332  -1.979   0.474  1.00 59.62     0.025 A 
HETATM   24  CAM   D T1000      12.737  -0.981   1.421  1.00 60.49     0.019 A 
HETATM   25  CAP   D T1000      12.366  -0.645   2.769  1.00 60.58     0.002 A 
HETATM   26  CAN   D T1000      13.717  -0.246   0.712  1.00 61.04     0.081 A 
HETATM   27  CAQ   D T1000      12.989   0.449   3.416  1.00 59.56     0.000 A 
HETATM   28  CAR   D T1000      13.969   1.191   2.711  1.00 60.35     0.002 A 
HETATM   29  CAS   D T1000      14.352   0.868   1.370  1.00 60.55     0.019 A 
HETATM   30  NAO   D T1000      13.861  -0.791  -0.542  1.00 60.44    -0.244 NA
HETATM   31  CAL   D T1000      13.035  -1.846  -0.729  1.00 59.16     0.099 A 
ENDBRANCH   7  23
TORSDOF 6
ENDMDL
MODEL 2
REMARK VINA RESULT:    -7.005      2.153      4.585
REMARK INTER + INTRA:         -10.912
REMARK INTER:                  -9.194
REMARK INTRA:                  -1.718
REMARK UNBOUND:                -1.449
REMARK  6 active torsions:
REMARK  status: ('A' for Active; 'I' for Inactive)
REMARK    1  A    between atoms: NBC_2  and  CBB_4 
REMARK    2  A    between atoms: CBB_4  and  CBA_5 
REMARK    3  A    between atoms: CBA_5  and  CAY_6 
REMARK    4  A    between atoms: CAY_6  and  NAH_7 
REMARK    5  A    between atoms: CAG_15  and  CAI_16 
REMARK    6  A    between atoms: CAJ_22  and  CAK_23 
ROOT
HETATM    1  CAI   D T1000      11.588  -2.116  -1.456  1.00 59.57     0.064 A 
HETATM    2  CAT   D T1000      12.897  -1.418  -1.399  1.00 60.04     0.282 A 
HETATM    3  OAZ   D T1000      13.269  -0.530  -2.239  1.00 63.91    -0.265 OA
HETATM    4  NAU   D T1000      13.693  -1.783  -0.378  1.00 59.30    -0.169 NA
HETATM    5  CAV   D T1000      13.019  -2.702   0.293  1.00 59.13     0.282 A 
HETATM    6  OAX   D T1000      13.534  -3.229   1.329  1.00 59.19    -0.265 OA
HETATM    7  CAJ   D T1000      11.670  -3.019  -0.271  1.00 59.47     0.064 A 
ENDROOT
BRANCH   1   8
HETATM    8  CAG   D T1000      10.496  -1.881  -2.510  1.00 60.05     0.023 A 
HETATM    9  CAW   D T1000       9.873  -0.644  -2.604  1.00 61.31     0.076 A 
HETATM   10  NAH   D T1000       8.960  -0.748  -3.621  1.00 62.19    -0.326 N 
HETATM   11  CAE   D T1000       8.989  -1.987  -4.169  1.00 60.17     0.060 A 
HETATM   12  CAF   D T1000       8.263  -2.608  -5.236  1.00 59.69     0.017 A 
HETATM   13  CAD   D T1000       9.971  -2.753  -3.470  1.00 59.51     0.017 A 
HETATM   14  CAA   D T1000       8.514  -3.948  -5.590  1.00 60.21     0.002 A 
HETATM   15  CAB   D T1000       9.497  -4.713  -4.887  1.00 60.52     0.000 A 
HETATM   16  CAC   D T1000      10.236  -4.118  -3.816  1.00 59.56     0.002 A 
BRANCH  10  17
HETATM   17  CAY   D T1000       8.077   0.351  -4.033  1.00 63.29     0.108 C 
BRANCH  17  18
HETATM   18  CBA   D T1000       8.750   1.153  -5.139  1.00 66.90     0.048 C 
BRANCH  18  19
HETATM   19  CBB   D T1000       8.088   0.744  -6.453  1.00 68.12     0.099 C 
BRANCH  19  20
HETATM   20  NBC   D T1000       7.998   1.846  -7.443  1.00 69.41    -0.365 N 
HETATM   21  CBD   D T1000       6.880   1.738  -8.364  1.00 71.44     0.121 C 
HETATM   22  CBE   D T1000       8.904   2.990  -7.558  1.00 69.10     0.121 C 
ENDBRANCH  19  20
ENDBRANCH  18  19
ENDBRANCH  17  18
ENDBRANCH  10  17
ENDBRANCH   1   8
BRANCH   7  23
HETATM   23  CAK   D T1000      10.679  -4.026   0.303  1.00 59.62     0.025 A 
HETATM   24  CAM   D T1000      10.418  -5.381  -0.090  1.00 60.49     0.019 A 
HETATM   25  CAP   D T1000      10.942  -6.271  -1.090  1.00 60.58     0.002 A 
HETATM   26  CAN   D T1000       9.389  -5.779   0.796  1.00 61.04     0.081 A 
HETATM   27  CAQ   D T1000      10.423  -7.583  -1.203  1.00 59.56     0.000 A 
HETATM   28  CAR   D T1000       9.392  -7.987  -0.321  1.00 60.35     0.002 A 
HETATM   29  CAS   D T1000       8.860  -7.115   0.682  1.00 60.55     0.019 A 
HETATM   30  NAO   D T1000       9.093  -4.730   1.634  1.00 60.44    -0.244 NA
HETATM   31  CAL   D T1000       9.854  -3.644   1.366  1.00 59.16     0.099 A 
ENDBRANCH   7  23
TORSDOF 6
ENDMDL
MODEL 3
REMARK VINA RESULT:    -7.002      1.965      6.570
REMARK INTER + INTRA:         -10.907
REMARK INTER:                  -9.328
REMARK INTRA:                  -1.580
REMARK UNBOUND:                -1.449
REMARK  6 active torsions:
REMARK  status: ('A' for Active; 'I' for Inactive)
REMARK    1  A    between atoms: NBC_2  and  CBB_4 
REMARK    2  A    between atoms: CBB_4  and  CBA_5 
REMARK    3  A    between atoms: CBA_5  and  CAY_6 
REMARK    4  A    between atoms: CAY_6  and  NAH_7 
REMARK    5  A    between atoms: CAG_15  and  CAI_16 
REMARK    6  A    between atoms: CAJ_22  and  CAK_23 
ROOT
HETATM    1  CAI   D T1000      10.125  -3.577  -1.989  1.00 59.57     0.064 A 
HETATM    2  CAT   D T1000      10.118  -4.985  -2.460  1.00 60.04     0.282 A 
HETATM    3  OAZ   D T1000      10.608  -5.961  -1.795  1.00 63.91    -0.265 OA
HETATM    4  NAU   D T1000       9.546  -5.181  -3.661  1.00 59.30    -0.169 NA
HETATM    5  CAV   D T1000       9.145  -3.989  -4.069  1.00 59.13     0.282 A 
HETATM    6  OAX   D T1000       8.555  -3.872  -5.188  1.00 59.19    -0.265 OA
HETATM    7  CAJ   D T1000       9.445  -2.874  -3.116  1.00 59.47     0.064 A 
ENDROOT
BRANCH   1   8
HETATM    8  CAG   D T1000      10.706  -3.083  -0.657  1.00 60.05     0.023 A 
HETATM    9  CAW   D T1000      11.587  -2.009  -0.636  1.00 61.31     0.076 A 
HETATM   10  NAH   D T1000      11.923  -1.813   0.678  1.00 62.19    -0.326 N 
HETATM   11  CAE   D T1000      11.290  -2.705   1.477  1.00 60.17     0.060 A 
HETATM   12  CAF   D T1000      11.286  -2.930   2.891  1.00 59.69     0.017 A 
HETATM   13  CAD   D T1000      10.493  -3.551   0.645  1.00 59.51     0.017 A 
HETATM   14  CAA   D T1000      10.509  -3.964   3.451  1.00 60.21     0.002 A 
HETATM   15  CAB   D T1000       9.714  -4.809   2.615  1.00 60.52     0.000 A 
HETATM   16  CAC   D T1000       9.701  -4.608   1.199  1.00 59.56     0.002 A 
BRANCH  10  17
HETATM   17  CAY   D T1000      12.855  -0.770   1.128  1.00 63.29     0.108 C 
BRANCH  17  18
HETATM   18  CBA   D T1000      14.275  -1.317   1.106  1.00 66.90     0.048 C 
BRANCH  18  19
HETATM   19  CBB   D T1000      15.208  -0.132   0.863  1.00 68.12     0.099 C 
BRANCH  19  20
HETATM   20  NBC   D T1000      15.355   0.227  -0.569  1.00 69.41    -0.365 N 
HETATM   21  CBD   D T1000      15.782  -0.868  -1.423  1.00 71.44     0.121 C 
HETATM   22  CBE   D T1000      15.109   1.540  -1.167  1.00 69.10     0.121 C 
ENDBRANCH  19  20
ENDBRANCH  18  19
ENDBRANCH  17  18
ENDBRANCH  10  17
ENDBRANCH   1   8
BRANCH   7  23
HETATM   23  CAK   D T1000       9.088  -1.406  -3.324  1.00 59.62     0.025 A 
HETATM   24  CAM   D T1000       9.735  -0.411  -4.131  1.00 60.49     0.019 A 
HETATM   25  CAP   D T1000      10.875  -0.393  -5.007  1.00 60.58     0.002 A 
HETATM   26  CAN   D T1000       8.957   0.747  -3.895  1.00 61.04     0.081 A 
HETATM   27  CAQ   D T1000      11.242   0.811  -5.655  1.00 59.56     0.000 A 
HETATM   28  CAR   D T1000      10.471   1.975  -5.421  1.00 60.35     0.002 A 
HETATM   29  CAS   D T1000       9.330   1.974  -4.555  1.00 60.55     0.019 A 
HETATM   30  NAO   D T1000       7.941   0.432  -3.024  1.00 60.44    -0.244 NA
HETATM   31  CAL   D T1000       7.986  -0.867  -2.650  1.00 59.16     0.099 A 
ENDBRANCH   7  23
TORSDOF 6
ENDMDL
MODEL 4
REMARK VINA RESULT:    -7.000      3.396      7.216
REMARK INTER + INTRA:         -10.904
REMARK INTER:                 -10.117
REMARK INTRA:                  -0.788
REMARK UNBOUND:                -1.449
REMARK  6 active torsions:
REMARK  status: ('A' for Active; 'I' for Inactive)
REMARK    1  A    between atoms: NBC_2  and  CBB_4 
REMARK    2  A    between atoms: CBB_4  and  CBA_5 
REMARK    3  A    between atoms: CBA_5  and  CAY_6 
REMARK    4  A    between atoms: CAY_6  and  NAH_7 
REMARK    5  A    between atoms: CAG_15  and  CAI_16 
REMARK    6  A    between atoms: CAJ_22  and  CAK_23 
ROOT
HETATM    1  CAI   D T1000       9.026  -6.450   0.042  1.00 59.57     0.064 A 
HETATM    2  CAT   D T1000       9.162  -6.972   1.425  1.00 60.04     0.282 A 
HETATM    3  OAZ   D T1000       9.339  -6.232   2.452  1.00 63.91    -0.265 OA
HETATM    4  NAU   D T1000       9.082  -8.310   1.539  1.00 59.30    -0.169 NA
HETATM    5  CAV   D T1000       8.896  -8.766   0.312  1.00 59.13     0.282 A 
HETATM    6  OAX   D T1000       8.776 -10.016   0.117  1.00 59.19    -0.265 OA
HETATM    7  CAJ   D T1000       8.841  -7.705  -0.742  1.00 59.47     0.064 A 
ENDROOT
BRANCH   1   8
HETATM    8  CAG   D T1000       9.072  -4.969  -0.363  1.00 60.05     0.023 A 
HETATM    9  CAW   D T1000       8.289  -4.510  -1.414  1.00 61.31     0.076 A 
HETATM   10  NAH   D T1000       8.548  -3.169  -1.530  1.00 62.19    -0.326 N 
HETATM   11  CAE   D T1000       9.446  -2.769  -0.598  1.00 60.17     0.060 A 
HETATM   12  CAF   D T1000      10.044  -1.506  -0.284  1.00 59.69     0.017 A 
HETATM   13  CAD   D T1000       9.814  -3.913   0.176  1.00 59.51     0.017 A 
HETATM   14  CAA   D T1000      10.973  -1.392   0.768  1.00 60.21     0.002 A 
HETATM   15  CAB   D T1000      11.339  -2.540   1.540  1.00 60.52     0.000 A 
HETATM   16  CAC   D T1000      10.760  -3.814   1.247  1.00 59.56     0.002 A 
BRANCH  10  17
HETATM   17  CAY   D T1000       7.924  -2.308  -2.544  1.00 63.29     0.108 C 
BRANCH  17  18
HETATM   18  CBA   D T1000       8.430  -2.706  -3.924  1.00 66.90     0.048 C 
BRANCH  18  19
HETATM   19  CBB   D T1000       7.929  -1.648  -4.905  1.00 68.12     0.099 C 
BRANCH  19  20
HETATM   20  NBC   D T1000       8.882  -0.529  -5.114  1.00 69.41    -0.365 N 
HETATM   21  CBD   D T1000       8.380   0.538  -5.961  1.00 71.44     0.121 C 
HETATM   22  CBE   D T1000      10.228  -0.416  -4.552  1.00 69.10     0.121 C 
ENDBRANCH  19  20
ENDBRANCH  18  19
ENDBRANCH  17  18
ENDBRANCH  10  17
ENDBRANCH   1   8
BRANCH   7  23
HETATM   23  CAK   D T1000       8.626  -7.944  -2.234  1.00 59.62     0.025 A 
HETATM   24  CAM   D T1000       7.628  -8.728  -2.902  1.00 60.49     0.019 A 
HETATM   25  CAP   D T1000       6.512  -9.530  -2.481  1.00 60.58     0.002 A 
HETATM   26  CAN   D T1000       7.962  -8.574  -4.268  1.00 61.04     0.081 A 
HETATM   27  CAQ   D T1000       5.719 -10.192  -3.449  1.00 59.56     0.000 A 
HETATM   28  CAR   D T1000       6.050 -10.046  -4.818  1.00 60.35     0.002 A 
HETATM   29  CAS   D T1000       7.155  -9.248  -5.255  1.00 60.55     0.019 A 
HETATM   30  NAO   D T1000       9.065  -7.759  -4.368  1.00 60.44    -0.244 NA
HETATM   31  CAL   D T1000       9.502  -7.355  -3.153  1.00 59.16     0.099 A 
ENDBRANCH   7  23
TORSDOF 6
ENDMDL
MODEL 5
REMARK VINA RESULT:    -6.968      3.504      7.121
REMARK INTER + INTRA:         -10.862
REMARK INTER:                  -9.388
REMARK INTRA:                  -1.474
REMARK UNBOUND:                -1.449
REMARK  6 active torsions:
REMARK  status: ('A' for Active; 'I' for Inactive)
REMARK    1  A    between atoms: NBC_2  and  CBB_4 
REMARK    2  A    between atoms: CBB_4  and  CBA_5 
REMARK    3  A    between atoms: CBA_5  and  CAY_6 
REMARK    4  A    between atoms: CAY_6  and  NAH_7 
REMARK    5  A    between atoms: CAG_15  and  CAI_16 
REMARK    6  A    between atoms: CAJ_22  and  CAK_23 
ROOT
HETATM    1  CAI   D T1000      10.922  -6.708  -0.821  1.00 59.57     0.064 A 
HETATM    2  CAT   D T1000      12.316  -7.022  -0.419  1.00 60.04     0.282 A 
HETATM    3  OAZ   D T1000      13.257  -6.159  -0.377  1.00 63.91    -0.265 OA
HETATM    4  NAU   D T1000      12.537  -8.307  -0.087  1.00 59.30    -0.169 NA
HETATM    5  CAV   D T1000      11.376  -8.922  -0.232  1.00 59.13     0.282 A 
HETATM    6  OAX   D T1000      11.285 -10.164   0.022  1.00 59.19    -0.265 OA
HETATM    7  CAJ   D T1000      10.260  -8.039  -0.694  1.00 59.47     0.064 A 
ENDROOT
BRANCH   1   8
HETATM    8  CAG   D T1000      10.402  -5.325  -1.237  1.00 60.05     0.023 A 
HETATM    9  CAW   D T1000       9.733  -5.165  -2.443  1.00 61.31     0.076 A 
HETATM   10  NAH   D T1000       9.401  -3.838  -2.528  1.00 62.19    -0.326 N 
HETATM   11  CAE   D T1000       9.823  -3.165  -1.431  1.00 60.17     0.060 A 
HETATM   12  CAF   D T1000       9.733  -1.796  -1.021  1.00 59.69     0.017 A 
HETATM   13  CAD   D T1000      10.483  -4.096  -0.571  1.00 59.51     0.017 A 
HETATM   14  CAA   D T1000      10.283  -1.376   0.206  1.00 60.21     0.002 A 
HETATM   15  CAB   D T1000      10.944  -2.311   1.064  1.00 60.52     0.000 A 
HETATM   16  CAC   D T1000      11.049  -3.684   0.678  1.00 59.56     0.002 A 
BRANCH  10  17
HETATM   17  CAY   D T1000       8.689  -3.253  -3.672  1.00 63.29     0.108 C 
BRANCH  17  18
HETATM   18  CBA   D T1000       9.648  -2.383  -4.473  1.00 66.90     0.048 C 
BRANCH  18  19
HETATM   19  CBB   D T1000       8.910  -1.086  -4.797  1.00 68.12     0.099 C 
BRANCH  19  20
HETATM   20  NBC   D T1000       9.702   0.137  -4.515  1.00 69.41    -0.365 N 
HETATM   21  CBD   D T1000       9.138   0.996  -3.488  1.00 71.44     0.121 C 
HETATM   22  CBE   D T1000      10.957   0.529  -5.157  1.00 69.10     0.121 C 
ENDBRANCH  19  20
ENDBRANCH  18  19
ENDBRANCH  17  18
ENDBRANCH  10  17
ENDBRANCH   1   8
BRANCH   7  23
HETATM   23  CAK   D T1000       8.818  -8.478  -0.933  1.00 59.62     0.025 A 
HETATM   24  CAM   D T1000       8.128  -8.723  -2.166  1.00 60.49     0.019 A 
HETATM   25  CAP   D T1000       8.481  -8.672  -3.559  1.00 60.58     0.002 A 
HETATM   26  CAN   D T1000       6.826  -9.077  -1.739  1.00 61.04     0.081 A 
HETATM   27  CAQ   D T1000       7.508  -8.980  -4.541  1.00 59.56     0.000 A 
HETATM   28  CAR   D T1000       6.203  -9.332  -4.121  1.00 60.35     0.002 A 
HETATM   29  CAS   D T1000       5.835  -9.392  -2.738  1.00 60.55     0.019 A 
HETATM   30  NAO   D T1000       6.783  -9.041  -0.365  1.00 60.44    -0.244 NA
HETATM   31  CAL   D T1000       7.973  -8.679   0.165  1.00 59.16     0.099 A 
ENDBRANCH   7  23
TORSDOF 6
ENDMDL
MODEL 6
REMARK VINA RESULT:    -6.748      1.907      7.465
REMARK INTER + INTRA:         -10.564
REMARK INTER:                  -9.081
REMARK INTRA:                  -1.483
REMARK UNBOUND:                -1.449
REMARK  6 active torsions:
REMARK  status: ('A' for Active; 'I' for Inactive)
REMARK    1  A    between atoms: NBC_2  and  CBB_4 
REMARK    2  A    between atoms: CBB_4  and  CBA_5 
REMARK    3  A    between atoms: CBA_5  and  CAY_6 
REMARK    4  A    between atoms: CAY_6  and  NAH_7 
REMARK    5  A    between atoms: CAG_15  and  CAI_16 
REMARK    6  A    between atoms: CAJ_22  and  CAK_23 
ROOT
HETATM    1  CAI   D T1000      11.172  -2.972  -0.345  1.00 59.57     0.064 A 
HETATM    2  CAT   D T1000      11.111  -4.295   0.328  1.00 60.04     0.282 A 
HETATM    3  OAZ   D T1000      11.961  -4.694   1.194  1.00 63.91    -0.265 OA
HETATM    4  NAU   D T1000      10.075  -5.071  -0.037  1.00 59.30    -0.169 NA
HETATM    5  CAV   D T1000       9.397  -4.372  -0.931  1.00 59.13     0.282 A 
HETATM    6  OAX   D T1000       8.347  -4.864  -1.451  1.00 59.19    -0.265 OA
HETATM    7  CAJ   D T1000       9.972  -3.023  -1.230  1.00 59.47     0.064 A 
ENDROOT
BRANCH   1   8
HETATM    8  CAG   D T1000      12.242  -1.897  -0.105  1.00 60.05     0.023 A 
HETATM    9  CAW   D T1000      13.130  -1.560  -1.119  1.00 61.31     0.076 A 
HETATM   10  NAH   D T1000      13.948  -0.588  -0.606  1.00 62.19    -0.326 N 
HETATM   11  CAE   D T1000      13.610  -0.298   0.673  1.00 60.17     0.060 A 
HETATM   12  CAF   D T1000      14.126   0.621   1.643  1.00 59.69     0.017 A 
HETATM   13  CAD   D T1000      12.508  -1.132   1.035  1.00 59.51     0.017 A 
HETATM   14  CAA   D T1000      13.556   0.702   2.929  1.00 60.21     0.002 A 
HETATM   15  CAB   D T1000      12.454  -0.136   3.289  1.00 60.52     0.000 A 
HETATM   16  CAC   D T1000      11.920  -1.064   2.340  1.00 59.56     0.002 A 
BRANCH  10  17
HETATM   17  CAY   D T1000      15.043   0.031  -1.365  1.00 63.29     0.108 C 
BRANCH  17  18
HETATM   18  CBA   D T1000      16.199  -0.953  -1.480  1.00 66.90     0.048 C 
BRANCH  18  19
HETATM   19  CBB   D T1000      17.247  -0.534  -0.452  1.00 68.12     0.099 C 
BRANCH  19  20
HETATM   20  NBC   D T1000      17.473  -1.542   0.614  1.00 69.41    -0.365 N 
HETATM   21  CBD   D T1000      18.781  -1.472   1.241  1.00 71.44     0.121 C 
HETATM   22  CBE   D T1000      16.521  -2.556   1.070  1.00 69.10     0.121 C 
ENDBRANCH  19  20
ENDBRANCH  18  19
ENDBRANCH  17  18
ENDBRANCH  10  17
ENDBRANCH   1   8
BRANCH   7  23
HETATM   23  CAK   D T1000       9.393  -2.005  -2.207  1.00 59.62     0.025 A 
HETATM   24  CAM   D T1000       8.826  -2.206  -3.510  1.00 60.49     0.019 A 
HETATM   25  CAP   D T1000       8.581  -3.346  -4.350  1.00 60.58     0.002 A 
HETATM   26  CAN   D T1000       8.491  -0.893  -3.919  1.00 61.04     0.081 A 
HETATM   27  CAQ   D T1000       7.992  -3.166  -5.624  1.00 59.56     0.000 A 
HETATM   28  CAR   D T1000       7.657  -1.854  -6.041  1.00 60.35     0.002 A 
HETATM   29  CAS   D T1000       7.891  -0.708  -5.216  1.00 60.55     0.019 A 
HETATM   30  NAO   D T1000       8.838  -0.014  -2.920  1.00 60.44    -0.244 NA
HETATM   31  CAL   D T1000       9.391  -0.649  -1.862  1.00 59.16     0.099 A 
ENDBRANCH   7  23
TORSDOF 6
ENDMDL
MODEL 7
REMARK VINA RESULT:    -6.703      2.072      7.218
REMARK INTER + INTRA:         -10.504
REMARK INTER:                  -8.379
REMARK INTRA:                  -2.125
REMARK UNBOUND:                -1.449
REMARK  6 active torsions:
REMARK  status: ('A' for Active; 'I' for Inactive)
REMARK    1  A    between atoms: NBC_2  and  CBB_4 
REMARK    2  A    between atoms: CBB_4  and  CBA_5 
REMARK    3  A    between atoms: CBA_5  and  CAY_6 
REMARK    4  A    between atoms: CAY_6  and  NAH_7 
REMARK    5  A    between atoms: CAG_15  and  CAI_16 
REMARK    6  A    between atoms: CAJ_22  and  CAK_23 
ROOT
HETATM    1  CAI   D T1000      11.353  -3.370  -0.436  1.00 59.57     0.064 A 
HETATM    2  CAT   D T1000      11.689  -4.807  -0.267  1.00 60.04     0.282 A 
HETATM    3  OAZ   D T1000      12.570  -5.240   0.552  1.00 63.91    -0.265 OA
HETATM    4  NAU   D T1000      10.990  -5.651  -1.046  1.00 59.30    -0.169 NA
HETATM    5  CAV   D T1000      10.176  -4.892  -1.760  1.00 59.13     0.282 A 
HETATM    6  OAX   D T1000       9.379  -5.432  -2.591  1.00 59.19    -0.265 OA
HETATM    7  CAJ   D T1000      10.292  -3.426  -1.484  1.00 59.47     0.064 A 
ENDROOT
BRANCH   1   8
HETATM    8  CAG   D T1000      11.993  -2.206   0.333  1.00 60.05     0.023 A 
HETATM    9  CAW   D T1000      11.537  -1.875   1.603  1.00 61.31     0.076 A 
HETATM   10  NAH   D T1000      12.295  -0.812   2.019  1.00 62.19    -0.326 N 
HETATM   11  CAE   D T1000      13.204  -0.468   1.075  1.00 60.17     0.060 A 
HETATM   12  CAF   D T1000      14.216   0.542   1.005  1.00 59.69     0.017 A 
HETATM   13  CAD   D T1000      13.035  -1.349  -0.037  1.00 59.51     0.017 A 
HETATM   14  CAA   D T1000      15.032   0.663  -0.137  1.00 60.21     0.002 A 
HETATM   15  CAB   D T1000      14.859  -0.219  -1.250  1.00 60.52     0.000 A 
HETATM   16  CAC   D T1000      13.854  -1.236  -1.207  1.00 59.56     0.002 A 
BRANCH  10  17
HETATM   17  CAY   D T1000      12.115  -0.148   3.317  1.00 63.29     0.108 C 
BRANCH  17  18
HETATM   18  CBA   D T1000      12.653  -1.047   4.422  1.00 66.90     0.048 C 
BRANCH  18  19
HETATM   19  CBB   D T1000      14.009  -0.480   4.838  1.00 68.12     0.099 C 
BRANCH  19  20
HETATM   20  NBC   D T1000      15.160  -1.127   4.160  1.00 69.41    -0.365 N 
HETATM   21  CBD   D T1000      14.953  -2.525   3.826  1.00 71.44     0.121 C 
HETATM   22  CBE   D T1000      16.432  -0.494   3.808  1.00 69.10     0.121 C 
ENDBRANCH  19  20
ENDBRANCH  18  19
ENDBRANCH  17  18
ENDBRANCH  10  17
ENDBRANCH   1   8
BRANCH   7  23
HETATM   23  CAK   D T1000       9.471  -2.327  -2.151  1.00 59.62     0.025 A 
HETATM   24  CAM   D T1000       9.904  -1.219  -2.953  1.00 60.49     0.019 A 
HETATM   25  CAP   D T1000      11.173  -0.737  -3.426  1.00 60.58     0.002 A 
HETATM   26  CAN   D T1000       8.693  -0.553  -3.258  1.00 61.04     0.081 A 
HETATM   27  CAQ   D T1000      11.228   0.435  -4.217  1.00 59.56     0.000 A 
HETATM   28  CAR   D T1000      10.021   1.109  -4.523  1.00 60.35     0.002 A 
HETATM   29  CAS   D T1000       8.747   0.642  -4.063  1.00 60.55     0.019 A 
HETATM   30  NAO   D T1000       7.650  -1.236  -2.676  1.00 60.44    -0.244 NA
HETATM   31  CAL   D T1000       8.081  -2.320  -1.992  1.00 59.16     0.099 A 
ENDBRANCH   7  23
TORSDOF 6
ENDMDL
MODEL 8
REMARK VINA RESULT:    -6.597     18.560     20.335
REMARK INTER + INTRA:         -10.361
REMARK INTER:                  -8.547
REMARK INTRA:                  -1.813
REMARK UNBOUND:                -1.449
REMARK  6 active torsions:
REMARK  status: ('A' for Active; 'I' for Inactive)
REMARK    1  A    between atoms: NBC_2  and  CBB_4 
REMARK    2  A    between atoms: CBB_4  and  CBA_5 
REMARK    3  A    between atoms: CBA_5  and  CAY_6 
REMARK    4  A    between atoms: CAY_6  and  NAH_7 
REMARK    5  A    between atoms: CAG_15  and  CAI_16 
REMARK    6  A    between atoms: CAJ_22  and  CAK_23 
ROOT
HETATM    1  CAI   D T1000       0.920   9.492 -14.036  1.00 59.57     0.064 A 
HETATM    2  CAT   D T1000       0.420   8.279 -14.731  1.00 60.04     0.282 A 
HETATM    3  OAZ   D T1000      -0.530   7.546 -14.291  1.00 63.91    -0.265 OA
HETATM    4  NAU   D T1000       1.042   7.988 -15.888  1.00 59.30    -0.169 NA
HETATM    5  CAV   D T1000       1.956   8.929 -16.052  1.00 59.13     0.282 A 
HETATM    6  OAX   D T1000       2.701   8.910 -17.082  1.00 59.19    -0.265 OA
HETATM    7  CAJ   D T1000       1.999   9.950 -14.959  1.00 59.47     0.064 A 
ENDROOT
BRANCH   1   8
HETATM    8  CAG   D T1000       0.382  10.048 -12.710  1.00 60.05     0.023 A 
HETATM    9  CAW   D T1000      -0.960   9.897 -12.385  1.00 61.31     0.076 A 
HETATM   10  NAH   D T1000      -1.128  10.489 -11.161  1.00 62.19    -0.326 N 
HETATM   11  CAE   D T1000       0.043  10.994 -10.704  1.00 60.17     0.060 A 
HETATM   12  CAF   D T1000       0.415  11.690  -9.509  1.00 59.69     0.017 A 
HETATM   13  CAD   D T1000       1.047  10.731 -11.686  1.00 59.51     0.017 A 
HETATM   14  CAA   D T1000       1.746  12.105  -9.305  1.00 60.21     0.002 A 
HETATM   15  CAB   D T1000       2.748  11.841 -10.291  1.00 60.52     0.000 A 
HETATM   16  CAC   D T1000       2.404  11.149 -11.494  1.00 59.56     0.002 A 
BRANCH  10  17
HETATM   17  CAY   D T1000      -2.421  10.558 -10.465  1.00 63.29     0.108 C 
BRANCH  17  18
HETATM   18  CBA   D T1000      -3.479  11.097 -11.418  1.00 66.90     0.048 C 
BRANCH  18  19
HETATM   19  CBB   D T1000      -3.341  12.619 -11.425  1.00 68.12     0.099 C 
BRANCH  19  20
HETATM   20  NBC   D T1000      -2.754  13.158 -12.677  1.00 69.41    -0.365 N 
HETATM   21  CBD   D T1000      -3.679  13.227 -13.794  1.00 71.44     0.121 C 
HETATM   22  CBE   D T1000      -1.376  13.613 -12.867  1.00 69.10     0.121 C 
ENDBRANCH  19  20
ENDBRANCH  18  19
ENDBRANCH  17  18
ENDBRANCH  10  17
ENDBRANCH   1   8
BRANCH   7  23
HETATM   23  CAK   D T1000       2.942  11.148 -14.896  1.00 59.62     0.025 A 
HETATM   24  CAM   D T1000       4.293  11.226 -14.419  1.00 60.49     0.019 A 
HETATM   25  CAP   D T1000       5.233  10.290 -13.864  1.00 60.58     0.002 A 
HETATM   26  CAN   D T1000       4.617  12.591 -14.600  1.00 61.04     0.081 A 
HETATM   27  CAQ   D T1000       6.522  10.735 -13.482  1.00 59.56     0.000 A 
HETATM   28  CAR   D T1000       6.852  12.100 -13.657  1.00 60.35     0.002 A 
HETATM   29  CAS   D T1000       5.930  13.045 -14.211  1.00 60.55     0.019 A 
HETATM   30  NAO   D T1000       3.533  13.238 -15.145  1.00 60.44    -0.244 NA
HETATM   31  CAL   D T1000       2.493  12.397 -15.339  1.00 59.16     0.099 A 
ENDBRANCH   7  23
TORSDOF 6
ENDMDL
MODEL 9
REMARK VINA RESULT:    -6.581      2.548      7.617
REMARK INTER + INTRA:         -10.339
REMARK INTER:                 -10.410
REMARK INTRA:                   0.071
REMARK UNBOUND:                -1.449
REMARK  6 active torsions:
REMARK  status: ('A' for Active; 'I' for Inactive)
REMARK    1  A    between atoms: NBC_2  and  CBB_4 
REMARK    2  A    between atoms: CBB_4  and  CBA_5 
REMARK    3  A    between atoms: CBA_5  and  CAY_6 
REMARK    4  A    between atoms: CAY_6  and  NAH_7 
REMARK    5  A    between atoms: CAG_15  and  CAI_16 
REMARK    6  A    between atoms: CAJ_22  and  CAK_23 
ROOT
HETATM    1  CAI   D T1000      10.808  -2.301  -2.568  1.00 59.57     0.064 A 
HETATM    2  CAT   D T1000      10.195  -3.651  -2.481  1.00 60.04     0.282 A 
HETATM    3  OAZ   D T1000      10.486  -4.508  -1.578  1.00 63.91    -0.265 OA
HETATM    4  NAU   D T1000       9.287  -3.927  -3.433  1.00 59.30    -0.169 NA
HETATM    5  CAV   D T1000       9.221  -2.846  -4.192  1.00 59.13     0.282 A 
HETATM    6  OAX   D T1000       8.424  -2.820  -5.183  1.00 59.19    -0.265 OA
HETATM    7  CAJ   D T1000      10.128  -1.734  -3.769  1.00 59.47     0.064 A 
ENDROOT
BRANCH   1   8
HETATM    8  CAG   D T1000      11.861  -1.733  -1.605  1.00 60.05     0.023 A 
HETATM    9  CAW   D T1000      13.002  -1.120  -2.104  1.00 61.31     0.076 A 
HETATM   10  NAH   D T1000      13.735  -0.725  -1.016  1.00 62.19    -0.326 N 
HETATM   11  CAE   D T1000      13.103  -1.056   0.136  1.00 60.17     0.060 A 
HETATM   12  CAF   D T1000      13.422  -0.876   1.521  1.00 59.69     0.017 A 
HETATM   13  CAD   D T1000      11.884  -1.718  -0.206  1.00 59.51     0.017 A 
HETATM   14  CAA   D T1000      12.550  -1.340   2.525  1.00 60.21     0.002 A 
HETATM   15  CAB   D T1000      11.331  -2.003   2.178  1.00 60.52     0.000 A 
HETATM   16  CAC   D T1000      10.988  -2.198   0.803  1.00 59.56     0.002 A 
BRANCH  10  17
HETATM   17  CAY   D T1000      15.032  -0.044  -1.116  1.00 63.29     0.108 C 
BRANCH  17  18
HETATM   18  CBA   D T1000      16.096  -1.042  -1.552  1.00 66.90     0.048 C 
BRANCH  18  19
HETATM   19  CBB   D T1000      16.935  -1.368  -0.318  1.00 68.12     0.099 C 
BRANCH  19  20
HETATM   20  NBC   D T1000      18.385  -1.107  -0.497  1.00 69.41    -0.365 N 
HETATM   21  CBD   D T1000      18.852   0.128   0.107  1.00 71.44     0.121 C 
HETATM   22  CBE   D T1000      19.343  -1.961  -1.199  1.00 69.10     0.121 C 
ENDBRANCH  19  20
ENDBRANCH  18  19
ENDBRANCH  17  18
ENDBRANCH  10  17
ENDBRANCH   1   8
BRANCH   7  23
HETATM   23  CAK   D T1000      10.248  -0.375  -4.452  1.00 59.62     0.025 A 
HETATM   24  CAM   D T1000       9.393   0.240  -5.426  1.00 60.49     0.019 A 
HETATM   25  CAP   D T1000       8.174  -0.132  -6.091  1.00 60.58     0.002 A 
HETATM   26  CAN   D T1000      10.038   1.473  -5.684  1.00 61.04     0.081 A 
HETATM   27  CAQ   D T1000       7.593   0.750  -7.034  1.00 59.56     0.000 A 
HETATM   28  CAR   D T1000       8.234   1.984  -7.300  1.00 60.35     0.002 A 
HETATM   29  CAS   D T1000       9.446   2.372  -6.644  1.00 60.55     0.019 A 
HETATM   30  NAO   D T1000      11.171   1.554  -4.909  1.00 60.44    -0.244 NA
HETATM   31  CAL   D T1000      11.337   0.450  -4.147  1.00 59.16     0.099 A 
ENDBRANCH   7  23
TORSDOF 6
ENDMDL
