MODEL 1
REMARK VINA RESULT:    -8.039      0.000      0.000
REMARK INTER + INTRA:         -12.406
REMARK INTER:                 -10.858
REMARK INTRA:                  -1.548
REMARK UNBOUND:                -1.548
REMARK  6 active torsions:
REMARK  status: ('A' for Active; 'I' for Inactive)
REMARK    1  A    between atoms: NBC_2  and  CBB_4 
REMARK    2  A    between atoms: CBB_4  and  CBA_5 
REMARK    3  A    between atoms: CBA_5  and  CAY_6 
REMARK    4  A    between atoms: CAY_6  and  NAH_7 
REMARK    5  A    between atoms: CAG_15  and  CAI_16 
REMARK    6  A    between atoms: CAJ_22  and  CAK_23 
ROOT
HETATM    1  CAI   D T1000       2.439   8.288   6.291  1.00 59.57     0.064 A 
HETATM    2  CAT   D T1000       1.552   9.323   5.701  1.00 60.04     0.282 A 
HETATM    3  OAZ   D T1000       0.304   9.424   5.962  1.00 63.91    -0.265 OA
HETATM    4  NAU   D T1000       2.156  10.175   4.855  1.00 59.30    -0.169 NA
HETATM    5  CAV   D T1000       3.423   9.803   4.811  1.00 59.13     0.282 A 
HETATM    6  OAX   D T1000       4.243  10.445   4.083  1.00 59.19    -0.265 OA
HETATM    7  CAJ   D T1000       3.752   8.620   5.667  1.00 59.47     0.064 A 
ENDROOT
BRANCH   1   8
HETATM    8  CAG   D T1000       2.006   7.203   7.287  1.00 60.05     0.023 A 
HETATM    9  CAW   D T1000       2.788   6.929   8.402  1.00 61.31     0.076 A 
HETATM   10  NAH   D T1000       2.148   5.928   9.084  1.00 62.19    -0.326 N 
HETATM   11  CAE   D T1000       1.003   5.570   8.456  1.00 60.17     0.060 A 
HETATM   12  CAF   D T1000      -0.016   4.607   8.740  1.00 59.69     0.017 A 
HETATM   13  CAD   D T1000       0.879   6.374   7.281  1.00 59.51     0.017 A 
HETATM   14  CAA   D T1000      -1.120   4.453   7.879  1.00 60.21     0.002 A 
HETATM   15  CAB   D T1000      -1.240   5.258   6.703  1.00 60.52     0.000 A 
HETATM   16  CAC   D T1000      -0.236   6.228   6.394  1.00 59.56     0.002 A 
BRANCH  10  17
HETATM   17  CAY   D T1000       2.665   5.337  10.328  1.00 63.29     0.108 C 
BRANCH  17  18
HETATM   18  CBA   D T1000       3.356   4.018  10.011  1.00 66.90     0.048 C 
BRANCH  18  19
HETATM   19  CBB   D T1000       4.621   3.959  10.865  1.00 68.12     0.099 C 
BRANCH  19  20
HETATM   20  NBC   D T1000       5.870   4.181  10.096  1.00 69.41    -0.365 N 
HETATM   21  CBD   D T1000       7.089   3.950  10.850  1.00 71.44     0.121 C 
HETATM   22  CBE   D T1000       5.968   4.591   8.694  1.00 69.10     0.121 C 
ENDBRANCH  19  20
ENDBRANCH  18  19
ENDBRANCH  17  18
ENDBRANCH  10  17
ENDBRANCH   1   8
BRANCH   7  23
HETATM   23  CAK   D T1000       5.132   7.987   5.816  1.00 59.62     0.025 A 
HETATM   24  CAM   D T1000       6.323   8.518   6.415  1.00 60.49     0.019 A 
HETATM   25  CAP   D T1000       6.672   9.749   7.073  1.00 60.58     0.002 A 
HETATM   26  CAN   D T1000       7.266   7.479   6.229  1.00 61.04     0.081 A 
HETATM   27  CAQ   D T1000       7.990   9.941   7.548  1.00 59.56     0.000 A 
HETATM   28  CAR   D T1000       8.940   8.907   7.361  1.00 60.35     0.002 A 
HETATM   29  CAS   D T1000       8.610   7.673   6.713  1.00 60.55     0.019 A 
HETATM   30  NAO   D T1000       6.654   6.435   5.577  1.00 60.44    -0.244 NA
HETATM   31  CAL   D T1000       5.355   6.703   5.306  1.00 59.16     0.099 A 
ENDBRANCH   7  23
TORSDOF 6
ENDMDL
MODEL 2
REMARK VINA RESULT:    -7.947      2.513      7.606
REMARK INTER + INTRA:         -12.282
REMARK INTER:                 -11.744
REMARK INTRA:                  -0.538
REMARK UNBOUND:                -1.548
REMARK  6 active torsions:
REMARK  status: ('A' for Active; 'I' for Inactive)
REMARK    1  A    between atoms: NBC_2  and  CBB_4 
REMARK    2  A    between atoms: CBB_4  and  CBA_5 
REMARK    3  A    between atoms: CBA_5  and  CAY_6 
REMARK    4  A    between atoms: CAY_6  and  NAH_7 
REMARK    5  A    between atoms: CAG_15  and  CAI_16 
REMARK    6  A    between atoms: CAJ_22  and  CAK_23 
ROOT
HETATM    1  CAI   D T1000       1.098   7.836   6.249  1.00 59.57     0.064 A 
HETATM    2  CAT   D T1000      -0.302   8.010   5.783  1.00 60.04     0.282 A 
HETATM    3  OAZ   D T1000      -0.625   8.641   4.719  1.00 63.91    -0.265 OA
HETATM    4  NAU   D T1000      -1.236   7.445   6.567  1.00 59.30    -0.169 NA
HETATM    5  CAV   D T1000      -0.579   6.879   7.564  1.00 59.13     0.282 A 
HETATM    6  OAX   D T1000      -1.218   6.256   8.468  1.00 59.19    -0.265 OA
HETATM    7  CAJ   D T1000       0.908   7.045   7.499  1.00 59.47     0.064 A 
ENDROOT
BRANCH   1   8
HETATM    8  CAG   D T1000       2.349   8.371   5.538  1.00 60.05     0.023 A 
HETATM    9  CAW   D T1000       2.307   9.594   4.881  1.00 61.31     0.076 A 
HETATM   10  NAH   D T1000       3.557   9.790   4.354  1.00 62.19    -0.326 N 
HETATM   11  CAE   D T1000       4.377   8.756   4.656  1.00 60.17     0.060 A 
HETATM   12  CAF   D T1000       5.748   8.469   4.365  1.00 59.69     0.017 A 
HETATM   13  CAD   D T1000       3.626   7.811   5.421  1.00 59.51     0.017 A 
HETATM   14  CAA   D T1000       6.347   7.279   4.823  1.00 60.21     0.002 A 
HETATM   15  CAB   D T1000       5.591   6.335   5.587  1.00 60.52     0.000 A 
HETATM   16  CAC   D T1000       4.219   6.595   5.892  1.00 59.56     0.002 A 
BRANCH  10  17
HETATM   17  CAY   D T1000       3.926  10.975   3.564  1.00 63.29     0.108 C 
BRANCH  17  18
HETATM   18  CBA   D T1000       3.507  10.766   2.116  1.00 66.90     0.048 C 
BRANCH  18  19
HETATM   19  CBB   D T1000       2.450  11.822   1.799  1.00 68.12     0.099 C 
BRANCH  19  20
HETATM   20  NBC   D T1000       1.953  11.769   0.402  1.00 69.41    -0.365 N 
HETATM   21  CBD   D T1000       0.810  12.624   0.138  1.00 71.44     0.121 C 
HETATM   22  CBE   D T1000       2.503  10.960  -0.687  1.00 69.10     0.121 C 
ENDBRANCH  19  20
ENDBRANCH  18  19
ENDBRANCH  17  18
ENDBRANCH  10  17
ENDBRANCH   1   8
BRANCH   7  23
HETATM   23  CAK   D T1000       1.909   6.487   8.505  1.00 59.62     0.025 A 
HETATM   24  CAM   D T1000       1.871   5.263   9.252  1.00 60.49     0.019 A 
HETATM   25  CAP   D T1000       0.962   4.152   9.343  1.00 60.58     0.002 A 
HETATM   26  CAN   D T1000       3.058   5.320  10.022  1.00 61.04     0.081 A 
HETATM   27  CAQ   D T1000       1.248   3.082  10.223  1.00 59.56     0.000 A 
HETATM   28  CAR   D T1000       2.433   3.134  10.999  1.00 60.35     0.002 A 
HETATM   29  CAS   D T1000       3.351   4.230  10.918  1.00 60.55     0.019 A 
HETATM   30  NAO   D T1000       3.722   6.488   9.729  1.00 60.44    -0.244 NA
HETATM   31  CAL   D T1000       3.057   7.228   8.812  1.00 59.16     0.099 A 
ENDBRANCH   7  23
TORSDOF 6
ENDMDL
MODEL 3
REMARK VINA RESULT:    -7.707      2.212      5.140
REMARK INTER + INTRA:         -11.958
REMARK INTER:                 -11.010
REMARK INTRA:                  -0.948
REMARK UNBOUND:                -1.548
REMARK  6 active torsions:
REMARK  status: ('A' for Active; 'I' for Inactive)
REMARK    1  A    between atoms: NBC_2  and  CBB_4 
REMARK    2  A    between atoms: CBB_4  and  CBA_5 
REMARK    3  A    between atoms: CBA_5  and  CAY_6 
REMARK    4  A    between atoms: CAY_6  and  NAH_7 
REMARK    5  A    between atoms: CAG_15  and  CAI_16 
REMARK    6  A    between atoms: CAJ_22  and  CAK_23 
ROOT
HETATM    1  CAI   D T1000       0.385   6.345   6.652  1.00 59.57     0.064 A 
HETATM    2  CAT   D T1000      -0.804   5.458   6.586  1.00 60.04     0.282 A 
HETATM    3  OAZ   D T1000      -0.913   4.364   7.240  1.00 63.91    -0.265 OA
HETATM    4  NAU   D T1000      -1.789   5.886   5.779  1.00 59.30    -0.169 NA
HETATM    5  CAV   D T1000      -1.367   7.029   5.267  1.00 59.13     0.282 A 
HETATM    6  OAX   D T1000      -2.109   7.671   4.461  1.00 59.19    -0.265 OA
HETATM    7  CAJ   D T1000      -0.004   7.448   5.727  1.00 59.47     0.064 A 
ENDROOT
BRANCH   1   8
HETATM    8  CAG   D T1000       1.640   6.095   7.500  1.00 60.05     0.023 A 
HETATM    9  CAW   D T1000       2.844   6.698   7.159  1.00 61.31     0.076 A 
HETATM   10  NAH   D T1000       3.760   6.285   8.090  1.00 62.19    -0.326 N 
HETATM   11  CAE   D T1000       3.186   5.462   9.000  1.00 60.17     0.060 A 
HETATM   12  CAF   D T1000       3.679   4.774  10.153  1.00 59.69     0.017 A 
HETATM   13  CAD   D T1000       1.810   5.311   8.647  1.00 59.51     0.017 A 
HETATM   14  CAA   D T1000       2.825   3.964  10.927  1.00 60.21     0.002 A 
HETATM   15  CAB   D T1000       1.449   3.813  10.569  1.00 60.52     0.000 A 
HETATM   16  CAC   D T1000       0.929   4.488   9.421  1.00 59.56     0.002 A 
BRANCH  10  17
HETATM   17  CAY   D T1000       5.172   6.694   8.074  1.00 63.29     0.108 C 
BRANCH  17  18
HETATM   18  CBA   D T1000       5.842   6.146   6.821  1.00 66.90     0.048 C 
BRANCH  18  19
HETATM   19  CBB   D T1000       6.989   7.093   6.476  1.00 68.12     0.099 C 
BRANCH  19  20
HETATM   20  NBC   D T1000       6.611   8.167   5.526  1.00 69.41    -0.365 N 
HETATM   21  CBD   D T1000       6.996   7.916   4.149  1.00 71.44     0.121 C 
HETATM   22  CBE   D T1000       5.904   9.407   5.852  1.00 69.10     0.121 C 
ENDBRANCH  19  20
ENDBRANCH  18  19
ENDBRANCH  17  18
ENDBRANCH  10  17
ENDBRANCH   1   8
BRANCH   7  23
HETATM   23  CAK   D T1000       0.722   8.722   5.309  1.00 59.62     0.025 A 
HETATM   24  CAM   D T1000       1.828   8.893   4.411  1.00 60.49     0.019 A 
HETATM   25  CAP   D T1000       2.627   8.014   3.599  1.00 60.58     0.002 A 
HETATM   26  CAN   D T1000       2.061  10.288   4.450  1.00 61.04     0.081 A 
HETATM   27  CAQ   D T1000       3.679   8.546   2.817  1.00 59.56     0.000 A 
HETATM   28  CAR   D T1000       3.920   9.941   2.855  1.00 60.35     0.002 A 
HETATM   29  CAS   D T1000       3.132  10.831   3.654  1.00 60.55     0.019 A 
HETATM   30  NAO   D T1000       1.151  10.867   5.304  1.00 60.44    -0.244 NA
HETATM   31  CAL   D T1000       0.318   9.949   5.848  1.00 59.16     0.099 A 
ENDBRANCH   7  23
TORSDOF 6
ENDMDL
MODEL 4
REMARK VINA RESULT:    -7.671      1.901      5.622
REMARK INTER + INTRA:         -11.909
REMARK INTER:                 -11.275
REMARK INTRA:                  -0.635
REMARK UNBOUND:                -1.548
REMARK  6 active torsions:
REMARK  status: ('A' for Active; 'I' for Inactive)
REMARK    1  A    between atoms: NBC_2  and  CBB_4 
REMARK    2  A    between atoms: CBB_4  and  CBA_5 
REMARK    3  A    between atoms: CBA_5  and  CAY_6 
REMARK    4  A    between atoms: CAY_6  and  NAH_7 
REMARK    5  A    between atoms: CAG_15  and  CAI_16 
REMARK    6  A    between atoms: CAJ_22  and  CAK_23 
ROOT
HETATM    1  CAI   D T1000       1.792   8.061   6.309  1.00 59.57     0.064 A 
HETATM    2  CAT   D T1000       1.136   9.239   5.685  1.00 60.04     0.282 A 
HETATM    3  OAZ   D T1000       1.771  10.179   5.095  1.00 63.91    -0.265 OA
HETATM    4  NAU   D T1000      -0.205   9.257   5.776  1.00 59.30    -0.169 NA
HETATM    5  CAV   D T1000      -0.539   8.158   6.429  1.00 59.13     0.282 A 
HETATM    6  OAX   D T1000      -1.763   7.907   6.657  1.00 59.19    -0.265 OA
HETATM    7  CAJ   D T1000       0.621   7.302   6.834  1.00 59.47     0.064 A 
ENDROOT
BRANCH   1   8
HETATM    8  CAG   D T1000       3.303   7.792   6.339  1.00 60.05     0.023 A 
HETATM    9  CAW   D T1000       3.909   7.351   7.508  1.00 61.31     0.076 A 
HETATM   10  NAH   D T1000       5.241   7.207   7.220  1.00 62.19    -0.326 N 
HETATM   11  CAE   D T1000       5.494   7.529   5.929  1.00 60.17     0.060 A 
HETATM   12  CAF   D T1000       6.683   7.546   5.134  1.00 59.69     0.017 A 
HETATM   13  CAD   D T1000       4.260   7.919   5.325  1.00 59.51     0.017 A 
HETATM   14  CAA   D T1000       6.639   7.939   3.782  1.00 60.21     0.002 A 
HETATM   15  CAB   D T1000       5.402   8.331   3.182  1.00 60.52     0.000 A 
HETATM   16  CAC   D T1000       4.198   8.324   3.953  1.00 59.56     0.002 A 
BRANCH  10  17
HETATM   17  CAY   D T1000       6.239   6.766   8.206  1.00 63.29     0.108 C 
BRANCH  17  18
HETATM   18  CBA   D T1000       6.105   5.265   8.424  1.00 66.90     0.048 C 
BRANCH  18  19
HETATM   19  CBB   D T1000       7.289   4.603   7.723  1.00 68.12     0.099 C 
BRANCH  19  20
HETATM   20  NBC   D T1000       8.535   4.600   8.529  1.00 69.41    -0.365 N 
HETATM   21  CBD   D T1000       9.757   4.639   7.748  1.00 71.44     0.121 C 
HETATM   22  CBE   D T1000       8.625   4.569   9.990  1.00 69.10     0.121 C 
ENDBRANCH  19  20
ENDBRANCH  18  19
ENDBRANCH  17  18
ENDBRANCH  10  17
ENDBRANCH   1   8
BRANCH   7  23
HETATM   23  CAK   D T1000       0.528   5.977   7.585  1.00 59.62     0.025 A 
HETATM   24  CAM   D T1000       1.319   5.487   8.677  1.00 60.49     0.019 A 
HETATM   25  CAP   D T1000       2.417   6.000   9.452  1.00 60.58     0.002 A 
HETATM   26  CAN   D T1000       0.772   4.204   8.919  1.00 61.04     0.081 A 
HETATM   27  CAQ   D T1000       2.976   5.211  10.484  1.00 59.56     0.000 A 
HETATM   28  CAR   D T1000       2.435   3.925  10.730  1.00 60.35     0.002 A 
HETATM   29  CAS   D T1000       1.339   3.400   9.971  1.00 60.55     0.019 A 
HETATM   30  NAO   D T1000      -0.257   3.986   8.033  1.00 60.44    -0.244 NA
HETATM   31  CAL   D T1000      -0.438   5.039   7.203  1.00 59.16     0.099 A 
ENDBRANCH   7  23
TORSDOF 6
ENDMDL
MODEL 5
REMARK VINA RESULT:    -7.632      2.357      4.967
REMARK INTER + INTRA:         -11.857
REMARK INTER:                 -10.232
REMARK INTRA:                  -1.625
REMARK UNBOUND:                -1.548
REMARK  6 active torsions:
REMARK  status: ('A' for Active; 'I' for Inactive)
REMARK    1  A    between atoms: NBC_2  and  CBB_4 
REMARK    2  A    between atoms: CBB_4  and  CBA_5 
REMARK    3  A    between atoms: CBA_5  and  CAY_6 
REMARK    4  A    between atoms: CAY_6  and  NAH_7 
REMARK    5  A    between atoms: CAG_15  and  CAI_16 
REMARK    6  A    between atoms: CAJ_22  and  CAK_23 
ROOT
HETATM    1  CAI   D T1000       3.016   6.149   8.220  1.00 59.57     0.064 A 
HETATM    2  CAT   D T1000       2.537   5.345   9.374  1.00 60.04     0.282 A 
HETATM    3  OAZ   D T1000       1.314   5.287   9.742  1.00 63.91    -0.265 OA
HETATM    4  NAU   D T1000       3.492   4.659  10.024  1.00 59.30    -0.169 NA
HETATM    5  CAV   D T1000       4.623   4.930   9.398  1.00 59.13     0.282 A 
HETATM    6  OAX   D T1000       5.708   4.404   9.798  1.00 59.19    -0.265 OA
HETATM    7  CAJ   D T1000       4.479   5.862   8.234  1.00 59.47     0.064 A 
ENDROOT
BRANCH   1   8
HETATM    8  CAG   D T1000       2.135   7.013   7.307  1.00 60.05     0.023 A 
HETATM    9  CAW   D T1000       2.565   8.274   6.914  1.00 61.31     0.076 A 
HETATM   10  NAH   D T1000       1.575   8.788   6.118  1.00 62.19    -0.326 N 
HETATM   11  CAE   D T1000       0.554   7.909   5.989  1.00 60.17     0.060 A 
HETATM   12  CAF   D T1000      -0.690   7.942   5.283  1.00 59.69     0.017 A 
HETATM   13  CAD   D T1000       0.879   6.745   6.751  1.00 59.51     0.017 A 
HETATM   14  CAA   D T1000      -1.577   6.849   5.337  1.00 60.21     0.002 A 
HETATM   15  CAB   D T1000      -1.249   5.687   6.103  1.00 60.52     0.000 A 
HETATM   16  CAC   D T1000      -0.014   5.627   6.819  1.00 59.56     0.002 A 
BRANCH  10  17
HETATM   17  CAY   D T1000       1.640  10.124   5.506  1.00 63.29     0.108 C 
BRANCH  17  18
HETATM   18  CBA   D T1000       2.157  10.000   4.079  1.00 66.90     0.048 C 
BRANCH  18  19
HETATM   19  CBB   D T1000       3.579  10.557   4.068  1.00 68.12     0.099 C 
BRANCH  19  20
HETATM   20  NBC   D T1000       4.618   9.535   3.786  1.00 69.41    -0.365 N 
HETATM   21  CBD   D T1000       5.944   9.877   4.268  1.00 71.44     0.121 C 
HETATM   22  CBE   D T1000       4.420   8.261   3.095  1.00 69.10     0.121 C 
ENDBRANCH  19  20
ENDBRANCH  18  19
ENDBRANCH  17  18
ENDBRANCH  10  17
ENDBRANCH   1   8
BRANCH   7  23
HETATM   23  CAK   D T1000       5.612   6.335   7.328  1.00 59.62     0.025 A 
HETATM   24  CAM   D T1000       6.811   7.049   7.659  1.00 60.49     0.019 A 
HETATM   25  CAP   D T1000       7.394   7.556   8.873  1.00 60.58     0.002 A 
HETATM   26  CAN   D T1000       7.444   7.214   6.404  1.00 61.04     0.081 A 
HETATM   27  CAQ   D T1000       8.630   8.243   8.824  1.00 59.56     0.000 A 
HETATM   28  CAR   D T1000       9.266   8.414   7.570  1.00 60.35     0.002 A 
HETATM   29  CAS   D T1000       8.703   7.912   6.352  1.00 60.55     0.019 A 
HETATM   30  NAO   D T1000       6.662   6.631   5.434  1.00 60.44    -0.244 NA
HETATM   31  CAL   D T1000       5.538   6.086   5.953  1.00 59.16     0.099 A 
ENDBRANCH   7  23
TORSDOF 6
ENDMDL
MODEL 6
REMARK VINA RESULT:    -7.620      2.385      4.875
REMARK INTER + INTRA:         -11.841
REMARK INTER:                 -10.655
REMARK INTRA:                  -1.186
REMARK UNBOUND:                -1.548
REMARK  6 active torsions:
REMARK  status: ('A' for Active; 'I' for Inactive)
REMARK    1  A    between atoms: NBC_2  and  CBB_4 
REMARK    2  A    between atoms: CBB_4  and  CBA_5 
REMARK    3  A    between atoms: CBA_5  and  CAY_6 
REMARK    4  A    between atoms: CAY_6  and  NAH_7 
REMARK    5  A    between atoms: CAG_15  and  CAI_16 
REMARK    6  A    between atoms: CAJ_22  and  CAK_23 
ROOT
HETATM    1  CAI   D T1000       1.740   5.960   7.912  1.00 59.57     0.064 A 
HETATM    2  CAT   D T1000       0.361   5.435   8.083  1.00 60.04     0.282 A 
HETATM    3  OAZ   D T1000       0.082   4.359   8.715  1.00 63.91    -0.265 OA
HETATM    4  NAU   D T1000      -0.605   6.181   7.521  1.00 59.30    -0.169 NA
HETATM    5  CAV   D T1000       0.009   7.207   6.960  1.00 59.13     0.282 A 
HETATM    6  OAX   D T1000      -0.669   8.093   6.353  1.00 59.19    -0.265 OA
HETATM    7  CAJ   D T1000       1.498   7.202   7.123  1.00 59.47     0.064 A 
ENDROOT
BRANCH   1   8
HETATM    8  CAG   D T1000       3.018   5.309   8.459  1.00 60.05     0.023 A 
HETATM    9  CAW   D T1000       2.970   4.543   9.616  1.00 61.31     0.076 A 
HETATM   10  NAH   D T1000       4.249   4.109   9.844  1.00 62.19    -0.326 N 
HETATM   11  CAE   D T1000       5.091   4.559   8.883  1.00 60.17     0.060 A 
HETATM   12  CAF   D T1000       6.493   4.398   8.648  1.00 59.69     0.017 A 
HETATM   13  CAD   D T1000       4.328   5.347   7.968  1.00 59.51     0.017 A 
HETATM   14  CAA   D T1000       7.110   5.003   7.536  1.00 60.21     0.002 A 
HETATM   15  CAB   D T1000       6.344   5.793   6.623  1.00 60.52     0.000 A 
HETATM   16  CAC   D T1000       4.941   5.972   6.834  1.00 59.56     0.002 A 
BRANCH  10  17
HETATM   17  CAY   D T1000       4.628   3.271  10.992  1.00 63.29     0.108 C 
BRANCH  17  18
HETATM   18  CBA   D T1000       5.019   4.164  12.161  1.00 66.90     0.048 C 
BRANCH  18  19
HETATM   19  CBB   D T1000       6.515   3.962  12.397  1.00 68.12     0.099 C 
BRANCH  19  20
HETATM   20  NBC   D T1000       6.993   4.509  13.691  1.00 69.41    -0.365 N 
HETATM   21  CBD   D T1000       6.630   3.715  14.851  1.00 71.44     0.121 C 
HETATM   22  CBE   D T1000       7.775   5.732  13.884  1.00 69.10     0.121 C 
ENDBRANCH  19  20
ENDBRANCH  18  19
ENDBRANCH  17  18
ENDBRANCH  10  17
ENDBRANCH   1   8
BRANCH   7  23
HETATM   23  CAK   D T1000       2.454   8.265   6.590  1.00 59.62     0.025 A 
HETATM   24  CAM   D T1000       2.658   8.722   5.246  1.00 60.49     0.019 A 
HETATM   25  CAP   D T1000       2.087   8.404   3.963  1.00 60.58     0.002 A 
HETATM   26  CAN   D T1000       3.678   9.692   5.387  1.00 61.04     0.081 A 
HETATM   27  CAQ   D T1000       2.552   9.070   2.805  1.00 59.56     0.000 A 
HETATM   28  CAR   D T1000       3.576  10.040   2.939  1.00 60.35     0.002 A 
HETATM   29  CAS   D T1000       4.152  10.372   4.208  1.00 60.55     0.019 A 
HETATM   30  NAO   D T1000       4.024   9.783   6.715  1.00 60.44    -0.244 NA
HETATM   31  CAL   D T1000       3.304   8.930   7.481  1.00 59.16     0.099 A 
ENDBRANCH   7  23
TORSDOF 6
ENDMDL
MODEL 7
REMARK VINA RESULT:    -7.480      2.541      5.558
REMARK INTER + INTRA:         -11.652
REMARK INTER:                 -10.723
REMARK INTRA:                  -0.929
REMARK UNBOUND:                -1.548
REMARK  6 active torsions:
REMARK  status: ('A' for Active; 'I' for Inactive)
REMARK    1  A    between atoms: NBC_2  and  CBB_4 
REMARK    2  A    between atoms: CBB_4  and  CBA_5 
REMARK    3  A    between atoms: CBA_5  and  CAY_6 
REMARK    4  A    between atoms: CAY_6  and  NAH_7 
REMARK    5  A    between atoms: CAG_15  and  CAI_16 
REMARK    6  A    between atoms: CAJ_22  and  CAK_23 
ROOT
HETATM    1  CAI   D T1000       3.327   5.795   8.512  1.00 59.57     0.064 A 
HETATM    2  CAT   D T1000       2.852   4.763   9.468  1.00 60.04     0.282 A 
HETATM    3  OAZ   D T1000       1.618   4.530   9.709  1.00 63.91    -0.265 OA
HETATM    4  NAU   D T1000       3.824   4.065  10.080  1.00 59.30    -0.169 NA
HETATM    5  CAV   D T1000       4.962   4.543   9.613  1.00 59.13     0.282 A 
HETATM    6  OAX   D T1000       6.064   4.057  10.018  1.00 59.19    -0.265 OA
HETATM    7  CAJ   D T1000       4.808   5.646   8.612  1.00 59.47     0.064 A 
ENDROOT
BRANCH   1   8
HETATM    8  CAG   D T1000       2.430   6.722   7.679  1.00 60.05     0.023 A 
HETATM    9  CAW   D T1000       2.852   8.008   7.370  1.00 61.31     0.076 A 
HETATM   10  NAH   D T1000       1.849   8.576   6.630  1.00 62.19    -0.326 N 
HETATM   11  CAE   D T1000       0.826   7.706   6.456  1.00 60.17     0.060 A 
HETATM   12  CAF   D T1000      -0.430   7.787   5.775  1.00 59.69     0.017 A 
HETATM   13  CAD   D T1000       1.165   6.491   7.127  1.00 59.51     0.017 A 
HETATM   14  CAA   D T1000      -1.315   6.691   5.765  1.00 60.21     0.002 A 
HETATM   15  CAB   D T1000      -0.973   5.477   6.440  1.00 60.52     0.000 A 
HETATM   16  CAC   D T1000       0.275   5.368   7.129  1.00 59.56     0.002 A 
BRANCH  10  17
HETATM   17  CAY   D T1000       1.902   9.952   6.114  1.00 63.29     0.108 C 
BRANCH  17  18
HETATM   18  CBA   D T1000       3.112  10.104   5.204  1.00 66.90     0.048 C 
BRANCH  18  19
HETATM   19  CBB   D T1000       2.652   9.768   3.787  1.00 68.12     0.099 C 
BRANCH  19  20
HETATM   20  NBC   D T1000       3.321  10.573   2.736  1.00 69.41    -0.365 N 
HETATM   21  CBD   D T1000       4.531  11.246   3.172  1.00 71.44     0.121 C 
HETATM   22  CBE   D T1000       2.879  10.734   1.350  1.00 69.10     0.121 C 
ENDBRANCH  19  20
ENDBRANCH  18  19
ENDBRANCH  17  18
ENDBRANCH  10  17
ENDBRANCH   1   8
BRANCH   7  23
HETATM   23  CAK   D T1000       5.948   6.371   7.904  1.00 59.62     0.025 A 
HETATM   24  CAM   D T1000       6.029   6.852   6.555  1.00 60.49     0.019 A 
HETATM   25  CAP   D T1000       5.144   6.860   5.421  1.00 60.58     0.002 A 
HETATM   26  CAN   D T1000       7.329   7.408   6.489  1.00 61.04     0.081 A 
HETATM   27  CAQ   D T1000       5.573   7.433   4.201  1.00 59.56     0.000 A 
HETATM   28  CAR   D T1000       6.875   7.988   4.128  1.00 60.35     0.002 A 
HETATM   29  CAS   D T1000       7.767   7.993   5.248  1.00 60.55     0.019 A 
HETATM   30  NAO   D T1000       7.938   7.257   7.713  1.00 60.44    -0.244 NA
HETATM   31  CAL   D T1000       7.133   6.630   8.602  1.00 59.16     0.099 A 
ENDBRANCH   7  23
TORSDOF 6
ENDMDL
MODEL 8
REMARK VINA RESULT:    -7.477      2.750      5.369
REMARK INTER + INTRA:         -11.648
REMARK INTER:                 -10.041
REMARK INTRA:                  -1.607
REMARK UNBOUND:                -1.548
REMARK  6 active torsions:
REMARK  status: ('A' for Active; 'I' for Inactive)
REMARK    1  A    between atoms: NBC_2  and  CBB_4 
REMARK    2  A    between atoms: CBB_4  and  CBA_5 
REMARK    3  A    between atoms: CBA_5  and  CAY_6 
REMARK    4  A    between atoms: CAY_6  and  NAH_7 
REMARK    5  A    between atoms: CAG_15  and  CAI_16 
REMARK    6  A    between atoms: CAJ_22  and  CAK_23 
ROOT
HETATM    1  CAI   D T1000       3.512   5.143   9.382  1.00 59.57     0.064 A 
HETATM    2  CAT   D T1000       2.666   4.443  10.382  1.00 60.04     0.282 A 
HETATM    3  OAZ   D T1000       1.416   4.665  10.538  1.00 63.91    -0.265 OA
HETATM    4  NAU   D T1000       3.309   3.533  11.133  1.00 59.30    -0.169 NA
HETATM    5  CAV   D T1000       4.565   3.547  10.723  1.00 59.13     0.282 A 
HETATM    6  OAX   D T1000       5.413   2.769  11.262  1.00 59.19    -0.265 OA
HETATM    7  CAJ   D T1000       4.846   4.520   9.619  1.00 59.47     0.064 A 
ENDROOT
BRANCH   1   8
HETATM    8  CAG   D T1000       3.028   6.217   8.397  1.00 60.05     0.023 A 
HETATM    9  CAW   D T1000       3.805   7.342   8.154  1.00 61.31     0.076 A 
HETATM   10  NAH   D T1000       3.113   8.100   7.247  1.00 62.19    -0.326 N 
HETATM   11  CAE   D T1000       1.947   7.501   6.906  1.00 60.17     0.060 A 
HETATM   12  CAF   D T1000       0.883   7.853   6.017  1.00 59.69     0.017 A 
HETATM   13  CAD   D T1000       1.854   6.276   7.637  1.00 59.51     0.017 A 
HETATM   14  CAA   D T1000      -0.236   7.010   5.865  1.00 60.21     0.002 A 
HETATM   15  CAB   D T1000      -0.326   5.786   6.600  1.00 60.52     0.000 A 
HETATM   16  CAC   D T1000       0.723   5.410   7.496  1.00 59.56     0.002 A 
BRANCH  10  17
HETATM   17  CAY   D T1000       3.595   9.391   6.735  1.00 63.29     0.108 C 
BRANCH  17  18
HETATM   18  CBA   D T1000       4.128   9.207   5.321  1.00 66.90     0.048 C 
BRANCH  18  19
HETATM   19  CBB   D T1000       5.609   9.575   5.349  1.00 68.12     0.099 C 
BRANCH  19  20
HETATM   20  NBC   D T1000       6.496   8.451   5.736  1.00 69.41    -0.365 N 
HETATM   21  CBD   D T1000       6.370   7.270   4.902  1.00 71.44     0.121 C 
HETATM   22  CBE   D T1000       7.453   8.439   6.844  1.00 69.10     0.121 C 
ENDBRANCH  19  20
ENDBRANCH  18  19
ENDBRANCH  17  18
ENDBRANCH  10  17
ENDBRANCH   1   8
BRANCH   7  23
HETATM   23  CAK   D T1000       6.199   4.737   8.949  1.00 59.62     0.025 A 
HETATM   24  CAM   D T1000       7.475   5.027   9.536  1.00 60.49     0.019 A 
HETATM   25  CAP   D T1000       7.964   5.202  10.878  1.00 60.58     0.002 A 
HETATM   26  CAN   D T1000       8.328   5.138   8.412  1.00 61.04     0.081 A 
HETATM   27  CAQ   D T1000       9.331   5.497  11.093  1.00 59.56     0.000 A 
HETATM   28  CAR   D T1000      10.189   5.613   9.972  1.00 60.35     0.002 A 
HETATM   29  CAS   D T1000       9.720   5.437   8.630  1.00 60.55     0.019 A 
HETATM   30  NAO   D T1000       7.590   4.922   7.272  1.00 60.44    -0.244 NA
HETATM   31  CAL   D T1000       6.289   4.676   7.554  1.00 59.16     0.099 A 
ENDBRANCH   7  23
TORSDOF 6
ENDMDL
MODEL 9
REMARK VINA RESULT:    -7.333      2.415      7.733
REMARK INTER + INTRA:         -11.453
REMARK INTER:                  -9.961
REMARK INTRA:                  -1.492
REMARK UNBOUND:                -1.548
REMARK  6 active torsions:
REMARK  status: ('A' for Active; 'I' for Inactive)
REMARK    1  A    between atoms: NBC_2  and  CBB_4 
REMARK    2  A    between atoms: CBB_4  and  CBA_5 
REMARK    3  A    between atoms: CBA_5  and  CAY_6 
REMARK    4  A    between atoms: CAY_6  and  NAH_7 
REMARK    5  A    between atoms: CAG_15  and  CAI_16 
REMARK    6  A    between atoms: CAJ_22  and  CAK_23 
ROOT
HETATM    1  CAI   D T1000       4.737   6.118   7.884  1.00 59.57     0.064 A 
HETATM    2  CAT   D T1000       4.984   5.080   8.918  1.00 60.04     0.282 A 
HETATM    3  OAZ   D T1000       6.145   4.634   9.217  1.00 63.91    -0.265 OA
HETATM    4  NAU   D T1000       3.883   4.627   9.542  1.00 59.30    -0.169 NA
HETATM    5  CAV   D T1000       2.869   5.284   9.010  1.00 59.13     0.282 A 
HETATM    6  OAX   D T1000       1.687   5.059   9.420  1.00 59.19    -0.265 OA
HETATM    7  CAJ   D T1000       3.254   6.262   7.944  1.00 59.47     0.064 A 
ENDROOT
BRANCH   1   8
HETATM    8  CAG   D T1000       5.815   6.805   7.034  1.00 60.05     0.023 A 
HETATM    9  CAW   D T1000       5.717   6.802   5.649  1.00 61.31     0.076 A 
HETATM   10  NAH   D T1000       6.812   7.482   5.184  1.00 62.19    -0.326 N 
HETATM   11  CAE   D T1000       7.583   7.916   6.210  1.00 60.17     0.060 A 
HETATM   12  CAF   D T1000       8.803   8.661   6.278  1.00 59.69     0.017 A 
HETATM   13  CAD   D T1000       6.970   7.491   7.428  1.00 59.51     0.017 A 
HETATM   14  CAA   D T1000       9.388   8.970   7.521  1.00 60.21     0.002 A 
HETATM   15  CAB   D T1000       8.772   8.541   8.738  1.00 60.52     0.000 A 
HETATM   16  CAC   D T1000       7.554   7.795   8.700  1.00 59.56     0.002 A 
BRANCH  10  17
HETATM   17  CAY   D T1000       7.089   7.691   3.755  1.00 63.29     0.108 C 
BRANCH  17  18
HETATM   18  CBA   D T1000       6.653   9.094   3.356  1.00 66.90     0.048 C 
BRANCH  18  19
HETATM   19  CBB   D T1000       5.391   8.947   2.508  1.00 68.12     0.099 C 
BRANCH  19  20
HETATM   20  NBC   D T1000       4.166   9.462   3.167  1.00 69.41    -0.365 N 
HETATM   21  CBD   D T1000       2.968   8.686   2.900  1.00 71.44     0.121 C 
HETATM   22  CBE   D T1000       4.072  10.638   4.034  1.00 69.10     0.121 C 
ENDBRANCH  19  20
ENDBRANCH  18  19
ENDBRANCH  17  18
ENDBRANCH  10  17
ENDBRANCH   1   8
BRANCH   7  23
HETATM   23  CAK   D T1000       2.293   7.161   7.171  1.00 59.62     0.025 A 
HETATM   24  CAM   D T1000       0.978   6.879   6.673  1.00 60.49     0.019 A 
HETATM   25  CAP   D T1000       0.098   5.742   6.704  1.00 60.58     0.002 A 
HETATM   26  CAN   D T1000       0.611   8.087   6.034  1.00 61.04     0.081 A 
HETATM   27  CAQ   D T1000      -1.169   5.819   6.079  1.00 59.56     0.000 A 
HETATM   28  CAR   D T1000      -1.541   7.024   5.435  1.00 60.35     0.002 A 
HETATM   29  CAS   D T1000      -0.679   8.168   5.398  1.00 60.55     0.019 A 
HETATM   30  NAO   D T1000       1.642   8.989   6.165  1.00 60.44    -0.244 NA
HETATM   31  CAL   D T1000       2.685   8.465   6.849  1.00 59.16     0.099 A 
ENDBRANCH   7  23
TORSDOF 6
ENDMDL
