MODEL 1
REMARK VINA RESULT:    -7.552      0.000      0.000
REMARK INTER + INTRA:         -11.890
REMARK INTER:                 -10.201
REMARK INTRA:                  -1.689
REMARK UNBOUND:                -1.689
REMARK  6 active torsions:
REMARK  status: ('A' for Active; 'I' for Inactive)
REMARK    1  A    between atoms: NBC_2  and  CBB_4 
REMARK    2  A    between atoms: CBB_4  and  CBA_5 
REMARK    3  A    between atoms: CBA_5  and  CAY_6 
REMARK    4  A    between atoms: CAY_6  and  NAH_7 
REMARK    5  A    between atoms: CAG_15  and  CAI_16 
REMARK    6  A    between atoms: CAJ_22  and  CAK_23 
ROOT
HETATM    1  CAI   D T1000      -5.503  -3.657  -5.835  1.00 59.57     0.064 A 
HETATM    2  CAT   D T1000      -4.108  -3.586  -5.333  1.00 60.04     0.282 A 
HETATM    3  OAZ   D T1000      -3.615  -2.566  -4.740  1.00 63.91    -0.265 OA
HETATM    4  NAU   D T1000      -3.372  -4.690  -5.542  1.00 59.30    -0.169 NA
HETATM    5  CAV   D T1000      -4.167  -5.542  -6.165  1.00 59.13     0.282 A 
HETATM    6  OAX   D T1000      -3.731  -6.692  -6.487  1.00 59.19    -0.265 OA
HETATM    7  CAJ   D T1000      -5.549  -5.027  -6.421  1.00 59.47     0.064 A 
ENDROOT
BRANCH   1   8
HETATM    8  CAG   D T1000      -6.553  -2.541  -5.719  1.00 60.05     0.023 A 
HETATM    9  CAW   D T1000      -6.311  -1.296  -6.283  1.00 61.31     0.076 A 
HETATM   10  NAH   D T1000      -7.416  -0.530  -6.014  1.00 62.19    -0.326 N 
HETATM   11  CAE   D T1000      -8.335  -1.239  -5.315  1.00 60.17     0.060 A 
HETATM   12  CAF   D T1000      -9.633  -0.927  -4.799  1.00 59.69     0.017 A 
HETATM   13  CAD   D T1000      -7.809  -2.549  -5.101  1.00 59.51     0.017 A 
HETATM   14  CAA   D T1000     -10.377  -1.892  -4.093  1.00 60.21     0.002 A 
HETATM   15  CAB   D T1000      -9.845  -3.202  -3.878  1.00 60.52     0.000 A 
HETATM   16  CAC   D T1000      -8.551  -3.541  -4.383  1.00 59.56     0.002 A 
BRANCH  10  17
HETATM   17  CAY   D T1000      -7.551   0.872  -6.432  1.00 63.29     0.108 C 
BRANCH  17  18
HETATM   18  CBA   D T1000      -7.702   0.935  -7.946  1.00 66.90     0.048 C 
BRANCH  18  19
HETATM   19  CBB   D T1000      -9.107   0.436  -8.277  1.00 68.12     0.099 C 
BRANCH  19  20
HETATM   20  NBC   D T1000      -9.121  -0.808  -9.088  1.00 69.41    -0.365 N 
HETATM   21  CBD   D T1000      -8.170  -0.821 -10.185  1.00 71.44     0.121 C 
HETATM   22  CBE   D T1000      -9.978  -1.975  -8.876  1.00 69.10     0.121 C 
ENDBRANCH  19  20
ENDBRANCH  18  19
ENDBRANCH  17  18
ENDBRANCH  10  17
ENDBRANCH   1   8
BRANCH   7  23
HETATM   23  CAK   D T1000      -6.672  -5.797  -7.110  1.00 59.62     0.025 A 
HETATM   24  CAM   D T1000      -7.101  -7.152  -6.925  1.00 60.49     0.019 A 
HETATM   25  CAP   D T1000      -6.695  -8.244  -6.080  1.00 60.58     0.002 A 
HETATM   26  CAN   D T1000      -8.159  -7.284  -7.856  1.00 61.04     0.081 A 
HETATM   27  CAQ   D T1000      -7.360  -9.489  -6.175  1.00 59.56     0.000 A 
HETATM   28  CAR   D T1000      -8.418  -9.629  -7.107  1.00 60.35     0.002 A 
HETATM   29  CAS   D T1000      -8.839  -8.552  -7.953  1.00 60.55     0.019 A 
HETATM   30  NAO   D T1000      -8.322  -6.089  -8.517  1.00 60.44    -0.244 NA
HETATM   31  CAL   D T1000      -7.435  -5.157  -8.094  1.00 59.16     0.099 A 
ENDBRANCH   7  23
TORSDOF 6
ENDMDL
MODEL 2
REMARK VINA RESULT:    -7.424      1.556      2.231
REMARK INTER + INTRA:         -11.718
REMARK INTER:                  -9.651
REMARK INTRA:                  -2.067
REMARK UNBOUND:                -1.689
REMARK  6 active torsions:
REMARK  status: ('A' for Active; 'I' for Inactive)
REMARK    1  A    between atoms: NBC_2  and  CBB_4 
REMARK    2  A    between atoms: CBB_4  and  CBA_5 
REMARK    3  A    between atoms: CBA_5  and  CAY_6 
REMARK    4  A    between atoms: CAY_6  and  NAH_7 
REMARK    5  A    between atoms: CAG_15  and  CAI_16 
REMARK    6  A    between atoms: CAJ_22  and  CAK_23 
ROOT
HETATM    1  CAI   D T1000      -5.499  -2.324  -5.496  1.00 59.57     0.064 A 
HETATM    2  CAT   D T1000      -4.320  -1.447  -5.282  1.00 60.04     0.282 A 
HETATM    3  OAZ   D T1000      -4.398  -0.193  -5.048  1.00 63.91    -0.265 OA
HETATM    4  NAU   D T1000      -3.131  -2.068  -5.349  1.00 59.30    -0.169 NA
HETATM    5  CAV   D T1000      -3.399  -3.338  -5.598  1.00 59.13     0.282 A 
HETATM    6  OAX   D T1000      -2.448  -4.173  -5.708  1.00 59.19    -0.265 OA
HETATM    7  CAJ   D T1000      -4.858  -3.651  -5.720  1.00 59.47     0.064 A 
ENDROOT
BRANCH   1   8
HETATM    8  CAG   D T1000      -6.967  -1.872  -5.465  1.00 60.05     0.023 A 
HETATM    9  CAW   D T1000      -7.324  -0.631  -5.975  1.00 61.31     0.076 A 
HETATM   10  NAH   D T1000      -8.680  -0.521  -5.805  1.00 62.19    -0.326 N 
HETATM   11  CAE   D T1000      -9.185  -1.633  -5.220  1.00 60.17     0.060 A 
HETATM   12  CAF   D T1000     -10.505  -2.029  -4.833  1.00 59.69     0.017 A 
HETATM   13  CAD   D T1000      -8.101  -2.533  -4.981  1.00 59.51     0.017 A 
HETATM   14  CAA   D T1000     -10.732  -3.281  -4.228  1.00 60.21     0.002 A 
HETATM   15  CAB   D T1000      -9.644  -4.178  -3.988  1.00 60.52     0.000 A 
HETATM   16  CAC   D T1000      -8.315  -3.808  -4.364  1.00 59.56     0.002 A 
BRANCH  10  17
HETATM   17  CAY   D T1000      -9.453   0.663  -6.205  1.00 63.29     0.108 C 
BRANCH  17  18
HETATM   18  CBA   D T1000      -9.524   0.730  -7.725  1.00 66.90     0.048 C 
BRANCH  18  19
HETATM   19  CBB   D T1000     -10.666  -0.186  -8.160  1.00 68.12     0.099 C 
BRANCH  19  20
HETATM   20  NBC   D T1000     -10.209  -1.481  -8.725  1.00 69.41    -0.365 N 
HETATM   21  CBD   D T1000      -8.951  -1.410  -9.447  1.00 71.44     0.121 C 
HETATM   22  CBE   D T1000     -10.891  -2.770  -8.612  1.00 69.10     0.121 C 
ENDBRANCH  19  20
ENDBRANCH  18  19
ENDBRANCH  17  18
ENDBRANCH  10  17
ENDBRANCH   1   8
BRANCH   7  23
HETATM   23  CAK   D T1000      -5.452  -5.030  -5.993  1.00 59.62     0.025 A 
HETATM   24  CAM   D T1000      -6.516  -5.410  -6.876  1.00 60.49     0.019 A 
HETATM   25  CAP   D T1000      -7.376  -4.714  -7.795  1.00 60.58     0.002 A 
HETATM   26  CAN   D T1000      -6.618  -6.807  -6.673  1.00 61.04     0.081 A 
HETATM   27  CAQ   D T1000      -8.356  -5.432  -8.520  1.00 59.56     0.000 A 
HETATM   28  CAR   D T1000      -8.466  -6.830  -8.319  1.00 60.35     0.002 A 
HETATM   29  CAS   D T1000      -7.616  -7.541  -7.411  1.00 60.55     0.019 A 
HETATM   30  NAO   D T1000      -5.677  -7.192  -5.747  1.00 60.44    -0.244 NA
HETATM   31  CAL   D T1000      -4.947  -6.140  -5.306  1.00 59.16     0.099 A 
ENDBRANCH   7  23
TORSDOF 6
ENDMDL
MODEL 3
REMARK VINA RESULT:    -7.416      1.900      2.638
REMARK INTER + INTRA:         -11.707
REMARK INTER:                 -10.044
REMARK INTRA:                  -1.663
REMARK UNBOUND:                -1.689
REMARK  6 active torsions:
REMARK  status: ('A' for Active; 'I' for Inactive)
REMARK    1  A    between atoms: NBC_2  and  CBB_4 
REMARK    2  A    between atoms: CBB_4  and  CBA_5 
REMARK    3  A    between atoms: CBA_5  and  CAY_6 
REMARK    4  A    between atoms: CAY_6  and  NAH_7 
REMARK    5  A    between atoms: CAG_15  and  CAI_16 
REMARK    6  A    between atoms: CAJ_22  and  CAK_23 
ROOT
HETATM    1  CAI   D T1000      -5.218  -4.427  -5.973  1.00 59.57     0.064 A 
HETATM    2  CAT   D T1000      -4.021  -3.662  -5.539  1.00 60.04     0.282 A 
HETATM    3  OAZ   D T1000      -3.965  -2.386  -5.505  1.00 63.91    -0.265 OA
HETATM    4  NAU   D T1000      -2.970  -4.414  -5.170  1.00 59.30    -0.169 NA
HETATM    5  CAV   D T1000      -3.354  -5.670  -5.318  1.00 59.13     0.282 A 
HETATM    6  OAX   D T1000      -2.550  -6.612  -5.032  1.00 59.19    -0.265 OA
HETATM    7  CAJ   D T1000      -4.754  -5.835  -5.821  1.00 59.47     0.064 A 
ENDROOT
BRANCH   1   8
HETATM    8  CAG   D T1000      -6.550  -3.815  -6.435  1.00 60.05     0.023 A 
HETATM    9  CAW   D T1000      -6.632  -3.172  -7.663  1.00 61.31     0.076 A 
HETATM   10  NAH   D T1000      -7.927  -2.742  -7.786  1.00 62.19    -0.326 N 
HETATM   11  CAE   D T1000      -8.656  -3.091  -6.699  1.00 60.17     0.060 A 
HETATM   12  CAF   D T1000     -10.026  -2.898  -6.330  1.00 59.69     0.017 A 
HETATM   13  CAD   D T1000      -7.795  -3.787  -5.798  1.00 59.51     0.017 A 
HETATM   14  CAA   D T1000     -10.514  -3.384  -5.102  1.00 60.21     0.002 A 
HETATM   15  CAB   D T1000      -9.647  -4.078  -4.200  1.00 60.52     0.000 A 
HETATM   16  CAC   D T1000      -8.275  -4.285  -4.544  1.00 59.56     0.002 A 
BRANCH  10  17
HETATM   17  CAY   D T1000      -8.426  -1.996  -8.950  1.00 63.29     0.108 C 
BRANCH  17  18
HETATM   18  CBA   D T1000      -7.700  -0.661  -9.043  1.00 66.90     0.048 C 
BRANCH  18  19
HETATM   19  CBB   D T1000      -8.511   0.346  -8.230  1.00 68.12     0.099 C 
BRANCH  19  20
HETATM   20  NBC   D T1000      -7.785   0.881  -7.050  1.00 69.41    -0.365 N 
HETATM   21  CBD   D T1000      -8.147   2.240  -6.687  1.00 71.44     0.121 C 
HETATM   22  CBE   D T1000      -6.781   0.177  -6.252  1.00 69.10     0.121 C 
ENDBRANCH  19  20
ENDBRANCH  18  19
ENDBRANCH  17  18
ENDBRANCH  10  17
ENDBRANCH   1   8
BRANCH   7  23
HETATM   23  CAK   D T1000      -5.457  -7.166  -6.074  1.00 59.62     0.025 A 
HETATM   24  CAM   D T1000      -5.013  -8.310  -6.814  1.00 60.49     0.019 A 
HETATM   25  CAP   D T1000      -3.824  -8.651  -7.548  1.00 60.58     0.002 A 
HETATM   26  CAN   D T1000      -6.103  -9.206  -6.705  1.00 61.04     0.081 A 
HETATM   27  CAQ   D T1000      -3.729  -9.912  -8.184  1.00 59.56     0.000 A 
HETATM   28  CAR   D T1000      -4.818 -10.812  -8.080  1.00 60.35     0.002 A 
HETATM   29  CAS   D T1000      -6.008 -10.492  -7.351  1.00 60.55     0.019 A 
HETATM   30  NAO   D T1000      -7.091  -8.615  -5.952  1.00 60.44    -0.244 NA
HETATM   31  CAL   D T1000      -6.739  -7.371  -5.550  1.00 59.16     0.099 A 
ENDBRANCH   7  23
TORSDOF 6
ENDMDL
MODEL 4
REMARK VINA RESULT:    -7.301      4.131      9.160
REMARK INTER + INTRA:         -11.552
REMARK INTER:                 -10.023
REMARK INTRA:                  -1.529
REMARK UNBOUND:                -1.689
REMARK  6 active torsions:
REMARK  status: ('A' for Active; 'I' for Inactive)
REMARK    1  A    between atoms: NBC_2  and  CBB_4 
REMARK    2  A    between atoms: CBB_4  and  CBA_5 
REMARK    3  A    between atoms: CBA_5  and  CAY_6 
REMARK    4  A    between atoms: CAY_6  and  NAH_7 
REMARK    5  A    between atoms: CAG_15  and  CAI_16 
REMARK    6  A    between atoms: CAJ_22  and  CAK_23 
ROOT
HETATM    1  CAI   D T1000     -10.397   1.476  -6.581  1.00 59.57     0.064 A 
HETATM    2  CAT   D T1000     -11.703   1.011  -7.115  1.00 60.04     0.282 A 
HETATM    3  OAZ   D T1000     -11.995  -0.219  -7.308  1.00 63.91    -0.265 OA
HETATM    4  NAU   D T1000     -12.586   1.985  -7.387  1.00 59.30    -0.169 NA
HETATM    5  CAV   D T1000     -11.981   3.119  -7.077  1.00 59.13     0.282 A 
HETATM    6  OAX   D T1000     -12.593   4.222  -7.229  1.00 59.19    -0.265 OA
HETATM    7  CAJ   D T1000     -10.587   2.955  -6.554  1.00 59.47     0.064 A 
ENDROOT
BRANCH   1   8
HETATM    8  CAG   D T1000      -9.221   0.573  -6.182  1.00 60.05     0.023 A 
HETATM    9  CAW   D T1000      -7.951   0.820  -6.686  1.00 61.31     0.076 A 
HETATM   10  NAH   D T1000      -7.132  -0.142  -6.155  1.00 62.19    -0.326 N 
HETATM   11  CAE   D T1000      -7.827  -0.971  -5.341  1.00 60.17     0.060 A 
HETATM   12  CAF   D T1000      -7.463  -2.109  -4.551  1.00 59.69     0.017 A 
HETATM   13  CAD   D T1000      -9.189  -0.541  -5.336  1.00 59.51     0.017 A 
HETATM   14  CAA   D T1000      -8.428  -2.790  -3.785  1.00 60.21     0.002 A 
HETATM   15  CAB   D T1000      -9.791  -2.358  -3.785  1.00 60.52     0.000 A 
HETATM   16  CAC   D T1000     -10.183  -1.226  -4.565  1.00 59.56     0.002 A 
BRANCH  10  17
HETATM   17  CAY   D T1000      -5.697  -0.239  -6.455  1.00 63.29     0.108 C 
BRANCH  17  18
HETATM   18  CBA   D T1000      -5.491  -1.160  -7.650  1.00 66.90     0.048 C 
BRANCH  18  19
HETATM   19  CBB   D T1000      -4.151  -1.864  -7.447  1.00 68.12     0.099 C 
BRANCH  19  20
HETATM   20  NBC   D T1000      -4.234  -3.062  -6.573  1.00 69.41    -0.365 N 
HETATM   21  CBD   D T1000      -5.051  -4.139  -7.105  1.00 71.44     0.121 C 
HETATM   22  CBE   D T1000      -3.581  -3.240  -5.275  1.00 69.10     0.121 C 
ENDBRANCH  19  20
ENDBRANCH  18  19
ENDBRANCH  17  18
ENDBRANCH  10  17
ENDBRANCH   1   8
BRANCH   7  23
HETATM   23  CAK   D T1000      -9.665   4.086  -6.111  1.00 59.62     0.025 A 
HETATM   24  CAM   D T1000      -8.734   4.863  -6.878  1.00 60.49     0.019 A 
HETATM   25  CAP   D T1000      -8.333   4.901  -8.258  1.00 60.58     0.002 A 
HETATM   26  CAN   D T1000      -8.168   5.730  -5.913  1.00 61.04     0.081 A 
HETATM   27  CAQ   D T1000      -7.344   5.824  -8.676  1.00 59.56     0.000 A 
HETATM   28  CAR   D T1000      -6.772   6.692  -7.715  1.00 60.35     0.002 A 
HETATM   29  CAS   D T1000      -7.162   6.671  -6.337  1.00 60.55     0.019 A 
HETATM   30  NAO   D T1000      -8.740   5.468  -4.689  1.00 60.44    -0.244 NA
HETATM   31  CAL   D T1000      -9.655   4.473  -4.766  1.00 59.16     0.099 A 
ENDBRANCH   7  23
TORSDOF 6
ENDMDL
MODEL 5
REMARK VINA RESULT:    -7.291      2.134      3.235
REMARK INTER + INTRA:         -11.539
REMARK INTER:                 -10.038
REMARK INTRA:                  -1.501
REMARK UNBOUND:                -1.689
REMARK  6 active torsions:
REMARK  status: ('A' for Active; 'I' for Inactive)
REMARK    1  A    between atoms: NBC_2  and  CBB_4 
REMARK    2  A    between atoms: CBB_4  and  CBA_5 
REMARK    3  A    between atoms: CBA_5  and  CAY_6 
REMARK    4  A    between atoms: CAY_6  and  NAH_7 
REMARK    5  A    between atoms: CAG_15  and  CAI_16 
REMARK    6  A    between atoms: CAJ_22  and  CAK_23 
ROOT
HETATM    1  CAI   D T1000      -5.137  -2.081  -5.721  1.00 59.57     0.064 A 
HETATM    2  CAT   D T1000      -3.857  -1.399  -5.405  1.00 60.04     0.282 A 
HETATM    3  OAZ   D T1000      -3.753  -0.143  -5.191  1.00 63.91    -0.265 OA
HETATM    4  NAU   D T1000      -2.782  -2.203  -5.351  1.00 59.30    -0.169 NA
HETATM    5  CAV   D T1000      -3.228  -3.420  -5.613  1.00 59.13     0.282 A 
HETATM    6  OAX   D T1000      -2.418  -4.399  -5.623  1.00 59.19    -0.265 OA
HETATM    7  CAJ   D T1000      -4.700  -3.499  -5.870  1.00 59.47     0.064 A 
ENDROOT
BRANCH   1   8
HETATM    8  CAG   D T1000      -6.509  -1.399  -5.835  1.00 60.05     0.023 A 
HETATM    9  CAW   D T1000      -6.672  -0.296  -6.661  1.00 61.31     0.076 A 
HETATM   10  NAH   D T1000      -7.986   0.079  -6.547  1.00 62.19    -0.326 N 
HETATM   11  CAE   D T1000      -8.649  -0.740  -5.697  1.00 60.17     0.060 A 
HETATM   12  CAF   D T1000     -10.005  -0.795  -5.241  1.00 59.69     0.017 A 
HETATM   13  CAD   D T1000      -7.722  -1.712  -5.211  1.00 59.51     0.017 A 
HETATM   14  CAA   D T1000     -10.417  -1.787  -4.330  1.00 60.21     0.002 A 
HETATM   15  CAB   D T1000      -9.485  -2.756  -3.843  1.00 60.52     0.000 A 
HETATM   16  CAC   D T1000      -8.125  -2.725  -4.282  1.00 59.56     0.002 A 
BRANCH  10  17
HETATM   17  CAY   D T1000      -8.564   1.227  -7.260  1.00 63.29     0.108 C 
BRANCH  17  18
HETATM   18  CBA   D T1000      -8.217   2.510  -6.517  1.00 66.90     0.048 C 
BRANCH  18  19
HETATM   19  CBB   D T1000      -8.451   3.666  -7.487  1.00 68.12     0.099 C 
BRANCH  19  20
HETATM   20  NBC   D T1000      -7.841   4.946  -7.047  1.00 69.41    -0.365 N 
HETATM   21  CBD   D T1000      -6.904   5.522  -7.996  1.00 71.44     0.121 C 
HETATM   22  CBE   D T1000      -8.100   5.648  -5.789  1.00 69.10     0.121 C 
ENDBRANCH  19  20
ENDBRANCH  18  19
ENDBRANCH  17  18
ENDBRANCH  10  17
ENDBRANCH   1   8
BRANCH   7  23
HETATM   23  CAK   D T1000      -5.481  -4.771  -6.185  1.00 59.62     0.025 A 
HETATM   24  CAM   D T1000      -6.647  -4.952  -7.001  1.00 60.49     0.019 A 
HETATM   25  CAP   D T1000      -7.478  -4.089  -7.797  1.00 60.58     0.002 A 
HETATM   26  CAN   D T1000      -6.909  -6.338  -6.884  1.00 61.04     0.081 A 
HETATM   27  CAQ   D T1000      -8.591  -4.627  -8.486  1.00 59.56     0.000 A 
HETATM   28  CAR   D T1000      -8.860  -6.013  -8.370  1.00 60.35     0.002 A 
HETATM   29  CAS   D T1000      -8.042  -6.888  -7.586  1.00 60.55     0.019 A 
HETATM   30  NAO   D T1000      -5.957  -6.903  -6.066  1.00 60.44    -0.244 NA
HETATM   31  CAL   D T1000      -5.071  -5.983  -5.618  1.00 59.16     0.099 A 
ENDBRANCH   7  23
TORSDOF 6
ENDMDL
MODEL 6
REMARK VINA RESULT:    -7.282      1.686      2.383
REMARK INTER + INTRA:         -11.525
REMARK INTER:                 -10.110
REMARK INTRA:                  -1.415
REMARK UNBOUND:                -1.689
REMARK  6 active torsions:
REMARK  status: ('A' for Active; 'I' for Inactive)
REMARK    1  A    between atoms: NBC_2  and  CBB_4 
REMARK    2  A    between atoms: CBB_4  and  CBA_5 
REMARK    3  A    between atoms: CBA_5  and  CAY_6 
REMARK    4  A    between atoms: CAY_6  and  NAH_7 
REMARK    5  A    between atoms: CAG_15  and  CAI_16 
REMARK    6  A    between atoms: CAJ_22  and  CAK_23 
ROOT
HETATM    1  CAI   D T1000      -6.273  -2.989  -5.773  1.00 59.57     0.064 A 
HETATM    2  CAT   D T1000      -4.947  -2.626  -5.212  1.00 60.04     0.282 A 
HETATM    3  OAZ   D T1000      -4.717  -1.544  -4.571  1.00 63.91    -0.265 OA
HETATM    4  NAU   D T1000      -3.975  -3.529  -5.420  1.00 59.30    -0.169 NA
HETATM    5  CAV   D T1000      -4.537  -4.515  -6.099  1.00 59.13     0.282 A 
HETATM    6  OAX   D T1000      -3.842  -5.525  -6.433  1.00 59.19    -0.265 OA
HETATM    7  CAJ   D T1000      -5.989  -4.313  -6.397  1.00 59.47     0.064 A 
ENDROOT
BRANCH   1   8
HETATM    8  CAG   D T1000      -7.551  -2.142  -5.669  1.00 60.05     0.023 A 
HETATM    9  CAW   D T1000      -7.554  -0.830  -6.125  1.00 61.31     0.076 A 
HETATM   10  NAH   D T1000      -8.817  -0.348  -5.898  1.00 62.19    -0.326 N 
HETATM   11  CAE   D T1000      -9.601  -1.296  -5.330  1.00 60.17     0.060 A 
HETATM   12  CAF   D T1000     -10.967  -1.318  -4.904  1.00 59.69     0.017 A 
HETATM   13  CAD   D T1000      -8.811  -2.474  -5.162  1.00 59.51     0.017 A 
HETATM   14  CAA   D T1000     -11.523  -2.478  -4.332  1.00 60.21     0.002 A 
HETATM   15  CAB   D T1000     -10.729  -3.655  -4.163  1.00 60.52     0.000 A 
HETATM   16  CAC   D T1000      -9.361  -3.661  -4.579  1.00 59.56     0.002 A 
BRANCH  10  17
HETATM   17  CAY   D T1000      -9.232   1.022  -6.229  1.00 63.29     0.108 C 
BRANCH  17  18
HETATM   18  CBA   D T1000      -8.061   1.768  -6.854  1.00 66.90     0.048 C 
BRANCH  18  19
HETATM   19  CBB   D T1000      -8.633   3.009  -7.536  1.00 68.12     0.099 C 
BRANCH  19  20
HETATM   20  NBC   D T1000      -7.962   4.272  -7.136  1.00 69.41    -0.365 N 
HETATM   21  CBD   D T1000      -7.695   4.386  -5.712  1.00 71.44     0.121 C 
HETATM   22  CBE   D T1000      -7.557   5.362  -8.023  1.00 69.10     0.121 C 
ENDBRANCH  19  20
ENDBRANCH  18  19
ENDBRANCH  17  18
ENDBRANCH  10  17
ENDBRANCH   1   8
BRANCH   7  23
HETATM   23  CAK   D T1000      -6.887  -5.289  -7.152  1.00 59.62     0.025 A 
HETATM   24  CAM   D T1000      -7.083  -6.695  -6.952  1.00 60.49     0.019 A 
HETATM   25  CAP   D T1000      -6.571  -7.675  -6.032  1.00 60.58     0.002 A 
HETATM   26  CAN   D T1000      -8.006  -7.039  -7.969  1.00 61.04     0.081 A 
HETATM   27  CAQ   D T1000      -6.992  -9.023  -6.135  1.00 59.56     0.000 A 
HETATM   28  CAR   D T1000      -7.914  -9.373  -7.152  1.00 60.35     0.002 A 
HETATM   29  CAS   D T1000      -8.437  -8.411  -8.075  1.00 60.55     0.019 A 
HETATM   30  NAO   D T1000      -8.315  -5.908  -8.689  1.00 60.44    -0.244 NA
HETATM   31  CAL   D T1000      -7.653  -4.822  -8.226  1.00 59.16     0.099 A 
ENDBRANCH   7  23
TORSDOF 6
ENDMDL
MODEL 7
REMARK VINA RESULT:    -7.209      1.882      3.590
REMARK INTER + INTRA:         -11.427
REMARK INTER:                  -9.287
REMARK INTRA:                  -2.140
REMARK UNBOUND:                -1.689
REMARK  6 active torsions:
REMARK  status: ('A' for Active; 'I' for Inactive)
REMARK    1  A    between atoms: NBC_2  and  CBB_4 
REMARK    2  A    between atoms: CBB_4  and  CBA_5 
REMARK    3  A    between atoms: CBA_5  and  CAY_6 
REMARK    4  A    between atoms: CAY_6  and  NAH_7 
REMARK    5  A    between atoms: CAG_15  and  CAI_16 
REMARK    6  A    between atoms: CAJ_22  and  CAK_23 
ROOT
HETATM    1  CAI   D T1000      -5.442  -2.291  -5.599  1.00 59.57     0.064 A 
HETATM    2  CAT   D T1000      -4.266  -1.427  -5.327  1.00 60.04     0.282 A 
HETATM    3  OAZ   D T1000      -4.338  -0.167  -5.126  1.00 63.91    -0.265 OA
HETATM    4  NAU   D T1000      -3.085  -2.067  -5.302  1.00 59.30    -0.169 NA
HETATM    5  CAV   D T1000      -3.357  -3.339  -5.541  1.00 59.13     0.282 A 
HETATM    6  OAX   D T1000      -2.415  -4.190  -5.569  1.00 59.19    -0.265 OA
HETATM    7  CAJ   D T1000      -4.810  -3.632  -5.751  1.00 59.47     0.064 A 
ENDROOT
BRANCH   1   8
HETATM    8  CAG   D T1000      -6.902  -1.816  -5.675  1.00 60.05     0.023 A 
HETATM    9  CAW   D T1000      -7.745  -1.982  -4.584  1.00 61.31     0.076 A 
HETATM   10  NAH   D T1000      -8.960  -1.467  -4.956  1.00 62.19    -0.326 N 
HETATM   11  CAE   D T1000      -8.913  -0.984  -6.220  1.00 60.17     0.060 A 
HETATM   12  CAF   D T1000      -9.877  -0.351  -7.068  1.00 59.69     0.017 A 
HETATM   13  CAD   D T1000      -7.592  -1.196  -6.722  1.00 59.51     0.017 A 
HETATM   14  CAA   D T1000      -9.531   0.054  -8.372  1.00 60.21     0.002 A 
HETATM   15  CAB   D T1000      -8.209  -0.162  -8.871  1.00 60.52     0.000 A 
HETATM   16  CAC   D T1000      -7.226  -0.792  -8.046  1.00 59.56     0.002 A 
BRANCH  10  17
HETATM   17  CAY   D T1000     -10.139  -1.463  -4.079  1.00 63.29     0.108 C 
BRANCH  17  18
HETATM   18  CBA   D T1000     -10.628  -2.892  -3.883  1.00 66.90     0.048 C 
BRANCH  18  19
HETATM   19  CBB   D T1000     -12.037  -2.967  -4.468  1.00 68.12     0.099 C 
BRANCH  19  20
HETATM   20  NBC   D T1000     -12.063  -3.065  -5.949  1.00 69.41    -0.365 N 
HETATM   21  CBD   D T1000     -13.056  -2.220  -6.590  1.00 71.44     0.121 C 
HETATM   22  CBE   D T1000     -11.202  -3.906  -6.782  1.00 69.10     0.121 C 
ENDBRANCH  19  20
ENDBRANCH  18  19
ENDBRANCH  17  18
ENDBRANCH  10  17
ENDBRANCH   1   8
BRANCH   7  23
HETATM   23  CAK   D T1000      -5.407  -5.008  -6.033  1.00 59.62     0.025 A 
HETATM   24  CAM   D T1000      -6.481  -5.378  -6.908  1.00 60.49     0.019 A 
HETATM   25  CAP   D T1000      -7.351  -4.671  -7.810  1.00 60.58     0.002 A 
HETATM   26  CAN   D T1000      -6.582  -6.777  -6.719  1.00 61.04     0.081 A 
HETATM   27  CAQ   D T1000      -8.339  -5.381  -8.533  1.00 59.56     0.000 A 
HETATM   28  CAR   D T1000      -8.447  -6.781  -8.346  1.00 60.35     0.002 A 
HETATM   29  CAS   D T1000      -7.588  -7.502  -7.455  1.00 60.55     0.019 A 
HETATM   30  NAO   D T1000      -5.630  -7.172  -5.808  1.00 60.44    -0.244 NA
HETATM   31  CAL   D T1000      -4.896  -6.125  -5.363  1.00 59.16     0.099 A 
ENDBRANCH   7  23
TORSDOF 6
ENDMDL
MODEL 8
REMARK VINA RESULT:    -7.173      2.031      4.578
REMARK INTER + INTRA:         -11.379
REMARK INTER:                  -9.590
REMARK INTRA:                  -1.789
REMARK UNBOUND:                -1.689
REMARK  6 active torsions:
REMARK  status: ('A' for Active; 'I' for Inactive)
REMARK    1  A    between atoms: NBC_2  and  CBB_4 
REMARK    2  A    between atoms: CBB_4  and  CBA_5 
REMARK    3  A    between atoms: CBA_5  and  CAY_6 
REMARK    4  A    between atoms: CAY_6  and  NAH_7 
REMARK    5  A    between atoms: CAG_15  and  CAI_16 
REMARK    6  A    between atoms: CAJ_22  and  CAK_23 
ROOT
HETATM    1  CAI   D T1000      -8.409  -5.707  -7.369  1.00 59.57     0.064 A 
HETATM    2  CAT   D T1000      -9.224  -6.835  -7.888  1.00 60.04     0.282 A 
HETATM    3  OAZ   D T1000     -10.437  -6.718  -8.274  1.00 63.91    -0.265 OA
HETATM    4  NAU   D T1000      -8.592  -8.019  -7.931  1.00 59.30    -0.169 NA
HETATM    5  CAV   D T1000      -7.373  -7.796  -7.472  1.00 59.13     0.282 A 
HETATM    6  OAX   D T1000      -6.540  -8.753  -7.406  1.00 59.19    -0.265 OA
HETATM    7  CAJ   D T1000      -7.110  -6.377  -7.075  1.00 59.47     0.064 A 
ENDROOT
BRANCH   1   8
HETATM    8  CAG   D T1000      -8.884  -4.253  -7.223  1.00 60.05     0.023 A 
HETATM    9  CAW   D T1000      -9.008  -3.446  -8.346  1.00 61.31     0.076 A 
HETATM   10  NAH   D T1000      -9.444  -2.226  -7.896  1.00 62.19    -0.326 N 
HETATM   11  CAE   D T1000      -9.603  -2.237  -6.551  1.00 60.17     0.060 A 
HETATM   12  CAF   D T1000     -10.032  -1.253  -5.603  1.00 59.69     0.017 A 
HETATM   13  CAD   D T1000      -9.245  -3.536  -6.078  1.00 59.51     0.017 A 
HETATM   14  CAA   D T1000     -10.099  -1.560  -4.230  1.00 60.21     0.002 A 
HETATM   15  CAB   D T1000      -9.737  -2.861  -3.760  1.00 60.52     0.000 A 
HETATM   16  CAC   D T1000      -9.305  -3.862  -4.684  1.00 59.56     0.002 A 
BRANCH  10  17
HETATM   17  CAY   D T1000      -9.689  -1.078  -8.780  1.00 63.29     0.108 C 
BRANCH  17  18
HETATM   18  CBA   D T1000      -8.446  -0.198  -8.821  1.00 66.90     0.048 C 
BRANCH  18  19
HETATM   19  CBB   D T1000      -8.845   1.166  -8.261  1.00 68.12     0.099 C 
BRANCH  19  20
HETATM   20  NBC   D T1000      -8.032   1.591  -7.094  1.00 69.41    -0.365 N 
HETATM   21  CBD   D T1000      -7.134   0.570  -6.583  1.00 71.44     0.121 C 
HETATM   22  CBE   D T1000      -8.056   2.904  -6.448  1.00 69.10     0.121 C 
ENDBRANCH  19  20
ENDBRANCH  18  19
ENDBRANCH  17  18
ENDBRANCH  10  17
ENDBRANCH   1   8
BRANCH   7  23
HETATM   23  CAK   D T1000      -5.793  -5.837  -6.525  1.00 59.62     0.025 A 
HETATM   24  CAM   D T1000      -5.210  -4.534  -6.660  1.00 60.49     0.019 A 
HETATM   25  CAP   D T1000      -5.597  -3.306  -7.301  1.00 60.58     0.002 A 
HETATM   26  CAN   D T1000      -3.988  -4.654  -5.956  1.00 61.04     0.081 A 
HETATM   27  CAQ   D T1000      -4.741  -2.180  -7.236  1.00 59.56     0.000 A 
HETATM   28  CAR   D T1000      -3.515  -2.295  -6.536  1.00 60.35     0.002 A 
HETATM   29  CAS   D T1000      -3.115  -3.509  -5.888  1.00 60.55     0.019 A 
HETATM   30  NAO   D T1000      -3.889  -5.931  -5.453  1.00 60.44    -0.244 NA
HETATM   31  CAL   D T1000      -4.965  -6.684  -5.778  1.00 59.16     0.099 A 
ENDBRANCH   7  23
TORSDOF 6
ENDMDL
MODEL 9
REMARK VINA RESULT:    -6.973      2.418      6.489
REMARK INTER + INTRA:         -11.108
REMARK INTER:                  -9.392
REMARK INTRA:                  -1.716
REMARK UNBOUND:                -1.689
REMARK  6 active torsions:
REMARK  status: ('A' for Active; 'I' for Inactive)
REMARK    1  A    between atoms: NBC_2  and  CBB_4 
REMARK    2  A    between atoms: CBB_4  and  CBA_5 
REMARK    3  A    between atoms: CBA_5  and  CAY_6 
REMARK    4  A    between atoms: CAY_6  and  NAH_7 
REMARK    5  A    between atoms: CAG_15  and  CAI_16 
REMARK    6  A    between atoms: CAJ_22  and  CAK_23 
ROOT
HETATM    1  CAI   D T1000      -6.908  -2.316  -6.762  1.00 59.57     0.064 A 
HETATM    2  CAT   D T1000      -6.336  -1.181  -7.531  1.00 60.04     0.282 A 
HETATM    3  OAZ   D T1000      -5.215  -1.228  -8.143  1.00 63.91    -0.265 OA
HETATM    4  NAU   D T1000      -7.090  -0.070  -7.549  1.00 59.30    -0.169 NA
HETATM    5  CAV   D T1000      -8.167  -0.351  -6.836  1.00 59.13     0.282 A 
HETATM    6  OAX   D T1000      -9.071   0.529  -6.687  1.00 59.19    -0.265 OA
HETATM    7  CAJ   D T1000      -8.191  -1.737  -6.272  1.00 59.47     0.064 A 
ENDROOT
BRANCH   1   8
HETATM    8  CAG   D T1000      -6.257  -3.697  -6.590  1.00 60.05     0.023 A 
HETATM    9  CAW   D T1000      -6.937  -4.841  -6.986  1.00 61.31     0.076 A 
HETATM   10  NAH   D T1000      -6.108  -5.896  -6.707  1.00 62.19    -0.326 N 
HETATM   11  CAE   D T1000      -4.945  -5.466  -6.162  1.00 60.17     0.060 A 
HETATM   12  CAF   D T1000      -3.765  -6.135  -5.705  1.00 59.69     0.017 A 
HETATM   13  CAD   D T1000      -5.006  -4.042  -6.067  1.00 59.51     0.017 A 
HETATM   14  CAA   D T1000      -2.686  -5.405  -5.171  1.00 60.21     0.002 A 
HETATM   15  CAB   D T1000      -2.752  -3.979  -5.074  1.00 60.52     0.000 A 
HETATM   16  CAC   D T1000      -3.918  -3.285  -5.524  1.00 59.56     0.002 A 
BRANCH  10  17
HETATM   17  CAY   D T1000      -6.466  -7.297  -6.966  1.00 63.29     0.108 C 
BRANCH  17  18
HETATM   18  CBA   D T1000      -7.954  -7.389  -7.278  1.00 66.90     0.048 C 
BRANCH  18  19
HETATM   19  CBB   D T1000      -8.119  -8.452  -8.363  1.00 68.12     0.099 C 
BRANCH  19  20
HETATM   20  NBC   D T1000      -7.847  -9.833  -7.890  1.00 69.41    -0.365 N 
HETATM   21  CBD   D T1000      -8.673 -10.260  -6.774  1.00 71.44     0.121 C 
HETATM   22  CBE   D T1000      -6.858 -10.762  -8.438  1.00 69.10     0.121 C 
ENDBRANCH  19  20
ENDBRANCH  18  19
ENDBRANCH  17  18
ENDBRANCH  10  17
ENDBRANCH   1   8
BRANCH   7  23
HETATM   23  CAK   D T1000      -9.311  -2.332  -5.422  1.00 59.62     0.025 A 
HETATM   24  CAM   D T1000     -10.259  -3.358  -5.745  1.00 60.49     0.019 A 
HETATM   25  CAP   D T1000     -10.515  -4.185  -6.894  1.00 60.58     0.002 A 
HETATM   26  CAN   D T1000     -11.043  -3.452  -4.571  1.00 61.04     0.081 A 
HETATM   27  CAQ   D T1000     -11.578  -5.119  -6.864  1.00 59.56     0.000 A 
HETATM   28  CAR   D T1000     -12.368  -5.215  -5.693  1.00 60.35     0.002 A 
HETATM   29  CAS   D T1000     -12.126  -4.403  -4.538  1.00 60.55     0.019 A 
HETATM   30  NAO   D T1000     -10.570  -2.548  -3.647  1.00 60.44    -0.244 NA
HETATM   31  CAL   D T1000      -9.518  -1.845  -4.126  1.00 59.16     0.099 A 
ENDBRANCH   7  23
TORSDOF 6
ENDMDL
