MODEL 1
REMARK VINA RESULT:    -7.720      0.000      0.000
REMARK INTER + INTRA:          -9.101
REMARK INTER:                  -8.623
REMARK INTRA:                  -0.478
REMARK UNBOUND:                -0.478
REMARK  2 active torsions:
REMARK  status: ('A' for Active; 'I' for Inactive)
REMARK    1  A    between atoms: C5_4  and  O7_13 
REMARK    2  A    between atoms: C8_10  and  O7_13 
ROOT
HETATM    1  O7    D T 300       6.451   1.083  -7.163  1.00 46.51    -0.304 OA
ENDROOT
BRANCH   1   2
HETATM    2  C5    D T 300       5.627   1.866  -6.385  1.00 44.54     0.125 A 
HETATM    3  C6    D T 300       4.438   1.247  -5.725  1.00 44.38     0.154 A 
HETATM    4  C1    D T 300       3.605   2.051  -4.945  1.00 43.97     0.041 A 
HETATM    5  O17   D T 300       4.167  -0.044  -5.886  1.00 43.04    -0.188 OA
HETATM    6  C2    D T 300       3.876   3.402  -4.767  1.00 44.46     0.060 A 
HETATM    7  C3    D T 300       5.001   3.994  -5.376  1.00 44.32     0.014 A 
HETATM    8 CL14   D T 300       2.759   4.367  -3.740  1.00 44.72    -0.082 Cl
HETATM    9  C4    D T 300       5.865   3.235  -6.179  1.00 44.42     0.028 A 
ENDBRANCH   1   2
BRANCH   1  10
HETATM   10  C8    D T 300       6.827   1.325  -8.470  1.00 47.94     0.111 A 
HETATM   11  C9    D T 300       5.853   1.142  -9.585  1.00 48.66     0.081 A 
HETATM   12  C10   D T 300       6.221   1.389 -10.894  1.00 48.78     0.025 A 
HETATM   13 CL16   D T 300       4.176   0.598  -9.339  1.00 51.01    -0.080 Cl
HETATM   14  C11   D T 300       7.506   1.825 -11.180  1.00 48.52     0.059 A 
HETATM   15  C12   D T 300       8.433   2.007 -10.161  1.00 49.14     0.013 A 
HETATM   16 CL15   D T 300       7.929   2.141 -12.893  1.00 49.12    -0.082 Cl
HETATM   17  C13   D T 300       8.109   1.764  -8.816  1.00 49.45     0.026 A 
ENDBRANCH   1  10
TORSDOF 2
ENDMDL
MODEL 2
REMARK VINA RESULT:    -7.663      1.081      6.162
REMARK INTER + INTRA:          -9.037
REMARK INTER:                  -8.572
REMARK INTRA:                  -0.465
REMARK UNBOUND:                -0.478
REMARK  2 active torsions:
REMARK  status: ('A' for Active; 'I' for Inactive)
REMARK    1  A    between atoms: C5_4  and  O7_13 
REMARK    2  A    between atoms: C8_10  and  O7_13 
ROOT
HETATM    1  O7    D T 300       6.571   1.205  -7.165  1.00 46.51    -0.304 OA
ENDROOT
BRANCH   1   2
HETATM    2  C5    D T 300       6.857   1.403  -8.498  1.00 44.54     0.125 A 
HETATM    3  C6    D T 300       8.200   1.926  -8.890  1.00 44.38     0.154 A 
HETATM    4  C1    D T 300       8.477   2.130 -10.242  1.00 43.97     0.041 A 
HETATM    5  O17   D T 300       9.115   2.207  -7.966  1.00 43.04    -0.188 OA
HETATM    6  C2    D T 300       7.532   1.840 -11.218  1.00 44.46     0.060 A 
HETATM    7  C3    D T 300       6.265   1.336 -10.861  1.00 44.32     0.014 A 
HETATM    8 CL14   D T 300       7.969   2.122 -12.939  1.00 44.72    -0.082 Cl
HETATM    9  C4    D T 300       5.929   1.122  -9.516  1.00 44.42     0.028 A 
ENDBRANCH   1   2
BRANCH   1  10
HETATM   10  C8    D T 300       5.699   1.944  -6.389  1.00 47.94     0.111 A 
HETATM   11  C9    D T 300       4.436   1.336  -5.881  1.00 48.66     0.081 A 
HETATM   12  C10   D T 300       3.563   2.067  -5.098  1.00 48.78     0.025 A 
HETATM   13 CL16   D T 300       3.947  -0.340  -6.230  1.00 51.01    -0.080 Cl
HETATM   14  C11   D T 300       3.864   3.379  -4.768  1.00 48.52     0.059 A 
HETATM   15  C12   D T 300       5.036   3.971  -5.224  1.00 49.14     0.013 A 
HETATM   16 CL15   D T 300       2.704   4.281  -3.742  1.00 49.12    -0.082 Cl
HETATM   17  C13   D T 300       5.953   3.271  -6.026  1.00 49.45     0.026 A 
ENDBRANCH   1  10
TORSDOF 2
ENDMDL
MODEL 3
REMARK VINA RESULT:    -7.553      1.339      1.786
REMARK INTER + INTRA:          -8.914
REMARK INTER:                  -8.478
REMARK INTRA:                  -0.436
REMARK UNBOUND:                -0.478
REMARK  2 active torsions:
REMARK  status: ('A' for Active; 'I' for Inactive)
REMARK    1  A    between atoms: C5_4  and  O7_13 
REMARK    2  A    between atoms: C8_10  and  O7_13 
ROOT
HETATM    1  O7    D T 300       6.120   1.035  -7.293  1.00 46.51    -0.304 OA
ENDROOT
BRANCH   1   2
HETATM    2  C5    D T 300       5.357   1.851  -6.485  1.00 44.54     0.125 A 
HETATM    3  C6    D T 300       4.306   1.243  -5.614  1.00 44.38     0.154 A 
HETATM    4  C1    D T 300       3.534   2.079  -4.805  1.00 43.97     0.041 A 
HETATM    5  O17   D T 300       4.099  -0.070  -5.616  1.00 43.04    -0.188 OA
HETATM    6  C2    D T 300       3.741   3.452  -4.792  1.00 44.46     0.060 A 
HETATM    7  C3    D T 300       4.736   4.036  -5.602  1.00 44.32     0.014 A 
HETATM    8 CL14   D T 300       2.709   4.459  -3.716  1.00 44.72    -0.082 Cl
HETATM    9  C4    D T 300       5.534   3.244  -6.442  1.00 44.42     0.028 A 
ENDBRANCH   1   2
BRANCH   1  10
HETATM   10  C8    D T 300       6.517   1.296  -8.589  1.00 47.94     0.111 A 
HETATM   11  C9    D T 300       7.903   1.769  -8.875  1.00 48.66     0.081 A 
HETATM   12  C10   D T 300       8.310   2.025 -10.171  1.00 48.78     0.025 A 
HETATM   13 CL16   D T 300       9.124   2.044  -7.610  1.00 51.01    -0.080 Cl
HETATM   14  C11   D T 300       7.428   1.831 -11.224  1.00 48.52     0.059 A 
HETATM   15  C12   D T 300       6.133   1.388 -10.986  1.00 49.14     0.013 A 
HETATM   16 CL15   D T 300       8.008   2.167 -12.886  1.00 49.12    -0.082 Cl
HETATM   17  C13   D T 300       5.671   1.119  -9.687  1.00 49.45     0.026 A 
ENDBRANCH   1  10
TORSDOF 2
ENDMDL
MODEL 4
REMARK VINA RESULT:    -7.466      9.054     12.068
REMARK INTER + INTRA:          -8.817
REMARK INTER:                  -8.399
REMARK INTRA:                  -0.418
REMARK UNBOUND:                -0.478
REMARK  2 active torsions:
REMARK  status: ('A' for Active; 'I' for Inactive)
REMARK    1  A    between atoms: C5_4  and  O7_13 
REMARK    2  A    between atoms: C8_10  and  O7_13 
ROOT
HETATM    1  O7    D T 300       6.485   5.477   3.337  1.00 46.51    -0.304 OA
ENDROOT
BRANCH   1   2
HETATM    2  C5    D T 300       6.277   5.791   2.012  1.00 44.54     0.125 A 
HETATM    3  C6    D T 300       6.645   7.150   1.514  1.00 44.38     0.154 A 
HETATM    4  C1    D T 300       6.423   7.460   0.171  1.00 43.97     0.041 A 
HETATM    5  O17   D T 300       7.163   8.057   2.336  1.00 43.04    -0.188 OA
HETATM    6  C2    D T 300       5.884   6.522  -0.700  1.00 44.46     0.060 A 
HETATM    7  C3    D T 300       5.543   5.232  -0.244  1.00 44.32     0.014 A 
HETATM    8 CL14   D T 300       5.637   6.996  -2.417  1.00 44.72    -0.082 Cl
HETATM    9  C4    D T 300       5.734   4.871   1.098  1.00 44.42     0.028 A 
ENDBRANCH   1   2
BRANCH   1  10
HETATM   10  C8    D T 300       7.303   4.481   3.832  1.00 47.94     0.111 A 
HETATM   11  C9    D T 300       6.775   3.480   4.803  1.00 48.66     0.081 A 
HETATM   12  C10   D T 300       7.587   2.476   5.297  1.00 48.78     0.025 A 
HETATM   13 CL16   D T 300       5.100   3.490   5.405  1.00 51.01    -0.080 Cl
HETATM   14  C11   D T 300       8.905   2.385   4.878  1.00 48.52     0.059 A 
HETATM   15  C12   D T 300       9.423   3.301   3.971  1.00 49.14     0.013 A 
HETATM   16 CL15   D T 300       9.913   1.058   5.540  1.00 49.12    -0.082 Cl
HETATM   17  C13   D T 300       8.640   4.342   3.445  1.00 49.45     0.026 A 
ENDBRANCH   1  10
TORSDOF 2
ENDMDL
MODEL 5
REMARK VINA RESULT:    -7.385      2.366      2.932
REMARK INTER + INTRA:          -8.726
REMARK INTER:                  -8.299
REMARK INTRA:                  -0.427
REMARK UNBOUND:                -0.478
REMARK  2 active torsions:
REMARK  status: ('A' for Active; 'I' for Inactive)
REMARK    1  A    between atoms: C5_4  and  O7_13 
REMARK    2  A    between atoms: C8_10  and  O7_13 
ROOT
HETATM    1  O7    D T 300       5.133   3.426  -7.306  1.00 46.51    -0.304 OA
ENDROOT
BRANCH   1   2
HETATM    2  C5    D T 300       4.714   2.583  -6.300  1.00 44.54     0.125 A 
HETATM    3  C6    D T 300       4.680   3.082  -4.892  1.00 44.38     0.154 A 
HETATM    4  C1    D T 300       4.261   2.217  -3.879  1.00 43.97     0.041 A 
HETATM    5  O17   D T 300       5.054   4.324  -4.603  1.00 43.04    -0.188 OA
HETATM    6  C2    D T 300       3.867   0.916  -4.167  1.00 44.46     0.060 A 
HETATM    7  C3    D T 300       3.885   0.438  -5.492  1.00 44.32     0.014 A 
HETATM    8 CL14   D T 300       3.333  -0.132  -2.807  1.00 44.72    -0.082 Cl
HETATM    9  C4    D T 300       4.307   1.261  -6.547  1.00 44.42     0.028 A 
ENDBRANCH   1   2
BRANCH   1  10
HETATM   10  C8    D T 300       5.785   3.065  -8.468  1.00 47.94     0.111 A 
HETATM   11  C9    D T 300       7.242   2.748  -8.451  1.00 48.66     0.081 A 
HETATM   12  C10   D T 300       7.900   2.378  -9.609  1.00 48.78     0.025 A 
HETATM   13 CL16   D T 300       8.242   2.819  -6.980  1.00 51.01    -0.080 Cl
HETATM   14  C11   D T 300       7.200   2.287 -10.802  1.00 48.52     0.059 A 
HETATM   15  C12   D T 300       5.841   2.574 -10.847  1.00 49.14     0.013 A 
HETATM   16 CL15   D T 300       8.097   1.794 -12.273  1.00 49.12    -0.082 Cl
HETATM   17  C13   D T 300       5.129   2.958  -9.698  1.00 49.45     0.026 A 
ENDBRANCH   1  10
TORSDOF 2
ENDMDL
MODEL 6
REMARK VINA RESULT:    -7.343      1.916      6.353
REMARK INTER + INTRA:          -8.679
REMARK INTER:                  -8.319
REMARK INTRA:                  -0.360
REMARK UNBOUND:                -0.478
REMARK  2 active torsions:
REMARK  status: ('A' for Active; 'I' for Inactive)
REMARK    1  A    between atoms: C5_4  and  O7_13 
REMARK    2  A    between atoms: C8_10  and  O7_13 
ROOT
HETATM    1  O7    D T 300       5.080   3.335  -7.101  1.00 46.51    -0.304 OA
ENDROOT
BRANCH   1   2
HETATM    2  C5    D T 300       5.722   2.976  -8.266  1.00 44.54     0.125 A 
HETATM    3  C6    D T 300       7.210   2.846  -8.272  1.00 44.38     0.154 A 
HETATM    4  C1    D T 300       7.851   2.490  -9.459  1.00 43.97     0.041 A 
HETATM    5  O17   D T 300       7.916   3.077  -7.170  1.00 43.04    -0.188 OA
HETATM    6  C2    D T 300       7.127   2.244 -10.619  1.00 44.46     0.060 A 
HETATM    7  C3    D T 300       5.721   2.354 -10.622  1.00 44.32     0.014 A 
HETATM    8 CL14   D T 300       8.027   1.782 -12.105  1.00 44.72    -0.082 Cl
HETATM    9  C4    D T 300       5.026   2.719  -9.460  1.00 44.42     0.028 A 
ENDBRANCH   1   2
BRANCH   1  10
HETATM   10  C8    D T 300       4.653   2.486  -6.099  1.00 47.94     0.111 A 
HETATM   11  C9    D T 300       3.954   3.025  -4.897  1.00 48.66     0.081 A 
HETATM   12  C10   D T 300       3.518   2.181  -3.893  1.00 48.78     0.025 A 
HETATM   13 CL16   D T 300       3.630   4.757  -4.648  1.00 51.01    -0.080 Cl
HETATM   14  C11   D T 300       3.719   0.813  -4.004  1.00 48.52     0.059 A 
HETATM   15  C12   D T 300       4.365   0.283  -5.115  1.00 49.14     0.013 A 
HETATM   16 CL15   D T 300       3.126  -0.239  -2.681  1.00 49.12    -0.082 Cl
HETATM   17  C13   D T 300       4.831   1.100  -6.158  1.00 49.45     0.026 A 
ENDBRANCH   1  10
TORSDOF 2
ENDMDL
MODEL 7
REMARK VINA RESULT:    -7.232      1.901      6.072
REMARK INTER + INTRA:          -8.555
REMARK INTER:                  -8.165
REMARK INTRA:                  -0.391
REMARK UNBOUND:                -0.478
REMARK  2 active torsions:
REMARK  status: ('A' for Active; 'I' for Inactive)
REMARK    1  A    between atoms: C5_4  and  O7_13 
REMARK    2  A    between atoms: C8_10  and  O7_13 
ROOT
HETATM    1  O7    D T 300       4.353   2.062  -7.457  1.00 46.51    -0.304 OA
ENDROOT
BRANCH   1   2
HETATM    2  C5    D T 300       5.194   2.086  -8.548  1.00 44.54     0.125 A 
HETATM    3  C6    D T 300       6.060   0.902  -8.832  1.00 44.38     0.154 A 
HETATM    4  C1    D T 300       6.913   0.939  -9.936  1.00 43.97     0.041 A 
HETATM    5  O17   D T 300       6.030  -0.166  -8.041  1.00 43.04    -0.188 OA
HETATM    6  C2    D T 300       6.954   2.047 -10.771  1.00 44.46     0.060 A 
HETATM    7  C3    D T 300       6.135   3.166 -10.520  1.00 44.32     0.014 A 
HETATM    8 CL14   D T 300       8.075   2.014 -12.177  1.00 44.72    -0.082 Cl
HETATM    9  C4    D T 300       5.266   3.187  -9.419  1.00 44.42     0.028 A 
ENDBRANCH   1   2
BRANCH   1  10
HETATM   10  C8    D T 300       4.659   2.461  -6.171  1.00 47.94     0.111 A 
HETATM   11  C9    D T 300       4.606   1.486  -5.043  1.00 48.66     0.081 A 
HETATM   12  C10   D T 300       4.918   1.876  -3.754  1.00 48.78     0.025 A 
HETATM   13 CL16   D T 300       4.145  -0.221  -5.246  1.00 51.01    -0.080 Cl
HETATM   14  C11   D T 300       5.296   3.186  -3.501  1.00 48.52     0.059 A 
HETATM   15  C12   D T 300       5.357   4.114  -4.533  1.00 49.14     0.013 A 
HETATM   16 CL15   D T 300       5.700   3.638  -1.815  1.00 49.12    -0.082 Cl
HETATM   17  C13   D T 300       5.046   3.768  -5.858  1.00 49.45     0.026 A 
ENDBRANCH   1  10
TORSDOF 2
ENDMDL
MODEL 8
REMARK VINA RESULT:    -7.095      8.961     11.921
REMARK INTER + INTRA:          -8.402
REMARK INTER:                  -8.031
REMARK INTRA:                  -0.371
REMARK UNBOUND:                -0.478
REMARK  2 active torsions:
REMARK  status: ('A' for Active; 'I' for Inactive)
REMARK    1  A    between atoms: C5_4  and  O7_13 
REMARK    2  A    between atoms: C8_10  and  O7_13 
ROOT
HETATM    1  O7    D T 300       7.406   6.201   2.809  1.00 46.51    -0.304 OA
ENDROOT
BRANCH   1   2
HETATM    2  C5    D T 300       7.006   6.421   1.509  1.00 44.54     0.125 A 
HETATM    3  C6    D T 300       7.878   7.223   0.599  1.00 44.38     0.154 A 
HETATM    4  C1    D T 300       7.460   7.446  -0.713  1.00 43.97     0.041 A 
HETATM    5  O17   D T 300       9.030   7.727   1.033  1.00 43.04    -0.188 OA
HETATM    6  C2    D T 300       6.260   6.925  -1.180  1.00 44.46     0.060 A 
HETATM    7  C3    D T 300       5.434   6.159  -0.334  1.00 44.32     0.014 A 
HETATM    8 CL14   D T 300       5.796   7.252  -2.887  1.00 44.72    -0.082 Cl
HETATM    9  C4    D T 300       5.800   5.912   0.997  1.00 44.42     0.028 A 
ENDBRANCH   1   2
BRANCH   1  10
HETATM   10  C8    D T 300       7.471   4.984   3.458  1.00 47.94     0.111 A 
HETATM   11  C9    D T 300       8.743   4.204   3.480  1.00 48.66     0.081 A 
HETATM   12  C10   D T 300       8.817   2.989   4.134  1.00 48.78     0.025 A 
HETATM   13 CL16   D T 300      10.239   4.750   2.685  1.00 51.01    -0.080 Cl
HETATM   14  C11   D T 300       7.702   2.487   4.788  1.00 48.52     0.059 A 
HETATM   15  C12   D T 300       6.506   3.194   4.787  1.00 49.14     0.013 A 
HETATM   16 CL15   D T 300       7.853   0.912   5.629  1.00 49.12    -0.082 Cl
HETATM   17  C13   D T 300       6.379   4.430   4.133  1.00 49.45     0.026 A 
ENDBRANCH   1  10
TORSDOF 2
ENDMDL
MODEL 9
REMARK VINA RESULT:    -7.020      2.373      2.757
REMARK INTER + INTRA:          -8.318
REMARK INTER:                  -7.833
REMARK INTRA:                  -0.485
REMARK UNBOUND:                -0.478
REMARK  2 active torsions:
REMARK  status: ('A' for Active; 'I' for Inactive)
REMARK    1  A    between atoms: C5_4  and  O7_13 
REMARK    2  A    between atoms: C8_10  and  O7_13 
ROOT
HETATM    1  O7    D T 300       4.324   2.396  -6.592  1.00 46.51    -0.304 OA
ENDROOT
BRANCH   1   2
HETATM    2  C5    D T 300       4.669   2.726  -5.299  1.00 44.54     0.125 A 
HETATM    3  C6    D T 300       4.452   4.123  -4.817  1.00 44.38     0.154 A 
HETATM    4  C1    D T 300       4.812   4.448  -3.508  1.00 43.97     0.041 A 
HETATM    5  O17   D T 300       3.936   5.046  -5.622  1.00 43.04    -0.188 OA
HETATM    6  C2    D T 300       5.351   3.493  -2.656  1.00 44.46     0.060 A 
HETATM    7  C3    D T 300       5.551   2.170  -3.096  1.00 44.32     0.014 A 
HETATM    8 CL14   D T 300       5.781   3.991  -0.982  1.00 44.72    -0.082 Cl
HETATM    9  C4    D T 300       5.217   1.790  -4.405  1.00 44.42     0.028 A 
ENDBRANCH   1   2
BRANCH   1  10
HETATM   10  C8    D T 300       5.189   2.163  -7.643  1.00 47.94     0.111 A 
HETATM   11  C9    D T 300       5.611   0.773  -7.983  1.00 48.66     0.081 A 
HETATM   12  C10   D T 300       6.470   0.532  -9.038  1.00 48.78     0.025 A 
HETATM   13 CL16   D T 300       5.067  -0.662  -7.081  1.00 51.01    -0.080 Cl
HETATM   14  C11   D T 300       6.940   1.589  -9.802  1.00 48.52     0.059 A 
HETATM   15  C12   D T 300       6.560   2.894  -9.511  1.00 49.14     0.013 A 
HETATM   16 CL15   D T 300       8.043   1.223 -11.166  1.00 49.12    -0.082 Cl
HETATM   17  C13   D T 300       5.693   3.190  -8.446  1.00 49.45     0.026 A 
ENDBRANCH   1  10
TORSDOF 2
ENDMDL
