MODEL 1
REMARK VINA RESULT:    -7.578      0.000      0.000
REMARK INTER + INTRA:          -8.920
REMARK INTER:                  -8.464
REMARK INTRA:                  -0.456
REMARK UNBOUND:                -0.456
REMARK  2 active torsions:
REMARK  status: ('A' for Active; 'I' for Inactive)
REMARK    1  A    between atoms: C5_4  and  O7_13 
REMARK    2  A    between atoms: C8_10  and  O7_13 
ROOT
HETATM    1  O7    D T 300       4.794   0.951  -7.854  1.00 46.51    -0.304 OA
ENDROOT
BRANCH   1   2
HETATM    2  C5    D T 300       3.944   1.652  -7.025  1.00 44.54     0.125 A 
HETATM    3  C6    D T 300       3.009   0.904  -6.132  1.00 44.38     0.154 A 
HETATM    4  C1    D T 300       2.149   1.623  -5.302  1.00 43.97     0.041 A 
HETATM    5  O17   D T 300       2.985  -0.425  -6.135  1.00 43.04    -0.188 OA
HETATM    6  C2    D T 300       2.163   3.012  -5.287  1.00 44.46     0.060 A 
HETATM    7  C3    D T 300       3.047   3.729  -6.117  1.00 44.32     0.014 A 
HETATM    8 CL14   D T 300       1.028   3.864  -4.183  1.00 44.72    -0.082 Cl
HETATM    9  C4    D T 300       3.927   3.057  -6.980  1.00 44.42     0.028 A 
ENDBRANCH   1   2
BRANCH   1  10
HETATM   10  C8    D T 300       5.029   1.197  -9.191  1.00 47.94     0.111 A 
HETATM   11  C9    D T 300       3.956   0.977 -10.202  1.00 48.66     0.081 A 
HETATM   12  C10   D T 300       4.182   1.228 -11.542  1.00 48.78     0.025 A 
HETATM   13 CL16   D T 300       2.330   0.383  -9.790  1.00 51.01    -0.080 Cl
HETATM   14  C11   D T 300       5.418   1.700 -11.958  1.00 48.52     0.059 A 
HETATM   15  C12   D T 300       6.437   1.918 -11.037  1.00 49.14     0.013 A 
HETATM   16 CL15   D T 300       5.659   2.020 -13.705  1.00 49.12    -0.082 Cl
HETATM   17  C13   D T 300       6.256   1.673  -9.665  1.00 49.45     0.026 A 
ENDBRANCH   1  10
TORSDOF 2
ENDMDL
MODEL 2
REMARK VINA RESULT:    -7.492      1.200      6.189
REMARK INTER + INTRA:          -8.824
REMARK INTER:                  -8.372
REMARK INTRA:                  -0.452
REMARK UNBOUND:                -0.456
REMARK  2 active torsions:
REMARK  status: ('A' for Active; 'I' for Inactive)
REMARK    1  A    between atoms: C5_4  and  O7_13 
REMARK    2  A    between atoms: C8_10  and  O7_13 
ROOT
HETATM    1  O7    D T 300       5.019   1.366  -7.701  1.00 46.51    -0.304 OA
ENDROOT
BRANCH   1   2
HETATM    2  C5    D T 300       5.136   1.486  -9.068  1.00 44.54     0.125 A 
HETATM    3  C6    D T 300       6.386   2.063  -9.649  1.00 44.38     0.154 A 
HETATM    4  C1    D T 300       6.492   2.187 -11.034  1.00 43.97     0.041 A 
HETATM    5  O17   D T 300       7.378   2.465  -8.860  1.00 43.04    -0.188 OA
HETATM    6  C2    D T 300       5.464   1.770 -11.870  1.00 44.46     0.060 A 
HETATM    7  C3    D T 300       4.284   1.216 -11.336  1.00 44.32     0.014 A 
HETATM    8 CL14   D T 300       5.681   1.958 -13.646  1.00 44.72    -0.082 Cl
HETATM    9  C4    D T 300       4.120   1.077  -9.950  1.00 44.42     0.028 A 
ENDBRANCH   1   2
BRANCH   1  10
HETATM   10  C8    D T 300       4.080   1.978  -6.896  1.00 47.94     0.111 A 
HETATM   11  C9    D T 300       3.036   1.171  -6.202  1.00 48.66     0.081 A 
HETATM   12  C10   D T 300       2.097   1.776  -5.388  1.00 48.78     0.025 A 
HETATM   13 CL16   D T 300       2.902  -0.597  -6.356  1.00 51.01    -0.080 Cl
HETATM   14  C11   D T 300       2.126   3.150  -5.202  1.00 48.52     0.059 A 
HETATM   15  C12   D T 300       3.091   3.927  -5.834  1.00 49.14     0.013 A 
HETATM   16 CL15   D T 300       0.893   3.886  -4.130  1.00 49.12    -0.082 Cl
HETATM   17  C13   D T 300       4.063   3.359  -6.674  1.00 49.45     0.026 A 
ENDBRANCH   1  10
TORSDOF 2
ENDMDL
MODEL 3
REMARK VINA RESULT:    -7.302      8.987     11.932
REMARK INTER + INTRA:          -8.612
REMARK INTER:                  -8.173
REMARK INTRA:                  -0.438
REMARK UNBOUND:                -0.456
REMARK  2 active torsions:
REMARK  status: ('A' for Active; 'I' for Inactive)
REMARK    1  A    between atoms: C5_4  and  O7_13 
REMARK    2  A    between atoms: C8_10  and  O7_13 
ROOT
HETATM    1  O7    D T 300       5.506   6.696   1.855  1.00 46.51    -0.304 OA
ENDROOT
BRANCH   1   2
HETATM    2  C5    D T 300       5.049   6.677   0.555  1.00 44.54     0.125 A 
HETATM    3  C6    D T 300       5.059   7.940  -0.243  1.00 44.38     0.154 A 
HETATM    4  C1    D T 300       4.589   7.913  -1.557  1.00 43.97     0.041 A 
HETATM    5  O17   D T 300       5.497   9.077   0.290  1.00 43.04    -0.188 OA
HETATM    6  C2    D T 300       4.130   6.732  -2.127  1.00 44.46     0.060 A 
HETATM    7  C3    D T 300       4.124   5.533  -1.388  1.00 44.32     0.014 A 
HETATM    8 CL14   D T 300       3.547   6.779  -3.828  1.00 44.72    -0.082 Cl
HETATM    9  C4    D T 300       4.576   5.505  -0.060  1.00 44.42     0.028 A 
ENDBRANCH   1   2
BRANCH   1  10
HETATM   10  C8    D T 300       6.573   5.984   2.364  1.00 47.94     0.111 A 
HETATM   11  C9    D T 300       6.370   4.997   3.463  1.00 48.66     0.081 A 
HETATM   12  C10   D T 300       7.432   4.275   3.972  1.00 48.78     0.025 A 
HETATM   13 CL16   D T 300       4.785   4.669   4.204  1.00 51.01    -0.080 Cl
HETATM   14  C11   D T 300       8.705   4.458   3.453  1.00 48.52     0.059 A 
HETATM   15  C12   D T 300       8.924   5.370   2.425  1.00 49.14     0.013 A 
HETATM   16 CL15   D T 300      10.048   3.491   4.141  1.00 49.12    -0.082 Cl
HETATM   17  C13   D T 300       7.876   6.130   1.878  1.00 49.45     0.026 A 
ENDBRANCH   1  10
TORSDOF 2
ENDMDL
MODEL 4
REMARK VINA RESULT:    -7.293      1.714      2.087
REMARK INTER + INTRA:          -8.602
REMARK INTER:                  -8.149
REMARK INTRA:                  -0.453
REMARK UNBOUND:                -0.456
REMARK  2 active torsions:
REMARK  status: ('A' for Active; 'I' for Inactive)
REMARK    1  A    between atoms: C5_4  and  O7_13 
REMARK    2  A    between atoms: C8_10  and  O7_13 
ROOT
HETATM    1  O7    D T 300       5.111   1.516  -6.935  1.00 46.51    -0.304 OA
ENDROOT
BRANCH   1   2
HETATM    2  C5    D T 300       4.091   2.108  -6.222  1.00 44.54     0.125 A 
HETATM    3  C6    D T 300       3.190   1.257  -5.388  1.00 44.38     0.154 A 
HETATM    4  C1    D T 300       2.156   1.864  -4.675  1.00 43.97     0.041 A 
HETATM    5  O17   D T 300       3.359  -0.061  -5.334  1.00 43.04    -0.188 OA
HETATM    6  C2    D T 300       1.967   3.240  -4.721  1.00 44.46     0.060 A 
HETATM    7  C3    D T 300       2.816   4.055  -5.496  1.00 44.32     0.014 A 
HETATM    8 CL14   D T 300       0.616   3.946  -3.768  1.00 44.72    -0.082 Cl
HETATM    9  C4    D T 300       3.865   3.496  -6.241  1.00 44.42     0.028 A 
ENDBRANCH   1   2
BRANCH   1  10
HETATM   10  C8    D T 300       5.285   1.545  -8.304  1.00 47.94     0.111 A 
HETATM   11  C9    D T 300       6.350   2.391  -8.914  1.00 48.66     0.081 A 
HETATM   12  C10   D T 300       6.536   2.418 -10.283  1.00 48.78     0.025 A 
HETATM   13 CL16   D T 300       7.449   3.419  -7.963  1.00 51.01    -0.080 Cl
HETATM   14  C11   D T 300       5.731   1.644 -11.105  1.00 48.52     0.059 A 
HETATM   15  C12   D T 300       4.732   0.843 -10.564  1.00 49.14     0.013 A 
HETATM   16 CL15   D T 300       6.018   1.706 -12.873  1.00 49.12    -0.082 Cl
HETATM   17  C13   D T 300       4.502   0.785  -9.179  1.00 49.45     0.026 A 
ENDBRANCH   1  10
TORSDOF 2
ENDMDL
MODEL 5
REMARK VINA RESULT:    -7.200      3.937      4.765
REMARK INTER + INTRA:          -8.498
REMARK INTER:                  -8.340
REMARK INTRA:                  -0.159
REMARK UNBOUND:                -0.456
REMARK  2 active torsions:
REMARK  status: ('A' for Active; 'I' for Inactive)
REMARK    1  A    between atoms: C5_4  and  O7_13 
REMARK    2  A    between atoms: C8_10  and  O7_13 
ROOT
HETATM    1  O7    D T 300       6.491   2.455  -7.825  1.00 46.51    -0.304 OA
ENDROOT
BRANCH   1   2
HETATM    2  C5    D T 300       7.653   2.319  -7.097  1.00 44.54     0.125 A 
HETATM    3  C6    D T 300       7.620   2.525  -5.618  1.00 44.38     0.154 A 
HETATM    4  C1    D T 300       8.803   2.392  -4.891  1.00 43.97     0.041 A 
HETATM    5  O17   D T 300       6.485   2.845  -5.003  1.00 43.04    -0.188 OA
HETATM    6  C2    D T 300       9.996   2.058  -5.521  1.00 44.46     0.060 A 
HETATM    7  C3    D T 300      10.038   1.851  -6.914  1.00 44.32     0.014 A 
HETATM    8 CL14   D T 300      11.475   1.897  -4.512  1.00 44.72    -0.082 Cl
HETATM    9  C4    D T 300       8.880   1.982  -7.695  1.00 44.42     0.028 A 
ENDBRANCH   1   2
BRANCH   1  10
HETATM   10  C8    D T 300       6.353   2.322  -9.192  1.00 47.94     0.111 A 
HETATM   11  C9    D T 300       5.494   1.248  -9.766  1.00 48.66     0.081 A 
HETATM   12  C10   D T 300       5.345   1.114 -11.133  1.00 48.78     0.025 A 
HETATM   13 CL16   D T 300       4.608   0.067  -8.771  1.00 51.01    -0.080 Cl
HETATM   14  C11   D T 300       5.992   1.993 -11.988  1.00 48.52     0.059 A 
HETATM   15  C12   D T 300       6.797   3.007 -11.481  1.00 49.14     0.013 A 
HETATM   16 CL15   D T 300       5.759   1.783 -13.753  1.00 49.12    -0.082 Cl
HETATM   17  C13   D T 300       6.983   3.180 -10.100  1.00 49.45     0.026 A 
ENDBRANCH   1  10
TORSDOF 2
ENDMDL
MODEL 6
REMARK VINA RESULT:    -7.168      1.472      6.277
REMARK INTER + INTRA:          -8.463
REMARK INTER:                  -8.114
REMARK INTRA:                  -0.349
REMARK UNBOUND:                -0.456
REMARK  2 active torsions:
REMARK  status: ('A' for Active; 'I' for Inactive)
REMARK    1  A    between atoms: C5_4  and  O7_13 
REMARK    2  A    between atoms: C8_10  and  O7_13 
ROOT
HETATM    1  O7    D T 300       4.784   1.073  -7.690  1.00 46.51    -0.304 OA
ENDROOT
BRANCH   1   2
HETATM    2  C5    D T 300       4.922   1.265  -9.047  1.00 44.54     0.125 A 
HETATM    3  C6    D T 300       6.237   1.714  -9.594  1.00 44.38     0.154 A 
HETATM    4  C1    D T 300       6.366   1.912 -10.969  1.00 43.97     0.041 A 
HETATM    5  O17   D T 300       7.269   1.935  -8.785  1.00 43.04    -0.188 OA
HETATM    6  C2    D T 300       5.297   1.684 -11.827  1.00 44.46     0.060 A 
HETATM    7  C3    D T 300       4.053   1.251 -11.325  1.00 44.32     0.014 A 
HETATM    8 CL14   D T 300       5.545   1.955 -13.587  1.00 44.72    -0.082 Cl
HETATM    9  C4    D T 300       3.866   1.046  -9.950  1.00 44.42     0.028 A 
ENDBRANCH   1   2
BRANCH   1  10
HETATM   10  C8    D T 300       3.909   1.730  -6.849  1.00 47.94     0.111 A 
HETATM   11  C9    D T 300       3.987   3.209  -6.680  1.00 48.66     0.081 A 
HETATM   12  C10   D T 300       3.109   3.874  -5.846  1.00 48.78     0.025 A 
HETATM   13 CL16   D T 300       5.188   4.227  -7.511  1.00 51.01    -0.080 Cl
HETATM   14  C11   D T 300       2.134   3.165  -5.161  1.00 48.52     0.059 A 
HETATM   15  C12   D T 300       2.035   1.785  -5.302  1.00 49.14     0.013 A 
HETATM   16 CL15   D T 300       1.013   4.075  -4.099  1.00 49.12    -0.082 Cl
HETATM   17  C13   D T 300       2.907   1.064  -6.135  1.00 49.45     0.026 A 
ENDBRANCH   1  10
TORSDOF 2
ENDMDL
MODEL 7
REMARK VINA RESULT:    -7.117      2.471      2.976
REMARK INTER + INTRA:          -8.405
REMARK INTER:                  -7.974
REMARK INTRA:                  -0.431
REMARK UNBOUND:                -0.456
REMARK  2 active torsions:
REMARK  status: ('A' for Active; 'I' for Inactive)
REMARK    1  A    between atoms: C5_4  and  O7_13 
REMARK    2  A    between atoms: C8_10  and  O7_13 
ROOT
HETATM    1  O7    D T 300       4.161   3.563  -7.597  1.00 46.51    -0.304 OA
ENDROOT
BRANCH   1   2
HETATM    2  C5    D T 300       3.817   2.710  -6.571  1.00 44.54     0.125 A 
HETATM    3  C6    D T 300       2.764   3.124  -5.596  1.00 44.38     0.154 A 
HETATM    4  C1    D T 300       2.427   2.256  -4.556  1.00 43.97     0.041 A 
HETATM    5  O17   D T 300       2.165   4.306  -5.705  1.00 43.04    -0.188 OA
HETATM    6  C2    D T 300       3.045   1.018  -4.430  1.00 44.46     0.060 A 
HETATM    7  C3    D T 300       4.032   0.611  -5.350  1.00 44.32     0.014 A 
HETATM    8 CL14   D T 300       2.549  -0.045  -3.068  1.00 44.72    -0.082 Cl
HETATM    9  C4    D T 300       4.417   1.449  -6.408  1.00 44.42     0.028 A 
ENDBRANCH   1   2
BRANCH   1  10
HETATM   10  C8    D T 300       4.474   3.209  -8.894  1.00 47.94     0.111 A 
HETATM   11  C9    D T 300       5.896   3.066  -9.318  1.00 48.66     0.081 A 
HETATM   12  C10   D T 300       6.216   2.704 -10.612  1.00 48.78     0.025 A 
HETATM   13 CL16   D T 300       7.275   3.343  -8.228  1.00 51.01    -0.080 Cl
HETATM   14  C11   D T 300       5.208   2.460 -11.532  1.00 48.52     0.059 A 
HETATM   15  C12   D T 300       3.872   2.582 -11.164  1.00 49.14     0.013 A 
HETATM   16 CL15   D T 300       5.674   1.984 -13.196  1.00 49.12    -0.082 Cl
HETATM   17  C13   D T 300       3.497   2.952  -9.861  1.00 49.45     0.026 A 
ENDBRANCH   1  10
TORSDOF 2
ENDMDL
MODEL 8
REMARK VINA RESULT:    -7.033      2.164      2.385
REMARK INTER + INTRA:          -8.311
REMARK INTER:                  -7.832
REMARK INTRA:                  -0.479
REMARK UNBOUND:                -0.456
REMARK  2 active torsions:
REMARK  status: ('A' for Active; 'I' for Inactive)
REMARK    1  A    between atoms: C5_4  and  O7_13 
REMARK    2  A    between atoms: C8_10  and  O7_13 
ROOT
HETATM    1  O7    D T 300       2.859   1.960  -7.075  1.00 46.51    -0.304 OA
ENDROOT
BRANCH   1   2
HETATM    2  C5    D T 300       3.238   2.593  -5.911  1.00 44.54     0.125 A 
HETATM    3  C6    D T 300       3.660   1.773  -4.735  1.00 44.38     0.154 A 
HETATM    4  C1    D T 300       4.035   2.422  -3.559  1.00 43.97     0.041 A 
HETATM    5  O17   D T 300       3.666   0.445  -4.801  1.00 43.04    -0.188 OA
HETATM    6  C2    D T 300       4.034   3.809  -3.476  1.00 44.46     0.060 A 
HETATM    7  C3    D T 300       3.648   4.594  -4.580  1.00 44.32     0.014 A 
HETATM    8 CL14   D T 300       4.538   4.570  -1.926  1.00 44.72    -0.082 Cl
HETATM    9  C4    D T 300       3.251   3.993  -5.785  1.00 44.42     0.028 A 
ENDBRANCH   1   2
BRANCH   1  10
HETATM   10  C8    D T 300       3.642   1.751  -8.192  1.00 47.94     0.111 A 
HETATM   11  C9    D T 300       3.661   2.746  -9.301  1.00 48.66     0.081 A 
HETATM   12  C10   D T 300       4.449   2.547 -10.419  1.00 48.78     0.025 A 
HETATM   13 CL16   D T 300       2.694   4.240  -9.293  1.00 51.01    -0.080 Cl
HETATM   14  C11   D T 300       5.243   1.414 -10.512  1.00 48.52     0.059 A 
HETATM   15  C12   D T 300       5.248   0.470  -9.491  1.00 49.14     0.013 A 
HETATM   16 CL15   D T 300       6.254   1.206 -11.977  1.00 49.12    -0.082 Cl
HETATM   17  C13   D T 300       4.461   0.626  -8.338  1.00 49.45     0.026 A 
ENDBRANCH   1  10
TORSDOF 2
ENDMDL
MODEL 9
REMARK VINA RESULT:    -6.872      2.533      2.985
REMARK INTER + INTRA:          -8.132
REMARK INTER:                  -7.654
REMARK INTRA:                  -0.478
REMARK UNBOUND:                -0.456
REMARK  2 active torsions:
REMARK  status: ('A' for Active; 'I' for Inactive)
REMARK    1  A    between atoms: C5_4  and  O7_13 
REMARK    2  A    between atoms: C8_10  and  O7_13 
ROOT
HETATM    1  O7    D T 300       2.880   2.350  -6.902  1.00 46.51    -0.304 OA
ENDROOT
BRANCH   1   2
HETATM    2  C5    D T 300       3.282   2.955  -5.731  1.00 44.54     0.125 A 
HETATM    3  C6    D T 300       2.745   4.305  -5.383  1.00 44.38     0.154 A 
HETATM    4  C1    D T 300       3.163   4.913  -4.198  1.00 43.97     0.041 A 
HETATM    5  O17   D T 300       1.892   4.926  -6.192  1.00 43.04    -0.188 OA
HETATM    6  C2    D T 300       4.052   4.276  -3.343  1.00 44.46     0.060 A 
HETATM    7  C3    D T 300       4.559   2.999  -3.655  1.00 44.32     0.014 A 
HETATM    8 CL14   D T 300       4.536   5.124  -1.832  1.00 44.72    -0.082 Cl
HETATM    9  C4    D T 300       4.180   2.346  -4.838  1.00 44.42     0.028 A 
ENDBRANCH   1   2
BRANCH   1  10
HETATM   10  C8    D T 300       3.657   2.115  -8.018  1.00 47.94     0.111 A 
HETATM   11  C9    D T 300       4.191   0.751  -8.296  1.00 48.66     0.081 A 
HETATM   12  C10   D T 300       4.963   0.508  -9.416  1.00 48.78     0.025 A 
HETATM   13 CL16   D T 300       3.897  -0.650  -7.240  1.00 51.01    -0.080 Cl
HETATM   14  C11   D T 300       5.240   1.538 -10.303  1.00 48.52     0.059 A 
HETATM   15  C12   D T 300       4.752   2.819 -10.070  1.00 49.14     0.013 A 
HETATM   16 CL15   D T 300       6.237   1.169 -11.746  1.00 49.12    -0.082 Cl
HETATM   17  C13   D T 300       3.967   3.117  -8.944  1.00 49.45     0.026 A 
ENDBRANCH   1  10
TORSDOF 2
ENDMDL
