MODEL 1
REMARK VINA RESULT:      -8.1      0.000      0.000
REMARK  2 active torsions:
REMARK  status: ('A' for Active; 'I' for Inactive)
REMARK    1  A    between atoms: C5_4  and  O7_13 
REMARK    2  A    between atoms: C8_10  and  O7_13 
ROOT
HETATM    1  O7    D T 300      23.257   7.036  17.204  1.00 46.51    -0.304 OA
ENDROOT
BRANCH   1   2
HETATM    2  C5    D T 300      23.265   8.394  17.436  1.00 44.54     0.125 A 
HETATM    3  C6    D T 300      21.993   9.168  17.305  1.00 44.38     0.154 A 
HETATM    4  C1    D T 300      22.013  10.544  17.535  1.00 43.97     0.041 A 
HETATM    5  O17   D T 300      20.862   8.560  16.962  1.00 43.04    -0.188 OA
HETATM    6  C2    D T 300      23.189  11.192  17.895  1.00 44.46     0.060 A 
HETATM    7  C3    D T 300      24.392  10.472  18.031  1.00 44.32     0.014 A 
HETATM    8 CL14   D T 300      23.129  12.966  18.182  1.00 44.72    -0.082 Cl
HETATM    9  C4    D T 300      24.431   9.088  17.801  1.00 44.42     0.028 A 
ENDBRANCH   1   2
BRANCH   1  10
HETATM   10  C8    D T 300      24.017   6.354  16.274  1.00 47.94     0.111 A 
HETATM   11  C9    D T 300      24.641   5.045  16.621  1.00 48.66     0.081 A 
HETATM   12  C10   D T 300      25.396   4.353  15.694  1.00 48.78     0.025 A 
HETATM   13 CL16   D T 300      24.483   4.278  18.219  1.00 51.01    -0.080 Cl
HETATM   14  C11   D T 300      25.569   4.869  14.418  1.00 48.52     0.059 A 
HETATM   15  C12   D T 300      24.995   6.085  14.066  1.00 49.14     0.013 A 
HETATM   16 CL15   D T 300      26.548   3.928  13.249  1.00 49.12    -0.082 Cl
HETATM   17  C13   D T 300      24.223   6.828  14.975  1.00 49.45     0.026 A 
ENDBRANCH   1  10
TORSDOF 2
ENDMDL
MODEL 2
REMARK VINA RESULT:      -8.0      1.918      6.283
REMARK  2 active torsions:
REMARK  status: ('A' for Active; 'I' for Inactive)
REMARK    1  A    between atoms: C5_4  and  O7_13 
REMARK    2  A    between atoms: C8_10  and  O7_13 
ROOT
HETATM    1  O7    D T 300      23.643   7.085  17.243  1.00 46.51    -0.304 OA
ENDROOT
BRANCH   1   2
HETATM    2  C5    D T 300      24.296   6.385  16.253  1.00 44.54     0.125 A 
HETATM    3  C6    D T 300      24.609   4.939  16.463  1.00 44.38     0.154 A 
HETATM    4  C1    D T 300      25.277   4.239  15.458  1.00 43.97     0.041 A 
HETATM    5  O17   D T 300      24.270   4.329  17.595  1.00 43.04    -0.188 OA
HETATM    6  C2    D T 300      25.636   4.864  14.270  1.00 44.46     0.060 A 
HETATM    7  C3    D T 300      25.338   6.224  14.055  1.00 44.32     0.014 A 
HETATM    8 CL14   D T 300      26.488   3.890  13.020  1.00 44.72    -0.082 Cl
HETATM    9  C4    D T 300      24.677   6.978  15.037  1.00 44.42     0.028 A 
ENDBRANCH   1   2
BRANCH   1  10
HETATM   10  C8    D T 300      22.764   8.136  17.068  1.00 47.94     0.111 A 
HETATM   11  C9    D T 300      23.192   9.536  17.348  1.00 48.66     0.081 A 
HETATM   12  C10   D T 300      22.321  10.593  17.167  1.00 48.78     0.025 A 
HETATM   13 CL16   D T 300      24.818   9.964  17.933  1.00 51.01    -0.080 Cl
HETATM   14  C11   D T 300      21.034  10.358  16.708  1.00 48.52     0.059 A 
HETATM   15  C12   D T 300      20.609   9.063  16.434  1.00 49.14     0.013 A 
HETATM   16 CL15   D T 300      19.946  11.763  16.480  1.00 49.12    -0.082 Cl
HETATM   17  C13   D T 300      21.456   7.955  16.607  1.00 49.45     0.026 A 
ENDBRANCH   1  10
TORSDOF 2
ENDMDL
MODEL 3
REMARK VINA RESULT:      -7.9      2.055      2.521
REMARK  2 active torsions:
REMARK  status: ('A' for Active; 'I' for Inactive)
REMARK    1  A    between atoms: C5_4  and  O7_13 
REMARK    2  A    between atoms: C8_10  and  O7_13 
ROOT
HETATM    1  O7    D T 300      24.097   7.688  16.378  1.00 46.51    -0.304 OA
ENDROOT
BRANCH   1   2
HETATM    2  C5    D T 300      22.819   8.196  16.302  1.00 44.54     0.125 A 
HETATM    3  C6    D T 300      22.220   8.853  17.504  1.00 44.38     0.154 A 
HETATM    4  C1    D T 300      20.922   9.358  17.420  1.00 43.97     0.041 A 
HETATM    5  O17   D T 300      22.905   8.944  18.639  1.00 43.04    -0.188 OA
HETATM    6  C2    D T 300      20.195   9.271  16.239  1.00 44.46     0.060 A 
HETATM    7  C3    D T 300      20.753   8.662  15.096  1.00 44.32     0.014 A 
HETATM    8 CL14   D T 300      18.532   9.953  16.211  1.00 44.72    -0.082 Cl
HETATM    9  C4    D T 300      22.050   8.128  15.128  1.00 44.42     0.028 A 
ENDBRANCH   1   2
BRANCH   1  10
HETATM   10  C8    D T 300      24.673   6.771  15.520  1.00 47.94     0.111 A 
HETATM   11  C9    D T 300      24.756   5.331  15.896  1.00 48.66     0.081 A 
HETATM   12  C10   D T 300      25.323   4.407  15.040  1.00 48.78     0.025 A 
HETATM   13 CL16   D T 300      24.157   4.687  17.443  1.00 51.01    -0.080 Cl
HETATM   14  C11   D T 300      25.812   4.814  13.808  1.00 48.52     0.059 A 
HETATM   15  C12   D T 300      25.743   6.150  13.428  1.00 49.14     0.013 A 
HETATM   16 CL15   D T 300      26.528   3.576  12.728  1.00 49.12    -0.082 Cl
HETATM   17  C13   D T 300      25.180   7.128  14.266  1.00 49.45     0.026 A 
ENDBRANCH   1  10
TORSDOF 2
ENDMDL
MODEL 4
REMARK VINA RESULT:      -7.9     10.791     12.878
REMARK  2 active torsions:
REMARK  status: ('A' for Active; 'I' for Inactive)
REMARK    1  A    between atoms: C5_4  and  O7_13 
REMARK    2  A    between atoms: C8_10  and  O7_13 
ROOT
HETATM    1  O7    D T 300      14.067   9.992  10.849  1.00 46.51    -0.304 OA
ENDROOT
BRANCH   1   2
HETATM    2  C5    D T 300      14.469   9.805  12.154  1.00 44.54     0.125 A 
HETATM    3  C6    D T 300      14.198   8.498  12.824  1.00 44.38     0.154 A 
HETATM    4  C1    D T 300      14.602   8.321  14.148  1.00 43.97     0.041 A 
HETATM    5  O17   D T 300      13.570   7.521  12.177  1.00 43.04    -0.188 OA
HETATM    6  C2    D T 300      15.261   9.333  14.836  1.00 44.46     0.060 A 
HETATM    7  C3    D T 300      15.531  10.567  14.211  1.00 44.32     0.014 A 
HETATM    8 CL14   D T 300      15.756   9.023  16.537  1.00 44.72    -0.082 Cl
HETATM    9  C4    D T 300      15.137  10.802  12.886  1.00 44.42     0.028 A 
ENDBRANCH   1   2
BRANCH   1  10
HETATM   10  C8    D T 300      13.355  11.065  10.351  1.00 47.94     0.111 A 
HETATM   11  C9    D T 300      11.998  11.384  10.879  1.00 48.66     0.081 A 
HETATM   12  C10   D T 300      11.283  12.460  10.390  1.00 48.78     0.025 A 
HETATM   13 CL16   D T 300      11.193  10.430  12.148  1.00 51.01    -0.080 Cl
HETATM   14  C11   D T 300      11.832  13.266   9.405  1.00 48.52     0.059 A 
HETATM   15  C12   D T 300      13.098  12.994   8.896  1.00 49.14     0.013 A 
HETATM   16 CL15   D T 300      10.869  14.655   8.811  1.00 49.12    -0.082 Cl
HETATM   17  C13   D T 300      13.862  11.909   9.357  1.00 49.45     0.026 A 
ENDBRANCH   1  10
TORSDOF 2
ENDMDL
MODEL 5
REMARK VINA RESULT:      -7.6     10.861     12.450
REMARK  2 active torsions:
REMARK  status: ('A' for Active; 'I' for Inactive)
REMARK    1  A    between atoms: C5_4  and  O7_13 
REMARK    2  A    between atoms: C8_10  and  O7_13 
ROOT
HETATM    1  O7    D T 300      13.558   9.776  10.982  1.00 46.51    -0.304 OA
ENDROOT
BRANCH   1   2
HETATM    2  C5    D T 300      12.985  10.913  10.457  1.00 44.54     0.125 A 
HETATM    3  C6    D T 300      11.727  11.447  11.062  1.00 44.38     0.154 A 
HETATM    4  C1    D T 300      11.151  12.595  10.519  1.00 43.97     0.041 A 
HETATM    5  O17   D T 300      11.156  10.831  12.093  1.00 43.04    -0.188 OA
HETATM    6  C2    D T 300      11.738  13.249   9.442  1.00 44.46     0.060 A 
HETATM    7  C3    D T 300      12.929  12.762   8.869  1.00 44.32     0.014 A 
HETATM    8 CL14   D T 300      10.937  14.728   8.805  1.00 44.72    -0.082 Cl
HETATM    9  C4    D T 300      13.545  11.605   9.369  1.00 44.42     0.028 A 
ENDBRANCH   1   2
BRANCH   1  10
HETATM   10  C8    D T 300      14.307   9.688  12.139  1.00 47.94     0.111 A 
HETATM   11  C9    D T 300      13.831   8.866  13.289  1.00 48.66     0.081 A 
HETATM   12  C10   D T 300      14.579   8.767  14.446  1.00 48.78     0.025 A 
HETATM   13 CL16   D T 300      12.295   7.967  13.280  1.00 51.01    -0.080 Cl
HETATM   14  C11   D T 300      15.794   9.428  14.543  1.00 48.52     0.059 A 
HETATM   15  C12   D T 300      16.265  10.198  13.485  1.00 49.14     0.013 A 
HETATM   16 CL15   D T 300      16.732   9.260  16.061  1.00 49.12    -0.082 Cl
HETATM   17  C13   D T 300      15.538  10.333  12.289  1.00 49.45     0.026 A 
ENDBRANCH   1  10
TORSDOF 2
ENDMDL
MODEL 6
REMARK VINA RESULT:      -7.5     10.223     12.386
REMARK  2 active torsions:
REMARK  status: ('A' for Active; 'I' for Inactive)
REMARK    1  A    between atoms: C5_4  and  O7_13 
REMARK    2  A    between atoms: C8_10  and  O7_13 
ROOT
HETATM    1  O7    D T 300      13.694   9.501  11.753  1.00 46.51    -0.304 OA
ENDROOT
BRANCH   1   2
HETATM    2  C5    D T 300      14.326   9.482  12.977  1.00 44.54     0.125 A 
HETATM    3  C6    D T 300      14.866   8.192  13.503  1.00 44.38     0.154 A 
HETATM    4  C1    D T 300      15.499   8.182  14.747  1.00 43.97     0.041 A 
HETATM    5  O17   D T 300      14.737   7.068  12.806  1.00 43.04    -0.188 OA
HETATM    6  C2    D T 300      15.642   9.350  15.486  1.00 44.46     0.060 A 
HETATM    7  C3    D T 300      15.145  10.575  14.996  1.00 44.32     0.014 A 
HETATM    8 CL14   D T 300      16.476   9.255  17.076  1.00 44.72    -0.082 Cl
HETATM    9  C4    D T 300      14.492  10.640  13.756  1.00 44.42     0.028 A 
ENDBRANCH   1   2
BRANCH   1  10
HETATM   10  C8    D T 300      13.099  10.590  11.148  1.00 47.94     0.111 A 
HETATM   11  C9    D T 300      13.850  11.407  10.151  1.00 48.66     0.081 A 
HETATM   12  C10   D T 300      13.259  12.493   9.536  1.00 48.78     0.025 A 
HETATM   13 CL16   D T 300      15.533  11.070   9.680  1.00 51.01    -0.080 Cl
HETATM   14  C11   D T 300      11.947  12.828   9.835  1.00 48.52     0.059 A 
HETATM   15  C12   D T 300      11.221  12.083  10.757  1.00 49.14     0.013 A 
HETATM   16 CL15   D T 300      11.223  14.240   9.003  1.00 49.12    -0.082 Cl
HETATM   17  C13   D T 300      11.780  10.972  11.412  1.00 49.45     0.026 A 
ENDBRANCH   1  10
TORSDOF 2
ENDMDL
MODEL 7
REMARK VINA RESULT:      -7.5      2.091      6.399
REMARK  2 active torsions:
REMARK  status: ('A' for Active; 'I' for Inactive)
REMARK    1  A    between atoms: C5_4  and  O7_13 
REMARK    2  A    between atoms: C8_10  and  O7_13 
ROOT
HETATM    1  O7    D T 300      24.054   7.823  16.659  1.00 46.51    -0.304 OA
ENDROOT
BRANCH   1   2
HETATM    2  C5    D T 300      24.516   6.849  15.800  1.00 44.54     0.125 A 
HETATM    3  C6    D T 300      25.051   7.246  14.463  1.00 44.38     0.154 A 
HETATM    4  C1    D T 300      25.510   6.252  13.597  1.00 43.97     0.041 A 
HETATM    5  O17   D T 300      25.078   8.523  14.094  1.00 43.04    -0.188 OA
HETATM    6  C2    D T 300      25.488   4.914  13.970  1.00 44.46     0.060 A 
HETATM    7  C3    D T 300      24.995   4.528  15.232  1.00 44.32     0.014 A 
HETATM    8 CL14   D T 300      26.105   3.695  12.800  1.00 44.72    -0.082 Cl
HETATM    9  C4    D T 300      24.512   5.485  16.137  1.00 44.42     0.028 A 
ENDBRANCH   1   2
BRANCH   1  10
HETATM   10  C8    D T 300      22.878   8.537  16.541  1.00 47.94     0.111 A 
HETATM   11  C9    D T 300      22.904  10.022  16.412  1.00 48.66     0.081 A 
HETATM   12  C10   D T 300      21.733  10.743  16.285  1.00 48.78     0.025 A 
HETATM   13 CL16   D T 300      24.406  10.979  16.417  1.00 51.01    -0.080 Cl
HETATM   14  C11   D T 300      20.513  10.082  16.264  1.00 48.52     0.059 A 
HETATM   15  C12   D T 300      20.459   8.698  16.378  1.00 49.14     0.013 A 
HETATM   16 CL15   D T 300      19.023  11.061  16.087  1.00 49.12    -0.082 Cl
HETATM   17  C13   D T 300      21.623   7.922  16.514  1.00 49.45     0.026 A 
ENDBRANCH   1  10
TORSDOF 2
ENDMDL
MODEL 8
REMARK VINA RESULT:      -7.4      9.557     11.263
REMARK  2 active torsions:
REMARK  status: ('A' for Active; 'I' for Inactive)
REMARK    1  A    between atoms: C5_4  and  O7_13 
REMARK    2  A    between atoms: C8_10  and  O7_13 
ROOT
HETATM    1  O7    D T 300      14.291   8.895  12.422  1.00 46.51    -0.304 OA
ENDROOT
BRANCH   1   2
HETATM    2  C5    D T 300      13.909   9.894  11.554  1.00 44.54     0.125 A 
HETATM    3  C6    D T 300      12.475  10.312  11.504  1.00 44.38     0.154 A 
HETATM    4  C1    D T 300      12.097  11.319  10.616  1.00 43.97     0.041 A 
HETATM    5  O17   D T 300      11.570   9.726  12.281  1.00 43.04    -0.188 OA
HETATM    6  C2    D T 300      13.032  11.941   9.798  1.00 44.46     0.060 A 
HETATM    7  C3    D T 300      14.389  11.563   9.843  1.00 44.32     0.014 A 
HETATM    8 CL14   D T 300      12.465  13.236   8.687  1.00 44.72    -0.082 Cl
HETATM    9  C4    D T 300      14.823  10.548  10.710  1.00 44.42     0.028 A 
ENDBRANCH   1   2
BRANCH   1  10
HETATM   10  C8    D T 300      14.886   9.059  13.658  1.00 47.94     0.111 A 
HETATM   11  C9    D T 300      15.647   7.941  14.287  1.00 48.66     0.081 A 
HETATM   12  C10   D T 300      16.251   8.101  15.519  1.00 48.78     0.025 A 
HETATM   13 CL16   D T 300      15.837   6.341  13.531  1.00 51.01    -0.080 Cl
HETATM   14  C11   D T 300      16.163   9.316  16.180  1.00 48.52     0.059 A 
HETATM   15  C12   D T 300      15.463  10.377  15.616  1.00 49.14     0.013 A 
HETATM   16 CL15   D T 300      16.971   9.476  17.771  1.00 49.12    -0.082 Cl
HETATM   17  C13   D T 300      14.828  10.262  14.368  1.00 49.45     0.026 A 
ENDBRANCH   1  10
TORSDOF 2
ENDMDL
MODEL 9
REMARK VINA RESULT:      -7.3      1.462      6.229
REMARK  2 active torsions:
REMARK  status: ('A' for Active; 'I' for Inactive)
REMARK    1  A    between atoms: C5_4  and  O7_13 
REMARK    2  A    between atoms: C8_10  and  O7_13 
ROOT
HETATM    1  O7    D T 300      23.078   7.145  17.008  1.00 46.51    -0.304 OA
ENDROOT
BRANCH   1   2
HETATM    2  C5    D T 300      23.900   6.400  16.192  1.00 44.54     0.125 A 
HETATM    3  C6    D T 300      24.214   6.897  14.818  1.00 44.38     0.154 A 
HETATM    4  C1    D T 300      25.042   6.132  13.996  1.00 43.97     0.041 A 
HETATM    5  O17   D T 300      23.705   8.043  14.378  1.00 43.04    -0.188 OA
HETATM    6  C2    D T 300      25.583   4.932  14.443  1.00 44.46     0.060 A 
HETATM    7  C3    D T 300      25.302   4.457  15.739  1.00 44.32     0.014 A 
HETATM    8 CL14   D T 300      26.646   4.009  13.324  1.00 44.72    -0.082 Cl
HETATM    9  C4    D T 300      24.467   5.182  16.604  1.00 44.42     0.028 A 
ENDBRANCH   1   2
BRANCH   1  10
HETATM   10  C8    D T 300      23.219   8.483  17.321  1.00 47.94     0.111 A 
HETATM   11  C9    D T 300      22.045   9.400  17.273  1.00 48.66     0.081 A 
HETATM   12  C10   D T 300      22.177  10.737  17.592  1.00 48.78     0.025 A 
HETATM   13 CL16   D T 300      20.410   8.872  16.807  1.00 51.01    -0.080 Cl
HETATM   14  C11   D T 300      23.412  11.239  17.974  1.00 48.52     0.059 A 
HETATM   15  C12   D T 300      24.524  10.406  18.031  1.00 49.14     0.013 A 
HETATM   16 CL15   D T 300      23.529  12.978  18.387  1.00 49.12    -0.082 Cl
HETATM   17  C13   D T 300      24.441   9.040  17.712  1.00 49.45     0.026 A 
ENDBRANCH   1  10
TORSDOF 2
ENDMDL
