MODEL 1
REMARK VINA RESULT:    -7.733      0.000      0.000
REMARK INTER + INTRA:          -9.078
REMARK INTER:                  -8.637
REMARK INTRA:                  -0.441
REMARK UNBOUND:                -0.441
REMARK  2 active torsions:
REMARK  status: ('A' for Active; 'I' for Inactive)
REMARK    1  A    between atoms: C5_4  and  O7_13 
REMARK    2  A    between atoms: C8_10  and  O7_13 
ROOT
HETATM    1  O7    D T 300       5.786   0.488  -7.416  1.00 46.51    -0.304 OA
ENDROOT
BRANCH   1   2
HETATM    2  C5    D T 300       5.034   1.374  -6.676  1.00 44.54     0.125 A 
HETATM    3  C6    D T 300       4.022   0.848  -5.710  1.00 44.38     0.154 A 
HETATM    4  C1    D T 300       3.260   1.752  -4.971  1.00 43.97     0.041 A 
HETATM    5  O17   D T 300       3.839  -0.461  -5.564  1.00 43.04    -0.188 OA
HETATM    6  C2    D T 300       3.441   3.123  -5.112  1.00 44.46     0.060 A 
HETATM    7  C3    D T 300       4.399   3.631  -6.012  1.00 44.32     0.014 A 
HETATM    8 CL14   D T 300       2.424   4.223  -4.116  1.00 44.72    -0.082 Cl
HETATM    9  C4    D T 300       5.185   2.766  -6.788  1.00 44.42     0.028 A 
ENDBRANCH   1   2
BRANCH   1  10
HETATM   10  C8    D T 300       6.221   0.659  -8.714  1.00 47.94     0.111 A 
HETATM   11  C9    D T 300       5.271   0.519  -9.856  1.00 48.66     0.081 A 
HETATM   12  C10   D T 300       5.696   0.696 -11.158  1.00 48.78     0.025 A 
HETATM   13 CL16   D T 300       3.549   0.114  -9.651  1.00 51.01    -0.080 Cl
HETATM   14  C11   D T 300       7.019   1.020 -11.415  1.00 48.52     0.059 A 
HETATM   15  C12   D T 300       7.927   1.162 -10.371  1.00 49.14     0.013 A 
HETATM   16 CL15   D T 300       7.520   1.250 -13.121  1.00 49.12    -0.082 Cl
HETATM   17  C13   D T 300       7.543   0.987  -9.031  1.00 49.45     0.026 A 
ENDBRANCH   1  10
TORSDOF 2
ENDMDL
MODEL 2
REMARK VINA RESULT:    -7.596      1.310      6.094
REMARK INTER + INTRA:          -8.925
REMARK INTER:                  -8.588
REMARK INTRA:                  -0.338
REMARK UNBOUND:                -0.441
REMARK  2 active torsions:
REMARK  status: ('A' for Active; 'I' for Inactive)
REMARK    1  A    between atoms: C5_4  and  O7_13 
REMARK    2  A    between atoms: C8_10  and  O7_13 
ROOT
HETATM    1  O7    D T 300       5.673   0.532  -7.662  1.00 46.51    -0.304 OA
ENDROOT
BRANCH   1   2
HETATM    2  C5    D T 300       6.154   0.732  -8.938  1.00 44.54     0.125 A 
HETATM    3  C6    D T 300       5.210   0.675 -10.094  1.00 44.38     0.154 A 
HETATM    4  C1    D T 300       5.707   0.871 -11.383  1.00 43.97     0.041 A 
HETATM    5  O17   D T 300       3.917   0.430  -9.904  1.00 43.04    -0.188 OA
HETATM    6  C2    D T 300       7.056   1.130 -11.597  1.00 44.46     0.060 A 
HETATM    7  C3    D T 300       7.955   1.196 -10.513  1.00 44.32     0.014 A 
HETATM    8 CL14   D T 300       7.617   1.379 -13.288  1.00 44.72    -0.082 Cl
HETATM    9  C4    D T 300       7.510   0.996  -9.198  1.00 44.42     0.028 A 
ENDBRANCH   1   2
BRANCH   1  10
HETATM   10  C8    D T 300       4.982   1.442  -6.889  1.00 47.94     0.111 A 
HETATM   11  C9    D T 300       4.074   0.978  -5.800  1.00 48.66     0.081 A 
HETATM   12  C10   D T 300       3.384   1.883  -5.018  1.00 48.78     0.025 A 
HETATM   13 CL16   D T 300       3.799  -0.741  -5.424  1.00 51.01    -0.080 Cl
HETATM   14  C11   D T 300       3.541   3.243  -5.233  1.00 48.52     0.059 A 
HETATM   15  C12   D T 300       4.384   3.707  -6.238  1.00 49.14     0.013 A 
HETATM   16 CL15   D T 300       2.632   4.378  -4.185  1.00 49.12    -0.082 Cl
HETATM   17  C13   D T 300       5.103   2.825  -7.063  1.00 49.45     0.026 A 
ENDBRANCH   1  10
TORSDOF 2
ENDMDL
MODEL 3
REMARK VINA RESULT:    -7.467      9.473     12.328
REMARK INTER + INTRA:          -8.781
REMARK INTER:                  -8.384
REMARK INTRA:                  -0.398
REMARK UNBOUND:                -0.441
REMARK  2 active torsions:
REMARK  status: ('A' for Active; 'I' for Inactive)
REMARK    1  A    between atoms: C5_4  and  O7_13 
REMARK    2  A    between atoms: C8_10  and  O7_13 
ROOT
HETATM    1  O7    D T 300       7.393   5.651   3.170  1.00 46.51    -0.304 OA
ENDROOT
BRANCH   1   2
HETATM    2  C5    D T 300       6.921   5.866   1.893  1.00 44.54     0.125 A 
HETATM    3  C6    D T 300       5.636   6.602   1.701  1.00 44.38     0.154 A 
HETATM    4  C1    D T 300       5.162   6.807   0.404  1.00 43.97     0.041 A 
HETATM    5  O17   D T 300       4.944   7.045   2.746  1.00 43.04    -0.188 OA
HETATM    6  C2    D T 300       5.875   6.351  -0.698  1.00 44.46     0.060 A 
HETATM    7  C3    D T 300       7.094   5.664  -0.530  1.00 44.32     0.014 A 
HETATM    8 CL14   D T 300       5.200   6.663  -2.336  1.00 44.72    -0.082 Cl
HETATM    9  C4    D T 300       7.610   5.420   0.752  1.00 44.42     0.028 A 
ENDBRANCH   1   2
BRANCH   1  10
HETATM   10  C8    D T 300       7.651   4.431   3.760  1.00 47.94     0.111 A 
HETATM   11  C9    D T 300       6.592   3.728   4.540  1.00 48.66     0.081 A 
HETATM   12  C10   D T 300       6.840   2.502   5.127  1.00 48.78     0.025 A 
HETATM   13 CL16   D T 300       4.957   4.389   4.786  1.00 51.01    -0.080 Cl
HETATM   14  C11   D T 300       8.083   1.906   4.984  1.00 48.52     0.059 A 
HETATM   15  C12   D T 300       9.089   2.535   4.258  1.00 49.14     0.013 A 
HETATM   16 CL15   D T 300       8.352   0.311   5.756  1.00 49.12    -0.082 Cl
HETATM   17  C13   D T 300       8.886   3.784   3.647  1.00 49.45     0.026 A 
ENDBRANCH   1  10
TORSDOF 2
ENDMDL
MODEL 4
REMARK VINA RESULT:    -7.336      2.467      6.402
REMARK INTER + INTRA:          -8.634
REMARK INTER:                  -8.178
REMARK INTRA:                  -0.456
REMARK UNBOUND:                -0.441
REMARK  2 active torsions:
REMARK  status: ('A' for Active; 'I' for Inactive)
REMARK    1  A    between atoms: C5_4  and  O7_13 
REMARK    2  A    between atoms: C8_10  and  O7_13 
ROOT
HETATM    1  O7    D T 300       6.144   2.899  -7.373  1.00 46.51    -0.304 OA
ENDROOT
BRANCH   1   2
HETATM    2  C5    D T 300       6.475   2.474  -8.641  1.00 44.54     0.125 A 
HETATM    3  C6    D T 300       5.612   2.868  -9.795  1.00 44.38     0.154 A 
HETATM    4  C1    D T 300       5.952   2.426 -11.074  1.00 43.97     0.041 A 
HETATM    5  O17   D T 300       4.531   3.618  -9.609  1.00 43.04    -0.188 OA
HETATM    6  C2    D T 300       7.081   1.644 -11.284  1.00 44.46     0.060 A 
HETATM    7  C3    D T 300       7.908   1.273 -10.204  1.00 44.32     0.014 A 
HETATM    8 CL14   D T 300       7.455   1.121 -12.964  1.00 44.72    -0.082 Cl
HETATM    9  C4    D T 300       7.607   1.681  -8.896  1.00 44.42     0.028 A 
ENDBRANCH   1   2
BRANCH   1  10
HETATM   10  C8    D T 300       5.473   2.174  -6.409  1.00 47.94     0.111 A 
HETATM   11  C9    D T 300       6.165   1.762  -5.153  1.00 48.66     0.081 A 
HETATM   12  C10   D T 300       5.499   1.042  -4.180  1.00 48.78     0.025 A 
HETATM   13 CL16   D T 300       7.869   2.142  -4.806  1.00 51.01    -0.080 Cl
HETATM   14  C11   D T 300       4.166   0.706  -4.360  1.00 48.52     0.059 A 
HETATM   15  C12   D T 300       3.493   1.081  -5.519  1.00 49.14     0.013 A 
HETATM   16 CL15   D T 300       3.343  -0.219  -3.064  1.00 49.12    -0.082 Cl
HETATM   17  C13   D T 300       4.129   1.809  -6.538  1.00 49.45     0.026 A 
ENDBRANCH   1  10
TORSDOF 2
ENDMDL
MODEL 5
REMARK VINA RESULT:    -7.232      2.059      6.322
REMARK INTER + INTRA:          -8.518
REMARK INTER:                  -8.160
REMARK INTRA:                  -0.358
REMARK UNBOUND:                -0.441
REMARK  2 active torsions:
REMARK  status: ('A' for Active; 'I' for Inactive)
REMARK    1  A    between atoms: C5_4  and  O7_13 
REMARK    2  A    between atoms: C8_10  and  O7_13 
ROOT
HETATM    1  O7    D T 300       5.339   3.156  -7.407  1.00 46.51    -0.304 OA
ENDROOT
BRANCH   1   2
HETATM    2  C5    D T 300       5.830   2.699  -8.611  1.00 44.54     0.125 A 
HETATM    3  C6    D T 300       7.283   2.377  -8.736  1.00 44.38     0.154 A 
HETATM    4  C1    D T 300       7.772   1.923  -9.961  1.00 43.97     0.041 A 
HETATM    5  O17   D T 300       8.104   2.532  -7.702  1.00 43.04    -0.188 OA
HETATM    6  C2    D T 300       6.925   1.754 -11.050  1.00 44.46     0.060 A 
HETATM    7  C3    D T 300       5.550   2.045 -10.942  1.00 44.32     0.014 A 
HETATM    8 CL14   D T 300       7.632   1.156 -12.593  1.00 44.72    -0.082 Cl
HETATM    9  C4    D T 300       5.009   2.516  -9.737  1.00 44.42     0.028 A 
ENDBRANCH   1   2
BRANCH   1  10
HETATM   10  C8    D T 300       4.839   2.388  -6.375  1.00 47.94     0.111 A 
HETATM   11  C9    D T 300       3.896   2.977  -5.381  1.00 48.66     0.081 A 
HETATM   12  C10   D T 300       3.386   2.213  -4.349  1.00 48.78     0.025 A 
HETATM   13 CL16   D T 300       3.363   4.675  -5.426  1.00 51.01    -0.080 Cl
HETATM   14  C11   D T 300       3.740   0.877  -4.237  1.00 48.52     0.059 A 
HETATM   15  C12   D T 300       4.613   0.299  -5.153  1.00 49.14     0.013 A 
HETATM   16 CL15   D T 300       3.042  -0.074  -2.889  1.00 49.12    -0.082 Cl
HETATM   17  C13   D T 300       5.162   1.037  -6.215  1.00 49.45     0.026 A 
ENDBRANCH   1  10
TORSDOF 2
ENDMDL
MODEL 6
REMARK VINA RESULT:    -7.221      1.900      6.057
REMARK INTER + INTRA:          -8.506
REMARK INTER:                  -8.102
REMARK INTRA:                  -0.404
REMARK UNBOUND:                -0.441
REMARK  2 active torsions:
REMARK  status: ('A' for Active; 'I' for Inactive)
REMARK    1  A    between atoms: C5_4  and  O7_13 
REMARK    2  A    between atoms: C8_10  and  O7_13 
ROOT
HETATM    1  O7    D T 300       4.182   1.489  -7.838  1.00 46.51    -0.304 OA
ENDROOT
BRANCH   1   2
HETATM    2  C5    D T 300       4.972   1.482  -8.967  1.00 44.54     0.125 A 
HETATM    3  C6    D T 300       5.943   0.365  -9.176  1.00 44.38     0.154 A 
HETATM    4  C1    D T 300       6.744   0.371 -10.318  1.00 43.97     0.041 A 
HETATM    5  O17   D T 300       6.054  -0.613  -8.283  1.00 43.04    -0.188 OA
HETATM    6  C2    D T 300       6.637   1.387 -11.260  1.00 44.46     0.060 A 
HETATM    7  C3    D T 300       5.718   2.440 -11.080  1.00 44.32     0.014 A 
HETATM    8 CL14   D T 300       7.700   1.318 -12.710  1.00 44.72    -0.082 Cl
HETATM    9  C4    D T 300       4.897   2.489  -9.944  1.00 44.42     0.028 A 
ENDBRANCH   1   2
BRANCH   1  10
HETATM   10  C8    D T 300       4.536   1.949  -6.586  1.00 47.94     0.111 A 
HETATM   11  C9    D T 300       4.478   1.045  -5.401  1.00 48.66     0.081 A 
HETATM   12  C10   D T 300       4.838   1.497  -4.146  1.00 48.78     0.025 A 
HETATM   13 CL16   D T 300       3.946  -0.651  -5.491  1.00 51.01    -0.080 Cl
HETATM   14  C11   D T 300       5.272   2.803  -3.980  1.00 48.52     0.059 A 
HETATM   15  C12   D T 300       5.341   3.668  -5.067  1.00 49.14     0.013 A 
HETATM   16 CL15   D T 300       5.737   3.338  -2.334  1.00 49.12    -0.082 Cl
HETATM   17  C13   D T 300       4.981   3.257  -6.361  1.00 49.45     0.026 A 
ENDBRANCH   1  10
TORSDOF 2
ENDMDL
MODEL 7
REMARK VINA RESULT:    -7.195      9.001     11.486
REMARK INTER + INTRA:          -8.477
REMARK INTER:                  -8.033
REMARK INTRA:                  -0.445
REMARK UNBOUND:                -0.441
REMARK  2 active torsions:
REMARK  status: ('A' for Active; 'I' for Inactive)
REMARK    1  A    between atoms: C5_4  and  O7_13 
REMARK    2  A    between atoms: C8_10  and  O7_13 
ROOT
HETATM    1  O7    D T 300       6.151   5.980   2.620  1.00 46.51    -0.304 OA
ENDROOT
BRANCH   1   2
HETATM    2  C5    D T 300       7.068   5.101   3.154  1.00 44.54     0.125 A 
HETATM    3  C6    D T 300       6.622   4.106   4.175  1.00 44.38     0.154 A 
HETATM    4  C1    D T 300       7.559   3.225   4.715  1.00 43.97     0.041 A 
HETATM    5  O17   D T 300       5.355   4.065   4.574  1.00 43.04    -0.188 OA
HETATM    6  C2    D T 300       8.887   3.255   4.306  1.00 44.46     0.060 A 
HETATM    7  C3    D T 300       9.318   4.183   3.336  1.00 44.32     0.014 A 
HETATM    8 CL14   D T 300      10.032   2.081   5.045  1.00 44.72    -0.082 Cl
HETATM    9  C4    D T 300       8.420   5.098   2.769  1.00 44.42     0.028 A 
ENDBRANCH   1   2
BRANCH   1  10
HETATM   10  C8    D T 300       5.879   6.176   1.282  1.00 47.94     0.111 A 
HETATM   11  C9    D T 300       6.267   7.449   0.608  1.00 48.66     0.081 A 
HETATM   12  C10   D T 300       6.005   7.651  -0.733  1.00 48.78     0.025 A 
HETATM   13 CL16   D T 300       7.075   8.794   1.451  1.00 51.01    -0.080 Cl
HETATM   14  C11   D T 300       5.384   6.656  -1.473  1.00 48.52     0.059 A 
HETATM   15  C12   D T 300       5.015   5.456  -0.874  1.00 49.14     0.013 A 
HETATM   16 CL15   D T 300       5.075   6.961  -3.212  1.00 49.12    -0.082 Cl
HETATM   17  C13   D T 300       5.256   5.207   0.488  1.00 49.45     0.026 A 
ENDBRANCH   1  10
TORSDOF 2
ENDMDL
MODEL 8
REMARK VINA RESULT:    -7.115      2.111      2.282
REMARK INTER + INTRA:          -8.388
REMARK INTER:                  -7.907
REMARK INTRA:                  -0.481
REMARK UNBOUND:                -0.441
REMARK  2 active torsions:
REMARK  status: ('A' for Active; 'I' for Inactive)
REMARK    1  A    between atoms: C5_4  and  O7_13 
REMARK    2  A    between atoms: C8_10  and  O7_13 
ROOT
HETATM    1  O7    D T 300       4.129   1.657  -6.893  1.00 46.51    -0.304 OA
ENDROOT
BRANCH   1   2
HETATM    2  C5    D T 300       4.456   2.169  -5.656  1.00 44.54     0.125 A 
HETATM    3  C6    D T 300       4.480   1.260  -4.470  1.00 44.38     0.154 A 
HETATM    4  C1    D T 300       4.805   1.789  -3.220  1.00 43.97     0.041 A 
HETATM    5  O17   D T 300       4.186  -0.030  -4.597  1.00 43.04    -0.188 OA
HETATM    6  C2    D T 300       5.117   3.135  -3.073  1.00 44.46     0.060 A 
HETATM    7  C3    D T 300       5.107   4.000  -4.185  1.00 44.32     0.014 A 
HETATM    8 CL14   D T 300       5.533   3.737  -1.429  1.00 44.72    -0.082 Cl
HETATM    9  C4    D T 300       4.777   3.523  -5.463  1.00 44.42     0.028 A 
ENDBRANCH   1   2
BRANCH   1  10
HETATM   10  C8    D T 300       5.001   1.361  -7.920  1.00 47.94     0.111 A 
HETATM   11  C9    D T 300       5.302   2.372  -8.974  1.00 48.66     0.081 A 
HETATM   12  C10   D T 300       6.180   2.086 -10.001  1.00 48.78     0.025 A 
HETATM   13 CL16   D T 300       4.571   3.995  -9.009  1.00 51.01    -0.080 Cl
HETATM   14  C11   D T 300       6.803   0.849 -10.053  1.00 48.52     0.059 A 
HETATM   15  C12   D T 300       6.546  -0.113  -9.082  1.00 49.14     0.013 A 
HETATM   16 CL15   D T 300       7.942   0.529 -11.400  1.00 49.12    -0.082 Cl
HETATM   17  C13   D T 300       5.658   0.130  -8.021  1.00 49.45     0.026 A 
ENDBRANCH   1  10
TORSDOF 2
ENDMDL
MODEL 9
REMARK VINA RESULT:    -6.987      2.295      2.756
REMARK INTER + INTRA:          -8.245
REMARK INTER:                  -7.777
REMARK INTRA:                  -0.467
REMARK UNBOUND:                -0.441
REMARK  2 active torsions:
REMARK  status: ('A' for Active; 'I' for Inactive)
REMARK    1  A    between atoms: C5_4  and  O7_13 
REMARK    2  A    between atoms: C8_10  and  O7_13 
ROOT
HETATM    1  O7    D T 300       6.085   0.900  -5.984  1.00 46.51    -0.304 OA
ENDROOT
BRANCH   1   2
HETATM    2  C5    D T 300       5.327   1.863  -5.356  1.00 44.54     0.125 A 
HETATM    3  C6    D T 300       5.904   2.612  -4.199  1.00 44.38     0.154 A 
HETATM    4  C1    D T 300       5.125   3.580  -3.564  1.00 43.97     0.041 A 
HETATM    5  O17   D T 300       7.134   2.353  -3.769  1.00 43.04    -0.188 OA
HETATM    6  C2    D T 300       3.837   3.862  -4.004  1.00 44.46     0.060 A 
HETATM    7  C3    D T 300       3.285   3.170  -5.101  1.00 44.32     0.014 A 
HETATM    8 CL14   D T 300       2.901   5.131  -3.138  1.00 44.72    -0.082 Cl
HETATM    9  C4    D T 300       4.021   2.179  -5.768  1.00 44.42     0.028 A 
ENDBRANCH   1   2
BRANCH   1  10
HETATM   10  C8    D T 300       6.430   0.862  -7.320  1.00 47.94     0.111 A 
HETATM   11  C9    D T 300       7.558   1.692  -7.834  1.00 48.66     0.081 A 
HETATM   12  C10   D T 300       7.914   1.655  -9.168  1.00 48.78     0.025 A 
HETATM   13 CL16   D T 300       8.517   2.784  -6.806  1.00 51.01    -0.080 Cl
HETATM   14  C11   D T 300       7.227   0.829 -10.045  1.00 48.52     0.059 A 
HETATM   15  C12   D T 300       6.174   0.039  -9.593  1.00 49.14     0.013 A 
HETATM   16 CL15   D T 300       7.734   0.808 -11.763  1.00 49.12    -0.082 Cl
HETATM   17  C13   D T 300       5.772   0.047  -8.246  1.00 49.45     0.026 A 
ENDBRANCH   1  10
TORSDOF 2
ENDMDL
