MODEL 1
REMARK VINA RESULT:    -8.080      0.000      0.000
REMARK INTER + INTRA:          -9.381
REMARK INTER:                  -9.025
REMARK INTRA:                  -0.356
REMARK UNBOUND:                -0.356
REMARK  2 active torsions:
REMARK  status: ('A' for Active; 'I' for Inactive)
REMARK    1  A    between atoms: C5_4  and  O7_13 
REMARK    2  A    between atoms: C8_10  and  O7_13 
ROOT
HETATM    1  O7    D T 300      23.375   7.121  17.263  1.00 46.51    -0.304 OA
ENDROOT
BRANCH   1   2
HETATM    2  C5    D T 300      23.354   8.482  17.476  1.00 44.54     0.125 A 
HETATM    3  C6    D T 300      22.070   9.229  17.311  1.00 44.38     0.154 A 
HETATM    4  C1    D T 300      22.060  10.608  17.522  1.00 43.97     0.041 A 
HETATM    5  O17   D T 300      20.957   8.596  16.955  1.00 43.04    -0.188 OA
HETATM    6  C2    D T 300      23.215  11.283  17.896  1.00 44.46     0.060 A 
HETATM    7  C3    D T 300      24.429  10.588  18.065  1.00 44.32     0.014 A 
HETATM    8 CL14   D T 300      23.116  13.060  18.157  1.00 44.72    -0.082 Cl
HETATM    9  C4    D T 300      24.499   9.203  17.855  1.00 44.42     0.028 A 
ENDBRANCH   1   2
BRANCH   1  10
HETATM   10  C8    D T 300      24.091   6.450  16.291  1.00 47.94     0.111 A 
HETATM   11  C9    D T 300      24.617   5.079  16.549  1.00 48.66     0.081 A 
HETATM   12  C10   D T 300      25.326   4.398  15.578  1.00 48.78     0.025 A 
HETATM   13 CL16   D T 300      24.391   4.219  18.091  1.00 51.01    -0.080 Cl
HETATM   14  C11   D T 300      25.546   4.986  14.342  1.00 48.52     0.059 A 
HETATM   15  C12   D T 300      25.064   6.262  14.072  1.00 49.14     0.013 A 
HETATM   16 CL15   D T 300      26.463   4.059  13.114  1.00 49.12    -0.082 Cl
HETATM   17  C13   D T 300      24.341   6.996  15.028  1.00 49.45     0.026 A 
ENDBRANCH   1  10
TORSDOF 2
ENDMDL
MODEL 2
REMARK VINA RESULT:    -8.002      1.948      6.293
REMARK INTER + INTRA:          -9.293
REMARK INTER:                  -8.881
REMARK INTRA:                  -0.412
REMARK UNBOUND:                -0.356
REMARK  2 active torsions:
REMARK  status: ('A' for Active; 'I' for Inactive)
REMARK    1  A    between atoms: C5_4  and  O7_13 
REMARK    2  A    between atoms: C8_10  and  O7_13 
ROOT
HETATM    1  O7    D T 300      23.789   7.041  17.211  1.00 46.51    -0.304 OA
ENDROOT
BRANCH   1   2
HETATM    2  C5    D T 300      24.420   6.333  16.212  1.00 44.54     0.125 A 
HETATM    3  C6    D T 300      24.713   4.882  16.416  1.00 44.38     0.154 A 
HETATM    4  C1    D T 300      25.359   4.175  15.401  1.00 43.97     0.041 A 
HETATM    5  O17   D T 300      24.379   4.274  17.550  1.00 43.04    -0.188 OA
HETATM    6  C2    D T 300      25.714   4.796  14.210  1.00 44.46     0.060 A 
HETATM    7  C3    D T 300      25.433   6.162  14.002  1.00 44.32     0.014 A 
HETATM    8 CL14   D T 300      26.536   3.813  12.948  1.00 44.72    -0.082 Cl
HETATM    9  C4    D T 300      24.795   6.923  14.993  1.00 44.42     0.028 A 
ENDBRANCH   1   2
BRANCH   1  10
HETATM   10  C8    D T 300      22.859   8.049  17.047  1.00 47.94     0.111 A 
HETATM   11  C9    D T 300      23.203   9.459  17.389  1.00 48.66     0.081 A 
HETATM   12  C10   D T 300      22.281  10.473  17.220  1.00 48.78     0.025 A 
HETATM   13 CL16   D T 300      24.787   9.951  18.034  1.00 51.01    -0.080 Cl
HETATM   14  C11   D T 300      21.021  10.187  16.716  1.00 48.52     0.059 A 
HETATM   15  C12   D T 300      20.674   8.881  16.385  1.00 49.14     0.013 A 
HETATM   16 CL15   D T 300      19.864  11.539  16.506  1.00 49.12    -0.082 Cl
HETATM   17  C13   D T 300      21.576   7.815  16.543  1.00 49.45     0.026 A 
ENDBRANCH   1  10
TORSDOF 2
ENDMDL
MODEL 3
REMARK VINA RESULT:    -7.912      1.492      6.311
REMARK INTER + INTRA:          -9.193
REMARK INTER:                  -8.832
REMARK INTRA:                  -0.361
REMARK UNBOUND:                -0.356
REMARK  2 active torsions:
REMARK  status: ('A' for Active; 'I' for Inactive)
REMARK    1  A    between atoms: C5_4  and  O7_13 
REMARK    2  A    between atoms: C8_10  and  O7_13 
ROOT
HETATM    1  O7    D T 300      23.396   7.152  17.191  1.00 46.51    -0.304 OA
ENDROOT
BRANCH   1   2
HETATM    2  C5    D T 300      24.133   6.483  16.238  1.00 44.54     0.125 A 
HETATM    3  C6    D T 300      24.526   5.062  16.480  1.00 44.38     0.154 A 
HETATM    4  C1    D T 300      25.278   4.395  15.513  1.00 43.97     0.041 A 
HETATM    5  O17   D T 300      24.178   4.444  17.605  1.00 43.04    -0.188 OA
HETATM    6  C2    D T 300      25.648   5.028  14.333  1.00 44.46     0.060 A 
HETATM    7  C3    D T 300      25.275   6.365  14.088  1.00 44.32     0.014 A 
HETATM    8 CL14   D T 300      26.611   4.097  13.132  1.00 44.72    -0.082 Cl
HETATM    9  C4    D T 300      24.528   7.086  15.031  1.00 44.42     0.028 A 
ENDBRANCH   1   2
BRANCH   1  10
HETATM   10  C8    D T 300      23.387   8.514  17.420  1.00 47.94     0.111 A 
HETATM   11  C9    D T 300      22.154   9.315  17.172  1.00 48.66     0.081 A 
HETATM   12  C10   D T 300      22.135  10.676  17.407  1.00 48.78     0.025 A 
HETATM   13 CL16   D T 300      20.637   8.612  16.562  1.00 51.01    -0.080 Cl
HETATM   14  C11   D T 300      23.269  11.310  17.891  1.00 48.52     0.059 A 
HETATM   15  C12   D T 300      24.431  10.588  18.135  1.00 49.14     0.013 A 
HETATM   16 CL15   D T 300      23.190  13.076  18.189  1.00 49.12    -0.082 Cl
HETATM   17  C13   D T 300      24.502   9.203  17.907  1.00 49.45     0.026 A 
ENDBRANCH   1  10
TORSDOF 2
ENDMDL
MODEL 4
REMARK VINA RESULT:    -7.846     10.733     12.769
REMARK INTER + INTRA:          -9.119
REMARK INTER:                  -8.687
REMARK INTRA:                  -0.431
REMARK UNBOUND:                -0.356
REMARK  2 active torsions:
REMARK  status: ('A' for Active; 'I' for Inactive)
REMARK    1  A    between atoms: C5_4  and  O7_13 
REMARK    2  A    between atoms: C8_10  and  O7_13 
ROOT
HETATM    1  O7    D T 300      14.177   9.970  10.888  1.00 46.51    -0.304 OA
ENDROOT
BRANCH   1   2
HETATM    2  C5    D T 300      14.572   9.786  12.195  1.00 44.54     0.125 A 
HETATM    3  C6    D T 300      14.314   8.473  12.860  1.00 44.38     0.154 A 
HETATM    4  C1    D T 300      14.712   8.298  14.186  1.00 43.97     0.041 A 
HETATM    5  O17   D T 300      13.704   7.489  12.207  1.00 43.04    -0.188 OA
HETATM    6  C2    D T 300      15.353   9.317  14.881  1.00 44.46     0.060 A 
HETATM    7  C3    D T 300      15.610  10.557  14.261  1.00 44.32     0.014 A 
HETATM    8 CL14   D T 300      15.841   9.010  16.584  1.00 44.72    -0.082 Cl
HETATM    9  C4    D T 300      15.222  10.790  12.933  1.00 44.42     0.028 A 
ENDBRANCH   1   2
BRANCH   1  10
HETATM   10  C8    D T 300      13.455  11.036  10.387  1.00 47.94     0.111 A 
HETATM   11  C9    D T 300      12.072  11.309  10.872  1.00 48.66     0.081 A 
HETATM   12  C10   D T 300      11.348  12.378  10.381  1.00 48.78     0.025 A 
HETATM   13 CL16   D T 300      11.247  10.308  12.090  1.00 51.01    -0.080 Cl
HETATM   14  C11   D T 300      11.912  13.219   9.433  1.00 48.52     0.059 A 
HETATM   15  C12   D T 300      13.201  12.990   8.966  1.00 49.14     0.013 A 
HETATM   16 CL15   D T 300      10.935  14.597   8.835  1.00 49.12    -0.082 Cl
HETATM   17  C13   D T 300      13.976  11.914   9.431  1.00 49.45     0.026 A 
ENDBRANCH   1  10
TORSDOF 2
ENDMDL
MODEL 5
REMARK VINA RESULT:    -7.460     10.710     12.379
REMARK INTER + INTRA:          -8.688
REMARK INTER:                  -8.407
REMARK INTRA:                  -0.280
REMARK UNBOUND:                -0.356
REMARK  2 active torsions:
REMARK  status: ('A' for Active; 'I' for Inactive)
REMARK    1  A    between atoms: C5_4  and  O7_13 
REMARK    2  A    between atoms: C8_10  and  O7_13 
ROOT
HETATM    1  O7    D T 300      13.897  10.077  11.239  1.00 46.51    -0.304 OA
ENDROOT
BRANCH   1   2
HETATM    2  C5    D T 300      13.260  11.145  10.646  1.00 44.54     0.125 A 
HETATM    3  C6    D T 300      11.872  11.498  11.072  1.00 44.38     0.154 A 
HETATM    4  C1    D T 300      11.232  12.577  10.461  1.00 43.97     0.041 A 
HETATM    5  O17   D T 300      11.249  10.790  12.009  1.00 43.04    -0.188 OA
HETATM    6  C2    D T 300      11.872  13.327   9.482  1.00 44.46     0.060 A 
HETATM    7  C3    D T 300      13.185  13.009   9.079  1.00 44.32     0.014 A 
HETATM    8 CL14   D T 300      10.982  14.706   8.749  1.00 44.72    -0.082 Cl
HETATM    9  C4    D T 300      13.871  11.929   9.652  1.00 44.42     0.028 A 
ENDBRANCH   1   2
BRANCH   1  10
HETATM   10  C8    D T 300      14.378  10.017  12.532  1.00 47.94     0.111 A 
HETATM   11  C9    D T 300      14.577   8.702  13.206  1.00 48.66     0.081 A 
HETATM   12  C10   D T 300      15.065   8.635  14.497  1.00 48.78     0.025 A 
HETATM   13 CL16   D T 300      14.208   7.141  12.435  1.00 51.01    -0.080 Cl
HETATM   14  C11   D T 300      15.388   9.799  15.176  1.00 48.52     0.059 A 
HETATM   15  C12   D T 300      15.216  11.040  14.571  1.00 49.14     0.013 A 
HETATM   16 CL15   D T 300      16.026   9.658  16.845  1.00 49.12    -0.082 Cl
HETATM   17  C13   D T 300      14.719  11.160  13.262  1.00 49.45     0.026 A 
ENDBRANCH   1  10
TORSDOF 2
ENDMDL
MODEL 6
REMARK VINA RESULT:    -7.445     10.153     12.282
REMARK INTER + INTRA:          -8.672
REMARK INTER:                  -8.263
REMARK INTRA:                  -0.409
REMARK UNBOUND:                -0.356
REMARK  2 active torsions:
REMARK  status: ('A' for Active; 'I' for Inactive)
REMARK    1  A    between atoms: C5_4  and  O7_13 
REMARK    2  A    between atoms: C8_10  and  O7_13 
ROOT
HETATM    1  O7    D T 300      14.204   9.658  11.559  1.00 46.51    -0.304 OA
ENDROOT
BRANCH   1   2
HETATM    2  C5    D T 300      14.672   9.580  12.853  1.00 44.54     0.125 A 
HETATM    3  C6    D T 300      14.951   8.240  13.451  1.00 44.38     0.154 A 
HETATM    4  C1    D T 300      15.418   8.171  14.764  1.00 43.97     0.041 A 
HETATM    5  O17   D T 300      14.746   7.128  12.752  1.00 43.04    -0.188 OA
HETATM    6  C2    D T 300      15.637   9.325  15.507  1.00 44.46     0.060 A 
HETATM    7  C3    D T 300      15.387  10.595  14.950  1.00 44.32     0.014 A 
HETATM    8 CL14   D T 300      16.247   9.151  17.190  1.00 44.72    -0.082 Cl
HETATM    9  C4    D T 300      14.907  10.722  13.638  1.00 44.42     0.028 A 
ENDBRANCH   1   2
BRANCH   1  10
HETATM   10  C8    D T 300      13.479  10.695  11.005  1.00 47.94     0.111 A 
HETATM   11  C9    D T 300      14.124  11.647  10.056  1.00 48.66     0.081 A 
HETATM   12  C10   D T 300      13.404  12.682   9.491  1.00 48.78     0.025 A 
HETATM   13 CL16   D T 300      15.837  11.546   9.581  1.00 51.01    -0.080 Cl
HETATM   14  C11   D T 300      12.060  12.836   9.797  1.00 48.52     0.059 A 
HETATM   15  C12   D T 300      11.431  11.961  10.676  1.00 49.14     0.013 A 
HETATM   16 CL15   D T 300      11.167  14.188   9.032  1.00 49.12    -0.082 Cl
HETATM   17  C13   D T 300      12.123  10.896  11.279  1.00 49.45     0.026 A 
ENDBRANCH   1  10
TORSDOF 2
ENDMDL
MODEL 7
REMARK VINA RESULT:    -7.406     10.154     11.923
REMARK INTER + INTRA:          -8.627
REMARK INTER:                  -8.137
REMARK INTRA:                  -0.491
REMARK UNBOUND:                -0.356
REMARK  2 active torsions:
REMARK  status: ('A' for Active; 'I' for Inactive)
REMARK    1  A    between atoms: C5_4  and  O7_13 
REMARK    2  A    between atoms: C8_10  and  O7_13 
ROOT
HETATM    1  O7    D T 300      14.617  10.067  11.445  1.00 46.51    -0.304 OA
ENDROOT
BRANCH   1   2
HETATM    2  C5    D T 300      13.773  11.014  10.906  1.00 44.54     0.125 A 
HETATM    3  C6    D T 300      14.306  11.982   9.899  1.00 44.38     0.154 A 
HETATM    4  C1    D T 300      13.446  12.942   9.365  1.00 43.97     0.041 A 
HETATM    5  O17   D T 300      15.581  11.940   9.526  1.00 43.04    -0.188 OA
HETATM    6  C2    D T 300      12.110  12.997   9.745  1.00 44.46     0.060 A 
HETATM    7  C3    D T 300      11.594  12.084  10.686  1.00 44.32     0.014 A 
HETATM    8 CL14   D T 300      11.066  14.259   9.004  1.00 44.72    -0.082 Cl
HETATM    9  C4    D T 300      12.417  11.105  11.263  1.00 44.42     0.028 A 
ENDBRANCH   1   2
BRANCH   1  10
HETATM   10  C8    D T 300      15.145  10.063  12.721  1.00 47.94     0.111 A 
HETATM   11  C9    D T 300      14.527   9.231  13.793  1.00 48.66     0.081 A 
HETATM   12  C10   D T 300      15.054   9.216  15.070  1.00 48.78     0.025 A 
HETATM   13 CL16   D T 300      13.088   8.216  13.536  1.00 51.01    -0.080 Cl
HETATM   14  C11   D T 300      16.180   9.971  15.362  1.00 48.52     0.059 A 
HETATM   15  C12   D T 300      16.780  10.752  14.381  1.00 49.14     0.013 A 
HETATM   16 CL15   D T 300      16.831   9.909  17.030  1.00 49.12    -0.082 Cl
HETATM   17  C13   D T 300      16.278  10.805  13.070  1.00 49.45     0.026 A 
ENDBRANCH   1  10
TORSDOF 2
ENDMDL
MODEL 8
REMARK VINA RESULT:    -7.160      9.554     11.446
REMARK INTER + INTRA:          -8.353
REMARK INTER:                  -7.898
REMARK INTRA:                  -0.455
REMARK UNBOUND:                -0.356
REMARK  2 active torsions:
REMARK  status: ('A' for Active; 'I' for Inactive)
REMARK    1  A    between atoms: C5_4  and  O7_13 
REMARK    2  A    between atoms: C8_10  and  O7_13 
ROOT
HETATM    1  O7    D T 300      14.943   8.972  11.823  1.00 46.51    -0.304 OA
ENDROOT
BRANCH   1   2
HETATM    2  C5    D T 300      15.435   9.011  13.109  1.00 44.54     0.125 A 
HETATM    3  C6    D T 300      16.858   9.407  13.337  1.00 44.38     0.154 A 
HETATM    4  C1    D T 300      17.350   9.437  14.642  1.00 43.97     0.041 A 
HETATM    5  O17   D T 300      17.649   9.713  12.313  1.00 43.04    -0.188 OA
HETATM    6  C2    D T 300      16.533   9.121  15.721  1.00 44.46     0.060 A 
HETATM    7  C3    D T 300      15.187   8.756  15.520  1.00 44.32     0.014 A 
HETATM    8 CL14   D T 300      17.241   9.191  17.373  1.00 44.72    -0.082 Cl
HETATM    9  C4    D T 300      14.644   8.699  14.228  1.00 44.42     0.028 A 
ENDBRANCH   1   2
BRANCH   1  10
HETATM   10  C8    D T 300      14.309   9.999  11.150  1.00 47.94     0.111 A 
HETATM   11  C9    D T 300      12.832  10.174  11.254  1.00 48.66     0.081 A 
HETATM   12  C10   D T 300      12.193  11.204  10.591  1.00 48.78     0.025 A 
HETATM   13 CL16   D T 300      11.784   9.100  12.211  1.00 51.01    -0.080 Cl
HETATM   14  C11   D T 300      12.929  12.096   9.826  1.00 48.52     0.059 A 
HETATM   15  C12   D T 300      14.308  11.959   9.714  1.00 49.14     0.013 A 
HETATM   16 CL15   D T 300      12.055  13.420   8.992  1.00 49.12    -0.082 Cl
HETATM   17  C13   D T 300      15.003  10.926  10.366  1.00 49.45     0.026 A 
ENDBRANCH   1  10
TORSDOF 2
ENDMDL
MODEL 9
REMARK VINA RESULT:    -7.109      9.176     11.346
REMARK INTER + INTRA:          -8.296
REMARK INTER:                  -7.822
REMARK INTRA:                  -0.475
REMARK UNBOUND:                -0.356
REMARK  2 active torsions:
REMARK  status: ('A' for Active; 'I' for Inactive)
REMARK    1  A    between atoms: C5_4  and  O7_13 
REMARK    2  A    between atoms: C8_10  and  O7_13 
ROOT
HETATM    1  O7    D T 300      14.037   9.711  13.282  1.00 46.51    -0.304 OA
ENDROOT
BRANCH   1   2
HETATM    2  C5    D T 300      15.308   9.530  13.784  1.00 44.54     0.125 A 
HETATM    3  C6    D T 300      16.093   8.328  13.371  1.00 44.38     0.154 A 
HETATM    4  C1    D T 300      17.377   8.150  13.890  1.00 43.97     0.041 A 
HETATM    5  O17   D T 300      15.577   7.433  12.535  1.00 43.04    -0.188 OA
HETATM    6  C2    D T 300      17.930   9.078  14.764  1.00 44.46     0.060 A 
HETATM    7  C3    D T 300      17.202  10.220  15.153  1.00 44.32     0.014 A 
HETATM    8 CL14   D T 300      19.592   8.779  15.381  1.00 44.72    -0.082 Cl
HETATM    9  C4    D T 300      15.904  10.443  14.670  1.00 44.42     0.028 A 
ENDBRANCH   1   2
BRANCH   1  10
HETATM   10  C8    D T 300      13.683  10.477  12.189  1.00 47.94     0.111 A 
HETATM   11  C9    D T 300      13.324  11.914  12.355  1.00 48.66     0.081 A 
HETATM   12  C10   D T 300      12.976  12.688  11.265  1.00 48.78     0.025 A 
HETATM   13 CL16   D T 300      13.305  12.742  13.931  1.00 51.01    -0.080 Cl
HETATM   14  C11   D T 300      12.970  12.132   9.995  1.00 48.52     0.059 A 
HETATM   15  C12   D T 300      13.304  10.795   9.810  1.00 49.14     0.013 A 
HETATM   16 CL15   D T 300      12.522  13.179   8.613  1.00 49.12    -0.082 Cl
HETATM   17  C13   D T 300      13.660   9.966  10.887  1.00 49.45     0.026 A 
ENDBRANCH   1  10
TORSDOF 2
ENDMDL
