MODEL 1
REMARK VINA RESULT:    -8.088      0.000      0.000
REMARK INTER + INTRA:         -12.576
REMARK INTER:                 -10.926
REMARK INTRA:                  -1.650
REMARK UNBOUND:                -1.650
REMARK  6 active torsions:
REMARK  status: ('A' for Active; 'I' for Inactive)
REMARK    1  A    between atoms: NBC_2  and  CBB_4 
REMARK    2  A    between atoms: CBB_4  and  CBA_5 
REMARK    3  A    between atoms: CBA_5  and  CAY_6 
REMARK    4  A    between atoms: CAY_6  and  NAH_7 
REMARK    5  A    between atoms: CAG_15  and  CAI_16 
REMARK    6  A    between atoms: CAJ_22  and  CAK_23 
ROOT
HETATM    1  CAI   D T1307       2.449   8.162   6.266  1.00 44.72     0.064 A 
HETATM    2  CAT   D T1307       1.648   9.310   5.767  1.00 42.93     0.282 A 
HETATM    3  OAZ   D T1307       0.408   9.484   6.056  1.00 41.82    -0.265 OA
HETATM    4  NAU   D T1307       2.339  10.171   4.950  1.00 41.25    -0.169 NA
HETATM    5  CAV   D T1307       3.602   9.677   4.877  1.00 41.79     0.282 A 
HETATM    6  OAX   D T1307       4.539  10.255   4.195  1.00 43.23    -0.265 OA
HETATM    7  CAJ   D T1307       3.750   8.420   5.636  1.00 41.06     0.064 A 
ENDROOT
BRANCH   1   8
HETATM    8  CAG   D T1307       1.984   7.100   7.237  1.00 45.56     0.023 A 
HETATM    9  CAW   D T1307       2.638   6.796   8.426  1.00 46.69     0.076 A 
HETATM   10  NAH   D T1307       1.903   5.827   9.055  1.00 47.96    -0.326 N 
HETATM   11  CAE   D T1307       0.800   5.548   8.326  1.00 47.40     0.060 A 
HETATM   12  CAF   D T1307      -0.251   4.664   8.561  1.00 46.84     0.017 A 
HETATM   13  CAD   D T1307       0.802   6.347   7.177  1.00 47.14     0.017 A 
HETATM   14  CAA   D T1307      -1.293   4.528   7.649  1.00 46.26     0.002 A 
HETATM   15  CAB   D T1307      -1.288   5.302   6.500  1.00 47.22     0.000 A 
HETATM   16  CAC   D T1307      -0.239   6.215   6.258  1.00 47.34     0.002 A 
BRANCH  10  17
HETATM   17  CAY   D T1307       2.144   5.172  10.352  1.00 47.35     0.108 C 
BRANCH  17  18
HETATM   18  CBA   D T1307       3.011   3.917  10.290  1.00 49.36     0.048 C 
BRANCH  18  19
HETATM   19  CBB   D T1307       4.275   4.150  11.141  1.00 49.76     0.099 C 
BRANCH  19  20
HETATM   20  NBC   D T1307       5.517   4.175  10.342  1.00 50.82    -0.365 N 
HETATM   21  CBD   D T1307       6.738   3.836  11.043  1.00 49.65     0.121 C 
HETATM   22  CBE   D T1307       5.580   4.539   8.915  1.00 51.10     0.121 C 
ENDBRANCH  19  20
ENDBRANCH  18  19
ENDBRANCH  17  18
ENDBRANCH  10  17
ENDBRANCH   1   8
BRANCH   7  23
HETATM   23  CAK   D T1307       4.992   7.668   5.862  1.00 42.28     0.025 A 
HETATM   24  CAM   D T1307       6.087   8.221   6.524  1.00 43.03     0.019 A 
HETATM   25  CAP   D T1307       6.320   9.468   7.188  1.00 40.17     0.002 A 
HETATM   26  CAN   D T1307       7.047   7.205   6.421  1.00 41.89     0.081 A 
HETATM   27  CAQ   D T1307       7.551   9.707   7.791  1.00 40.87     0.000 A 
HETATM   28  CAR   D T1307       8.524   8.692   7.728  1.00 41.97     0.002 A 
HETATM   29  CAS   D T1307       8.285   7.460   7.051  1.00 41.64     0.019 A 
HETATM   30  NAO   D T1307       6.500   6.147   5.709  1.00 41.75    -0.244 NA
HETATM   31  CAL   D T1307       5.217   6.404   5.336  1.00 40.82     0.099 A 
ENDBRANCH   7  23
TORSDOF 6
ENDMDL
MODEL 2
REMARK VINA RESULT:    -7.741      2.277      5.005
REMARK INTER + INTRA:         -12.106
REMARK INTER:                 -10.473
REMARK INTRA:                  -1.633
REMARK UNBOUND:                -1.650
REMARK  6 active torsions:
REMARK  status: ('A' for Active; 'I' for Inactive)
REMARK    1  A    between atoms: NBC_2  and  CBB_4 
REMARK    2  A    between atoms: CBB_4  and  CBA_5 
REMARK    3  A    between atoms: CBA_5  and  CAY_6 
REMARK    4  A    between atoms: CAY_6  and  NAH_7 
REMARK    5  A    between atoms: CAG_15  and  CAI_16 
REMARK    6  A    between atoms: CAJ_22  and  CAK_23 
ROOT
HETATM    1  CAI   D T1307       3.269   6.206   8.182  1.00 44.72     0.064 A 
HETATM    2  CAT   D T1307       2.834   5.340   9.309  1.00 42.93     0.282 A 
HETATM    3  OAZ   D T1307       1.633   5.329   9.767  1.00 41.82    -0.265 OA
HETATM    4  NAU   D T1307       3.830   4.557   9.840  1.00 41.25    -0.169 NA
HETATM    5  CAV   D T1307       4.942   4.829   9.110  1.00 41.79     0.282 A 
HETATM    6  OAX   D T1307       6.079   4.249   9.329  1.00 43.23    -0.265 OA
HETATM    7  CAJ   D T1307       4.693   5.859   8.084  1.00 41.06     0.064 A 
ENDROOT
BRANCH   1   8
HETATM    8  CAG   D T1307       2.385   7.112   7.355  1.00 45.56     0.023 A 
HETATM    9  CAW   D T1307       2.772   8.366   6.896  1.00 46.69     0.076 A 
HETATM   10  NAH   D T1307       1.736   8.860   6.150  1.00 47.96    -0.326 N 
HETATM   11  CAE   D T1307       0.741   7.948   6.092  1.00 47.40     0.060 A 
HETATM   12  CAF   D T1307      -0.490   7.978   5.440  1.00 46.84     0.017 A 
HETATM   13  CAD   D T1307       1.120   6.817   6.826  1.00 47.14     0.017 A 
HETATM   14  CAA   D T1307      -1.378   6.911   5.533  1.00 46.26     0.002 A 
HETATM   15  CAB   D T1307      -1.018   5.797   6.273  1.00 47.22     0.000 A 
HETATM   16  CAC   D T1307       0.234   5.745   6.923  1.00 47.34     0.002 A 
BRANCH  10  17
HETATM   17  CAY   D T1307       1.640  10.138   5.424  1.00 47.35     0.108 C 
BRANCH  17  18
HETATM   18  CBA   D T1307       2.246  10.131   4.023  1.00 49.36     0.048 C 
BRANCH  18  19
HETATM   19  CBB   D T1307       3.731  10.531   4.127  1.00 49.76     0.099 C 
BRANCH  19  20
HETATM   20  NBC   D T1307       4.641   9.554   3.495  1.00 50.82    -0.365 N 
HETATM   21  CBD   D T1307       4.050   8.297   3.086  1.00 49.65     0.121 C 
HETATM   22  CBE   D T1307       6.082   9.777   3.284  1.00 51.10     0.121 C 
ENDBRANCH  19  20
ENDBRANCH  18  19
ENDBRANCH  17  18
ENDBRANCH  10  17
ENDBRANCH   1   8
BRANCH   7  23
HETATM   23  CAK   D T1307       5.632   6.323   7.054  1.00 42.28     0.025 A 
HETATM   24  CAM   D T1307       6.679   7.200   7.341  1.00 43.03     0.019 A 
HETATM   25  CAP   D T1307       7.181   7.784   8.547  1.00 40.17     0.002 A 
HETATM   26  CAN   D T1307       7.232   7.434   6.075  1.00 41.89     0.081 A 
HETATM   27  CAQ   D T1307       8.292   8.620   8.496  1.00 40.87     0.000 A 
HETATM   28  CAR   D T1307       8.887   8.850   7.240  1.00 41.97     0.002 A 
HETATM   29  CAS   D T1307       8.367   8.274   6.044  1.00 41.64     0.019 A 
HETATM   30  NAO   D T1307       6.499   6.727   5.131  1.00 41.75    -0.244 NA
HETATM   31  CAL   D T1307       5.485   6.027   5.706  1.00 40.82     0.099 A 
ENDBRANCH   7  23
TORSDOF 6
ENDMDL
MODEL 3
REMARK VINA RESULT:    -7.324      2.361      7.593
REMARK INTER + INTRA:         -11.543
REMARK INTER:                 -10.236
REMARK INTRA:                  -1.307
REMARK UNBOUND:                -1.650
REMARK  6 active torsions:
REMARK  status: ('A' for Active; 'I' for Inactive)
REMARK    1  A    between atoms: NBC_2  and  CBB_4 
REMARK    2  A    between atoms: CBB_4  and  CBA_5 
REMARK    3  A    between atoms: CBA_5  and  CAY_6 
REMARK    4  A    between atoms: CAY_6  and  NAH_7 
REMARK    5  A    between atoms: CAG_15  and  CAI_16 
REMARK    6  A    between atoms: CAJ_22  and  CAK_23 
ROOT
HETATM    1  CAI   D T1307       4.421   5.908   7.964  1.00 44.72     0.064 A 
HETATM    2  CAT   D T1307       4.634   4.895   9.030  1.00 42.93     0.282 A 
HETATM    3  OAZ   D T1307       5.773   4.349   9.268  1.00 41.82    -0.265 OA
HETATM    4  NAU   D T1307       3.502   4.570   9.738  1.00 41.25    -0.169 NA
HETATM    5  CAV   D T1307       2.510   5.337   9.218  1.00 41.79     0.282 A 
HETATM    6  OAX   D T1307       1.294   5.301   9.664  1.00 43.23    -0.265 OA
HETATM    7  CAJ   D T1307       2.983   6.172   8.097  1.00 41.06     0.064 A 
ENDROOT
BRANCH   1   8
HETATM    8  CAG   D T1307       5.487   6.515   7.079  1.00 45.56     0.023 A 
HETATM    9  CAW   D T1307       5.409   6.566   5.692  1.00 46.69     0.076 A 
HETATM   10  NAH   D T1307       6.523   7.224   5.248  1.00 47.96    -0.326 N 
HETATM   11  CAE   D T1307       7.268   7.621   6.303  1.00 47.40     0.060 A 
HETATM   12  CAF   D T1307       8.461   8.338   6.361  1.00 46.84     0.017 A 
HETATM   13  CAD   D T1307       6.637   7.210   7.483  1.00 47.14     0.017 A 
HETATM   14  CAA   D T1307       9.067   8.626   7.580  1.00 46.26     0.002 A 
HETATM   15  CAB   D T1307       8.459   8.205   8.751  1.00 47.22     0.000 A 
HETATM   16  CAC   D T1307       7.240   7.494   8.708  1.00 47.34     0.002 A 
BRANCH  10  17
HETATM   17  CAY   D T1307       6.915   7.563   3.869  1.00 47.35     0.108 C 
BRANCH  17  18
HETATM   18  CBA   D T1307       6.453   8.935   3.386  1.00 49.36     0.048 C 
BRANCH  18  19
HETATM   19  CBB   D T1307       5.171   8.757   2.550  1.00 49.76     0.099 C 
BRANCH  19  20
HETATM   20  NBC   D T1307       3.979   9.361   3.179  1.00 50.82    -0.365 N 
HETATM   21  CBD   D T1307       2.711   8.721   2.897  1.00 49.65     0.121 C 
HETATM   22  CBE   D T1307       4.009  10.560   4.036  1.00 51.10     0.121 C 
ENDBRANCH  19  20
ENDBRANCH  18  19
ENDBRANCH  17  18
ENDBRANCH  10  17
ENDBRANCH   1   8
BRANCH   7  23
HETATM   23  CAK   D T1307       2.214   7.192   7.371  1.00 42.28     0.025 A 
HETATM   24  CAM   D T1307       0.983   6.913   6.777  1.00 43.03     0.019 A 
HETATM   25  CAP   D T1307       0.133   5.761   6.748  1.00 40.17     0.002 A 
HETATM   26  CAN   D T1307       0.678   8.120   6.134  1.00 41.89     0.081 A 
HETATM   27  CAQ   D T1307      -1.080   5.818   6.069  1.00 40.87     0.000 A 
HETATM   28  CAR   D T1307      -1.426   7.028   5.438  1.00 41.97     0.002 A 
HETATM   29  CAS   D T1307      -0.564   8.164   5.461  1.00 41.64     0.019 A 
HETATM   30  NAO   D T1307       1.715   9.015   6.352  1.00 41.75    -0.244 NA
HETATM   31  CAL   D T1307       2.699   8.466   7.116  1.00 40.82     0.099 A 
ENDBRANCH   7  23
TORSDOF 6
ENDMDL
MODEL 4
REMARK VINA RESULT:    -6.931      3.313      6.998
REMARK INTER + INTRA:         -11.013
REMARK INTER:                  -9.699
REMARK INTRA:                  -1.314
REMARK UNBOUND:                -1.650
REMARK  6 active torsions:
REMARK  status: ('A' for Active; 'I' for Inactive)
REMARK    1  A    between atoms: NBC_2  and  CBB_4 
REMARK    2  A    between atoms: CBB_4  and  CBA_5 
REMARK    3  A    between atoms: CBA_5  and  CAY_6 
REMARK    4  A    between atoms: CAY_6  and  NAH_7 
REMARK    5  A    between atoms: CAG_15  and  CAI_16 
REMARK    6  A    between atoms: CAJ_22  and  CAK_23 
ROOT
HETATM    1  CAI   D T1307       6.853   4.802   9.338  1.00 44.72     0.064 A 
HETATM    2  CAT   D T1307       7.832   4.744   8.221  1.00 42.93     0.282 A 
HETATM    3  OAZ   D T1307       7.534   5.037   7.006  1.00 41.82    -0.265 OA
HETATM    4  NAU   D T1307       9.090   4.331   8.590  1.00 41.25    -0.169 NA
HETATM    5  CAV   D T1307       9.029   4.120   9.930  1.00 41.79     0.282 A 
HETATM    6  OAX   D T1307      10.055   3.734  10.621  1.00 43.23    -0.265 OA
HETATM    7  CAJ   D T1307       7.677   4.357  10.469  1.00 41.06     0.064 A 
ENDROOT
BRANCH   1   8
HETATM    8  CAG   D T1307       5.424   5.290   9.253  1.00 45.56     0.023 A 
HETATM    9  CAW   D T1307       5.038   6.452   8.594  1.00 46.69     0.076 A 
HETATM   10  NAH   D T1307       3.676   6.537   8.689  1.00 47.96    -0.326 N 
HETATM   11  CAE   D T1307       3.197   5.455   9.342  1.00 47.40     0.060 A 
HETATM   12  CAF   D T1307       1.892   5.082   9.658  1.00 46.84     0.017 A 
HETATM   13  CAD   D T1307       4.270   4.630   9.699  1.00 47.14     0.017 A 
HETATM   14  CAA   D T1307       1.631   3.911  10.361  1.00 46.26     0.002 A 
HETATM   15  CAB   D T1307       2.689   3.098  10.735  1.00 47.22     0.000 A 
HETATM   16  CAC   D T1307       4.015   3.455  10.405  1.00 47.34     0.002 A 
BRANCH  10  17
HETATM   17  CAY   D T1307       2.768   7.561   8.145  1.00 47.35     0.108 C 
BRANCH  17  18
HETATM   18  CBA   D T1307       2.312   7.322   6.708  1.00 49.36     0.048 C 
BRANCH  18  19
HETATM   19  CBB   D T1307       0.772   7.248   6.686  1.00 49.76     0.099 C 
BRANCH  19  20
HETATM   20  NBC   D T1307       0.159   8.196   5.734  1.00 50.82    -0.365 N 
HETATM   21  CBD   D T1307      -0.893   7.668   4.890  1.00 49.65     0.121 C 
HETATM   22  CBE   D T1307       0.564   9.605   5.587  1.00 51.10     0.121 C 
ENDBRANCH  19  20
ENDBRANCH  18  19
ENDBRANCH  17  18
ENDBRANCH  10  17
ENDBRANCH   1   8
BRANCH   7  23
HETATM   23  CAK   D T1307       7.273   4.325  11.881  1.00 42.28     0.025 A 
HETATM   24  CAM   D T1307       7.727   5.264  12.807  1.00 43.03     0.019 A 
HETATM   25  CAP   D T1307       8.533   6.443  12.712  1.00 40.17     0.002 A 
HETATM   26  CAN   D T1307       7.178   4.794  14.008  1.00 41.89     0.081 A 
HETATM   27  CAQ   D T1307       8.786   7.198  13.852  1.00 40.87     0.000 A 
HETATM   28  CAR   D T1307       8.223   6.766  15.068  1.00 41.97     0.002 A 
HETATM   29  CAS   D T1307       7.434   5.581  15.152  1.00 41.64     0.019 A 
HETATM   30  NAO   D T1307       6.468   3.630  13.747  1.00 41.75    -0.244 NA
HETATM   31  CAL   D T1307       6.513   3.301  12.428  1.00 40.82     0.099 A 
ENDBRANCH   7  23
TORSDOF 6
ENDMDL
MODEL 5
REMARK VINA RESULT:    -6.807      2.299      5.909
REMARK INTER + INTRA:         -10.844
REMARK INTER:                 -10.773
REMARK INTRA:                  -0.071
REMARK UNBOUND:                -1.650
REMARK  6 active torsions:
REMARK  status: ('A' for Active; 'I' for Inactive)
REMARK    1  A    between atoms: NBC_2  and  CBB_4 
REMARK    2  A    between atoms: CBB_4  and  CBA_5 
REMARK    3  A    between atoms: CBA_5  and  CAY_6 
REMARK    4  A    between atoms: CAY_6  and  NAH_7 
REMARK    5  A    between atoms: CAG_15  and  CAI_16 
REMARK    6  A    between atoms: CAJ_22  and  CAK_23 
ROOT
HETATM    1  CAI   D T1307       2.115   5.717   8.818  1.00 44.72     0.064 A 
HETATM    2  CAT   D T1307       0.690   5.375   9.068  1.00 42.93     0.282 A 
HETATM    3  OAZ   D T1307      -0.292   6.093   8.655  1.00 41.82    -0.265 OA
HETATM    4  NAU   D T1307       0.504   4.227   9.800  1.00 41.25    -0.169 NA
HETATM    5  CAV   D T1307       1.747   3.743  10.051  1.00 41.79     0.282 A 
HETATM    6  OAX   D T1307       1.949   2.648  10.713  1.00 43.23    -0.265 OA
HETATM    7  CAJ   D T1307       2.803   4.618   9.506  1.00 41.06     0.064 A 
ENDROOT
BRANCH   1   8
HETATM    8  CAG   D T1307       2.626   6.871   7.984  1.00 45.56     0.023 A 
HETATM    9  CAW   D T1307       3.899   7.415   8.109  1.00 46.69     0.076 A 
HETATM   10  NAH   D T1307       4.012   8.399   7.164  1.00 47.96    -0.326 N 
HETATM   11  CAE   D T1307       2.879   8.459   6.431  1.00 47.40     0.060 A 
HETATM   12  CAF   D T1307       2.529   9.270   5.353  1.00 46.84     0.017 A 
HETATM   13  CAD   D T1307       1.981   7.494   6.905  1.00 47.14     0.017 A 
HETATM   14  CAA   D T1307       1.278   9.166   4.752  1.00 46.26     0.002 A 
HETATM   15  CAB   D T1307       0.378   8.226   5.228  1.00 47.22     0.000 A 
HETATM   16  CAC   D T1307       0.726   7.386   6.308  1.00 47.34     0.002 A 
BRANCH  10  17
HETATM   17  CAY   D T1307       5.162   9.267   6.859  1.00 47.35     0.108 C 
BRANCH  17  18
HETATM   18  CBA   D T1307       6.499   8.544   6.720  1.00 49.36     0.048 C 
BRANCH  18  19
HETATM   19  CBB   D T1307       6.422   7.595   5.508  1.00 49.76     0.099 C 
BRANCH  19  20
HETATM   20  NBC   D T1307       6.562   8.292   4.214  1.00 50.82    -0.365 N 
HETATM   21  CBD   D T1307       7.855   8.886   3.942  1.00 49.65     0.121 C 
HETATM   22  CBE   D T1307       5.481   8.430   3.223  1.00 51.10     0.121 C 
ENDBRANCH  19  20
ENDBRANCH  18  19
ENDBRANCH  17  18
ENDBRANCH  10  17
ENDBRANCH   1   8
BRANCH   7  23
HETATM   23  CAK   D T1307       4.249   4.357   9.501  1.00 42.28     0.025 A 
HETATM   24  CAM   D T1307       4.969   4.132  10.674  1.00 43.03     0.019 A 
HETATM   25  CAP   D T1307       4.606   4.003  12.053  1.00 40.17     0.002 A 
HETATM   26  CAN   D T1307       6.286   4.032  10.205  1.00 41.89     0.081 A 
HETATM   27  CAQ   D T1307       5.589   3.743  13.002  1.00 40.87     0.000 A 
HETATM   28  CAR   D T1307       6.918   3.609  12.556  1.00 41.97     0.002 A 
HETATM   29  CAS   D T1307       7.268   3.755  11.181  1.00 41.64     0.019 A 
HETATM   30  NAO   D T1307       6.284   4.218   8.830  1.00 41.75    -0.244 NA
HETATM   31  CAL   D T1307       5.027   4.432   8.355  1.00 40.82     0.099 A 
ENDBRANCH   7  23
TORSDOF 6
ENDMDL
MODEL 6
REMARK VINA RESULT:    -6.745      2.361      4.159
REMARK INTER + INTRA:         -10.761
REMARK INTER:                  -9.072
REMARK INTRA:                  -1.689
REMARK UNBOUND:                -1.650
REMARK  6 active torsions:
REMARK  status: ('A' for Active; 'I' for Inactive)
REMARK    1  A    between atoms: NBC_2  and  CBB_4 
REMARK    2  A    between atoms: CBB_4  and  CBA_5 
REMARK    3  A    between atoms: CBA_5  and  CAY_6 
REMARK    4  A    between atoms: CAY_6  and  NAH_7 
REMARK    5  A    between atoms: CAG_15  and  CAI_16 
REMARK    6  A    between atoms: CAJ_22  and  CAK_23 
ROOT
HETATM    1  CAI   D T1307       6.057   8.457   4.816  1.00 44.72     0.064 A 
HETATM    2  CAT   D T1307       6.280   8.729   3.372  1.00 42.93     0.282 A 
HETATM    3  OAZ   D T1307       5.394   8.507   2.467  1.00 41.82    -0.265 OA
HETATM    4  NAU   D T1307       7.526   9.224   3.074  1.00 41.25    -0.169 NA
HETATM    5  CAV   D T1307       8.175   9.328   4.262  1.00 41.79     0.282 A 
HETATM    6  OAX   D T1307       9.384   9.782   4.359  1.00 43.23    -0.265 OA
HETATM    7  CAJ   D T1307       7.352   8.848   5.388  1.00 41.06     0.064 A 
ENDROOT
BRANCH   1   8
HETATM    8  CAG   D T1307       4.767   7.985   5.450  1.00 45.56     0.023 A 
HETATM    9  CAW   D T1307       4.670   6.866   6.270  1.00 46.69     0.076 A 
HETATM   10  NAH   D T1307       3.370   6.785   6.690  1.00 47.96    -0.326 N 
HETATM   11  CAE   D T1307       2.667   7.829   6.199  1.00 47.40     0.060 A 
HETATM   12  CAF   D T1307       1.332   8.191   6.366  1.00 46.84     0.017 A 
HETATM   13  CAD   D T1307       3.520   8.625   5.425  1.00 47.14     0.017 A 
HETATM   14  CAA   D T1307       0.811   9.322   5.742  1.00 46.26     0.002 A 
HETATM   15  CAB   D T1307       1.645  10.103   4.958  1.00 47.22     0.000 A 
HETATM   16  CAC   D T1307       3.004   9.758   4.796  1.00 47.34     0.002 A 
BRANCH  10  17
HETATM   17  CAY   D T1307       2.742   5.801   7.588  1.00 47.35     0.108 C 
BRANCH  17  18
HETATM   18  CBA   D T1307       2.784   6.161   9.070  1.00 49.36     0.048 C 
BRANCH  18  19
HETATM   19  CBB   D T1307       1.695   5.354   9.805  1.00 49.76     0.099 C 
BRANCH  19  20
HETATM   20  NBC   D T1307       2.196   4.086  10.372  1.00 50.82    -0.365 N 
HETATM   21  CBD   D T1307       1.254   2.987  10.417  1.00 49.65     0.121 C 
HETATM   22  CBE   D T1307       3.558   3.892  10.901  1.00 51.10     0.121 C 
ENDBRANCH  19  20
ENDBRANCH  18  19
ENDBRANCH  17  18
ENDBRANCH  10  17
ENDBRANCH   1   8
BRANCH   7  23
HETATM   23  CAK   D T1307       7.690   8.908   6.817  1.00 42.28     0.025 A 
HETATM   24  CAM   D T1307       8.019   7.769   7.552  1.00 43.03     0.019 A 
HETATM   25  CAP   D T1307       8.205   6.390   7.217  1.00 40.17     0.002 A 
HETATM   26  CAN   D T1307       8.163   8.279   8.849  1.00 41.89     0.081 A 
HETATM   27  CAQ   D T1307       8.570   5.484   8.207  1.00 40.87     0.000 A 
HETATM   28  CAR   D T1307       8.750   5.974   9.515  1.00 41.97     0.002 A 
HETATM   29  CAS   D T1307       8.547   7.347   9.839  1.00 41.64     0.019 A 
HETATM   30  NAO   D T1307       7.900   9.642   8.824  1.00 41.75    -0.244 NA
HETATM   31  CAL   D T1307       7.592  10.069   7.570  1.00 40.82     0.099 A 
ENDBRANCH   7  23
TORSDOF 6
ENDMDL
MODEL 7
REMARK VINA RESULT:    -6.730      2.833      5.651
REMARK INTER + INTRA:         -10.741
REMARK INTER:                  -9.213
REMARK INTRA:                  -1.529
REMARK UNBOUND:                -1.650
REMARK  6 active torsions:
REMARK  status: ('A' for Active; 'I' for Inactive)
REMARK    1  A    between atoms: NBC_2  and  CBB_4 
REMARK    2  A    between atoms: CBB_4  and  CBA_5 
REMARK    3  A    between atoms: CBA_5  and  CAY_6 
REMARK    4  A    between atoms: CAY_6  and  NAH_7 
REMARK    5  A    between atoms: CAG_15  and  CAI_16 
REMARK    6  A    between atoms: CAJ_22  and  CAK_23 
ROOT
HETATM    1  CAI   D T1307       6.422   6.193   7.738  1.00 44.72     0.064 A 
HETATM    2  CAT   D T1307       7.061   4.864   7.921  1.00 42.93     0.282 A 
HETATM    3  OAZ   D T1307       6.397   3.787   8.149  1.00 41.82    -0.265 OA
HETATM    4  NAU   D T1307       8.433   4.879   7.845  1.00 41.25    -0.169 NA
HETATM    5  CAV   D T1307       8.774   6.169   7.594  1.00 41.79     0.282 A 
HETATM    6  OAX   D T1307      10.003   6.548   7.443  1.00 43.23    -0.265 OA
HETATM    7  CAJ   D T1307       7.595   7.054   7.542  1.00 41.06     0.064 A 
ENDROOT
BRANCH   1   8
HETATM    8  CAG   D T1307       4.937   6.475   7.694  1.00 45.56     0.023 A 
HETATM    9  CAW   D T1307       4.328   7.282   6.739  1.00 46.69     0.076 A 
HETATM   10  NAH   D T1307       2.983   7.260   6.990  1.00 47.96    -0.326 N 
HETATM   11  CAE   D T1307       2.728   6.441   8.034  1.00 47.40     0.060 A 
HETATM   12  CAF   D T1307       1.526   6.078   8.639  1.00 46.84     0.017 A 
HETATM   13  CAD   D T1307       3.936   5.907   8.496  1.00 47.14     0.017 A 
HETATM   14  CAA   D T1307       1.503   5.214   9.729  1.00 46.26     0.002 A 
HETATM   15  CAB   D T1307       2.697   4.697  10.205  1.00 47.22     0.000 A 
HETATM   16  CAC   D T1307       3.921   5.041   9.590  1.00 47.34     0.002 A 
BRANCH  10  17
HETATM   17  CAY   D T1307       1.890   7.928   6.263  1.00 47.35     0.108 C 
BRANCH  17  18
HETATM   18  CBA   D T1307       2.230   9.312   5.717  1.00 49.36     0.048 C 
BRANCH  18  19
HETATM   19  CBB   D T1307       2.187   9.259   4.178  1.00 49.76     0.099 C 
BRANCH  19  20
HETATM   20  NBC   D T1307       3.511   9.450   3.553  1.00 50.82    -0.365 N 
HETATM   21  CBD   D T1307       4.209   8.248   3.146  1.00 49.65     0.121 C 
HETATM   22  CBE   D T1307       4.151  10.761   3.346  1.00 51.10     0.121 C 
ENDBRANCH  19  20
ENDBRANCH  18  19
ENDBRANCH  17  18
ENDBRANCH  10  17
ENDBRANCH   1   8
BRANCH   7  23
HETATM   23  CAK   D T1307       7.579   8.481   7.192  1.00 42.28     0.025 A 
HETATM   24  CAM   D T1307       7.672   8.925   5.873  1.00 43.03     0.019 A 
HETATM   25  CAP   D T1307       7.715   8.265   4.604  1.00 40.17     0.002 A 
HETATM   26  CAN   D T1307       7.715  10.318   6.026  1.00 41.89     0.081 A 
HETATM   27  CAQ   D T1307       7.782   9.019   3.437  1.00 40.87     0.000 A 
HETATM   28  CAR   D T1307       7.797  10.422   3.559  1.00 41.97     0.002 A 
HETATM   29  CAS   D T1307       7.769  11.068   4.830  1.00 41.64     0.019 A 
HETATM   30  NAO   D T1307       7.669  10.618   7.380  1.00 41.75    -0.244 NA
HETATM   31  CAL   D T1307       7.591   9.493   8.141  1.00 40.82     0.099 A 
ENDBRANCH   7  23
TORSDOF 6
ENDMDL
MODEL 8
REMARK VINA RESULT:    -6.676      2.910      5.806
REMARK INTER + INTRA:         -10.668
REMARK INTER:                  -9.579
REMARK INTRA:                  -1.090
REMARK UNBOUND:                -1.650
REMARK  6 active torsions:
REMARK  status: ('A' for Active; 'I' for Inactive)
REMARK    1  A    between atoms: NBC_2  and  CBB_4 
REMARK    2  A    between atoms: CBB_4  and  CBA_5 
REMARK    3  A    between atoms: CBA_5  and  CAY_6 
REMARK    4  A    between atoms: CAY_6  and  NAH_7 
REMARK    5  A    between atoms: CAG_15  and  CAI_16 
REMARK    6  A    between atoms: CAJ_22  and  CAK_23 
ROOT
HETATM    1  CAI   D T1307       3.789   5.217   9.445  1.00 44.72     0.064 A 
HETATM    2  CAT   D T1307       2.936   4.469  10.405  1.00 42.93     0.282 A 
HETATM    3  OAZ   D T1307       1.702   4.755  10.624  1.00 41.82    -0.265 OA
HETATM    4  NAU   D T1307       3.580   3.448  11.060  1.00 41.25    -0.169 NA
HETATM    5  CAV   D T1307       4.849   3.442  10.576  1.00 41.79     0.282 A 
HETATM    6  OAX   D T1307       5.740   2.587  10.966  1.00 43.23    -0.265 OA
HETATM    7  CAJ   D T1307       5.073   4.521   9.596  1.00 41.06     0.064 A 
ENDROOT
BRANCH   1   8
HETATM    8  CAG   D T1307       3.340   6.334   8.530  1.00 45.56     0.023 A 
HETATM    9  CAW   D T1307       4.116   7.447   8.225  1.00 46.69     0.076 A 
HETATM   10  NAH   D T1307       3.403   8.206   7.337  1.00 47.96    -0.326 N 
HETATM   11  CAE   D T1307       2.236   7.590   7.046  1.00 47.40     0.060 A 
HETATM   12  CAF   D T1307       1.201   7.952   6.187  1.00 46.84     0.017 A 
HETATM   13  CAD   D T1307       2.166   6.390   7.765  1.00 47.14     0.017 A 
HETATM   14  CAA   D T1307       0.067   7.156   6.053  1.00 46.26     0.002 A 
HETATM   15  CAB   D T1307      -0.018   5.978   6.777  1.00 47.22     0.000 A 
HETATM   16  CAC   D T1307       1.032   5.589   7.636  1.00 47.34     0.002 A 
BRANCH  10  17
HETATM   17  CAY   D T1307       3.777   9.472   6.685  1.00 47.35     0.108 C 
BRANCH  17  18
HETATM   18  CBA   D T1307       4.938   9.372   5.700  1.00 49.36     0.048 C 
BRANCH  18  19
HETATM   19  CBB   D T1307       4.367   9.296   4.271  1.00 49.76     0.099 C 
BRANCH  19  20
HETATM   20  NBC   D T1307       5.124  10.109   3.298  1.00 50.82    -0.365 N 
HETATM   21  CBD   D T1307       6.321  10.755   3.795  1.00 49.65     0.121 C 
HETATM   22  CBE   D T1307       4.725  10.309   1.893  1.00 51.10     0.121 C 
ENDBRANCH  19  20
ENDBRANCH  18  19
ENDBRANCH  17  18
ENDBRANCH  10  17
ENDBRANCH   1   8
BRANCH   7  23
HETATM   23  CAK   D T1307       6.286   4.750   8.798  1.00 42.28     0.025 A 
HETATM   24  CAM   D T1307       7.491   5.152   9.375  1.00 43.03     0.019 A 
HETATM   25  CAP   D T1307       7.927   5.357  10.723  1.00 40.17     0.002 A 
HETATM   26  CAN   D T1307       8.314   5.336   8.256  1.00 41.89     0.081 A 
HETATM   27  CAQ   D T1307       9.241   5.742  10.970  1.00 40.87     0.000 A 
HETATM   28  CAR   D T1307      10.098   5.907   9.866  1.00 41.97     0.002 A 
HETATM   29  CAS   D T1307       9.648   5.714   8.527  1.00 41.64     0.019 A 
HETATM   30  NAO   D T1307       7.577   5.066   7.111  1.00 41.75    -0.244 NA
HETATM   31  CAL   D T1307       6.300   4.704   7.412  1.00 40.82     0.099 A 
ENDBRANCH   7  23
TORSDOF 6
ENDMDL
MODEL 9
REMARK VINA RESULT:    -6.627      2.326      5.065
REMARK INTER + INTRA:         -10.601
REMARK INTER:                  -8.802
REMARK INTRA:                  -1.799
REMARK UNBOUND:                -1.650
REMARK  6 active torsions:
REMARK  status: ('A' for Active; 'I' for Inactive)
REMARK    1  A    between atoms: NBC_2  and  CBB_4 
REMARK    2  A    between atoms: CBB_4  and  CBA_5 
REMARK    3  A    between atoms: CBA_5  and  CAY_6 
REMARK    4  A    between atoms: CAY_6  and  NAH_7 
REMARK    5  A    between atoms: CAG_15  and  CAI_16 
REMARK    6  A    between atoms: CAJ_22  and  CAK_23 
ROOT
HETATM    1  CAI   D T1307       5.529   8.332   4.843  1.00 44.72     0.064 A 
HETATM    2  CAT   D T1307       5.046   8.491   3.446  1.00 42.93     0.282 A 
HETATM    3  OAZ   D T1307       3.990   7.915   2.994  1.00 41.82    -0.265 OA
HETATM    4  NAU   D T1307       5.837   9.295   2.661  1.00 41.25    -0.169 NA
HETATM    5  CAV   D T1307       6.843   9.721   3.467  1.00 41.79     0.282 A 
HETATM    6  OAX   D T1307       7.775  10.521   3.054  1.00 43.23    -0.265 OA
HETATM    7  CAJ   D T1307       6.748   9.151   4.824  1.00 41.06     0.064 A 
ENDROOT
BRANCH   1   8
HETATM    8  CAG   D T1307       4.831   7.575   5.951  1.00 45.56     0.023 A 
HETATM    9  CAW   D T1307       3.493   7.748   6.287  1.00 46.69     0.076 A 
HETATM   10  NAH   D T1307       3.212   6.866   7.294  1.00 47.96    -0.326 N 
HETATM   11  CAE   D T1307       4.307   6.123   7.568  1.00 47.40     0.060 A 
HETATM   12  CAF   D T1307       4.506   5.091   8.482  1.00 46.84     0.017 A 
HETATM   13  CAD   D T1307       5.350   6.527   6.725  1.00 47.14     0.017 A 
HETATM   14  CAA   D T1307       5.745   4.468   8.604  1.00 46.26     0.002 A 
HETATM   15  CAB   D T1307       6.787   4.876   7.787  1.00 47.22     0.000 A 
HETATM   16  CAC   D T1307       6.594   5.908   6.843  1.00 47.34     0.002 A 
BRANCH  10  17
HETATM   17  CAY   D T1307       1.938   6.628   7.994  1.00 47.35     0.108 C 
BRANCH  17  18
HETATM   18  CBA   D T1307       0.815   6.075   7.120  1.00 49.36     0.048 C 
BRANCH  18  19
HETATM   19  CBB   D T1307      -0.340   7.095   7.099  1.00 49.76     0.099 C 
BRANCH  19  20
HETATM   20  NBC   D T1307      -0.469   7.801   5.808  1.00 50.82    -0.365 N 
HETATM   21  CBD   D T1307       0.125   9.120   5.736  1.00 49.65     0.121 C 
HETATM   22  CBE   D T1307      -1.168   7.259   4.630  1.00 51.10     0.121 C 
ENDBRANCH  19  20
ENDBRANCH  18  19
ENDBRANCH  17  18
ENDBRANCH  10  17
ENDBRANCH   1   8
BRANCH   7  23
HETATM   23  CAK   D T1307       7.600   9.470   5.977  1.00 42.28     0.025 A 
HETATM   24  CAM   D T1307       8.925   9.043   6.065  1.00 43.03     0.019 A 
HETATM   25  CAP   D T1307       9.803   8.343   5.177  1.00 40.17     0.002 A 
HETATM   26  CAN   D T1307       9.299   9.483   7.342  1.00 41.89     0.081 A 
HETATM   27  CAQ   D T1307      11.114   8.089   5.566  1.00 40.87     0.000 A 
HETATM   28  CAR   D T1307      11.527   8.545   6.832  1.00 41.97     0.002 A 
HETATM   29  CAS   D T1307      10.638   9.228   7.713  1.00 41.64     0.019 A 
HETATM   30  NAO   D T1307       8.211  10.108   7.934  1.00 41.75    -0.244 NA
HETATM   31  CAL   D T1307       7.127  10.111   7.113  1.00 40.82     0.099 A 
ENDBRANCH   7  23
TORSDOF 6
ENDMDL
