MODEL 1
REMARK VINA RESULT:    -8.983      0.000      0.000
REMARK INTER + INTRA:         -13.298
REMARK INTER:                 -12.133
REMARK INTRA:                  -1.164
REMARK UNBOUND:                -1.164
REMARK  6 active torsions:
REMARK  status: ('A' for Active; 'I' for Inactive)
REMARK    1  A    between atoms: NBC_2  and  CBB_4 
REMARK    2  A    between atoms: CBB_4  and  CBA_5 
REMARK    3  A    between atoms: CBA_5  and  CAY_6 
REMARK    4  A    between atoms: CAY_6  and  NAH_7 
REMARK    5  A    between atoms: CAG_15  and  CAI_16 
REMARK    6  A    between atoms: CAJ_22  and  CAK_23 
ROOT
HETATM    1  CAI   D T1307       2.636  13.106   0.723  1.00 44.72     0.064 A 
HETATM    2  CAT   D T1307       1.312  12.994   1.389  1.00 42.93     0.282 A 
HETATM    3  OAZ   D T1307       1.157  12.551   2.586  1.00 41.82    -0.265 OA
HETATM    4  NAU   D T1307       0.250  13.389   0.611  1.00 41.25    -0.169 NA
HETATM    5  CAV   D T1307       0.789  13.793  -0.568  1.00 41.79     0.282 A 
HETATM    6  OAX   D T1307       0.070  14.249  -1.544  1.00 43.23    -0.265 OA
HETATM    7  CAJ   D T1307       2.255  13.622  -0.596  1.00 41.06     0.064 A 
ENDROOT
BRANCH   1   8
HETATM    8  CAG   D T1307       3.981  12.818   1.353  1.00 45.56     0.023 A 
HETATM    9  CAW   D T1307       5.130  13.561   1.099  1.00 46.69     0.076 A 
HETATM   10  NAH   D T1307       6.127  13.038   1.879  1.00 47.96    -0.326 N 
HETATM   11  CAE   D T1307       5.635  12.033   2.635  1.00 47.40     0.060 A 
HETATM   12  CAF   D T1307       6.247  11.223   3.589  1.00 46.84     0.017 A 
HETATM   13  CAD   D T1307       4.274  11.875   2.348  1.00 47.14     0.017 A 
HETATM   14  CAA   D T1307       5.536  10.223   4.245  1.00 46.26     0.002 A 
HETATM   15  CAB   D T1307       4.194  10.048   3.952  1.00 47.22     0.000 A 
HETATM   16  CAC   D T1307       3.556  10.872   3.001  1.00 47.34     0.002 A 
BRANCH  10  17
HETATM   17  CAY   D T1307       7.530  13.469   2.005  1.00 47.35     0.108 C 
BRANCH  17  18
HETATM   18  CBA   D T1307       8.325  13.472   0.702  1.00 49.36     0.048 C 
BRANCH  18  19
HETATM   19  CBB   D T1307       8.580  14.932   0.283  1.00 49.76     0.099 C 
BRANCH  19  20
HETATM   20  NBC   D T1307       7.602  15.434  -0.701  1.00 50.82    -0.365 N 
HETATM   21  CBD   D T1307       7.776  14.987  -2.067  1.00 49.65     0.121 C 
HETATM   22  CBE   D T1307       6.499  16.358  -0.379  1.00 51.10     0.121 C 
ENDBRANCH  19  20
ENDBRANCH  18  19
ENDBRANCH  17  18
ENDBRANCH  10  17
ENDBRANCH   1   8
BRANCH   7  23
HETATM   23  CAK   D T1307       3.171  14.047  -1.662  1.00 42.28     0.025 A 
HETATM   24  CAM   D T1307       3.278  15.379  -2.064  1.00 43.03     0.019 A 
HETATM   25  CAP   D T1307       2.703  16.605  -1.600  1.00 40.17     0.002 A 
HETATM   26  CAN   D T1307       4.171  15.297  -3.141  1.00 41.89     0.081 A 
HETATM   27  CAQ   D T1307       3.047  17.803  -2.219  1.00 40.87     0.000 A 
HETATM   28  CAR   D T1307       3.964  17.756  -3.285  1.00 41.97     0.002 A 
HETATM   29  CAS   D T1307       4.519  16.526  -3.748  1.00 41.64     0.019 A 
HETATM   30  NAO   D T1307       4.522  13.969  -3.331  1.00 41.75    -0.244 NA
HETATM   31  CAL   D T1307       3.908  13.156  -2.429  1.00 40.82     0.099 A 
ENDBRANCH   7  23
TORSDOF 6
ENDMDL
MODEL 2
REMARK VINA RESULT:    -8.972      1.196      2.054
REMARK INTER + INTRA:         -13.284
REMARK INTER:                 -12.410
REMARK INTRA:                  -0.874
REMARK UNBOUND:                -1.164
REMARK  6 active torsions:
REMARK  status: ('A' for Active; 'I' for Inactive)
REMARK    1  A    between atoms: NBC_2  and  CBB_4 
REMARK    2  A    between atoms: CBB_4  and  CBA_5 
REMARK    3  A    between atoms: CBA_5  and  CAY_6 
REMARK    4  A    between atoms: CAY_6  and  NAH_7 
REMARK    5  A    between atoms: CAG_15  and  CAI_16 
REMARK    6  A    between atoms: CAJ_22  and  CAK_23 
ROOT
HETATM    1  CAI   D T1307       2.605  13.098   0.722  1.00 44.72     0.064 A 
HETATM    2  CAT   D T1307       1.273  12.971   1.368  1.00 42.93     0.282 A 
HETATM    3  OAZ   D T1307       1.105  12.524   2.561  1.00 41.82    -0.265 OA
HETATM    4  NAU   D T1307       0.219  13.357   0.575  1.00 41.25    -0.169 NA
HETATM    5  CAV   D T1307       0.771  13.770  -0.595  1.00 41.79     0.282 A 
HETATM    6  OAX   D T1307       0.061  14.221  -1.580  1.00 43.23    -0.265 OA
HETATM    7  CAJ   D T1307       2.239  13.614  -0.602  1.00 41.06     0.064 A 
ENDROOT
BRANCH   1   8
HETATM    8  CAG   D T1307       3.944  12.822   1.370  1.00 45.56     0.023 A 
HETATM    9  CAW   D T1307       5.085  13.587   1.148  1.00 46.69     0.076 A 
HETATM   10  NAH   D T1307       6.077  13.068   1.937  1.00 47.96    -0.326 N 
HETATM   11  CAE   D T1307       5.588  12.044   2.669  1.00 47.40     0.060 A 
HETATM   12  CAF   D T1307       6.197  11.230   3.621  1.00 46.84     0.017 A 
HETATM   13  CAD   D T1307       4.235  11.869   2.356  1.00 47.14     0.017 A 
HETATM   14  CAA   D T1307       5.491  10.208   4.250  1.00 46.26     0.002 A 
HETATM   15  CAB   D T1307       4.157  10.016   3.931  1.00 47.22     0.000 A 
HETATM   16  CAC   D T1307       3.522  10.845   2.981  1.00 47.34     0.002 A 
BRANCH  10  17
HETATM   17  CAY   D T1307       7.470  13.520   2.094  1.00 47.35     0.108 C 
BRANCH  17  18
HETATM   18  CBA   D T1307       8.409  13.124   0.959  1.00 49.36     0.048 C 
BRANCH  18  19
HETATM   19  CBB   D T1307       9.754  12.678   1.564  1.00 49.76     0.099 C 
BRANCH  19  20
HETATM   20  NBC   D T1307       9.642  11.464   2.396  1.00 50.82    -0.365 N 
HETATM   21  CBD   D T1307       9.152  10.273   1.733  1.00 49.65     0.121 C 
HETATM   22  CBE   D T1307       9.974  11.407   3.831  1.00 51.10     0.121 C 
ENDBRANCH  19  20
ENDBRANCH  18  19
ENDBRANCH  17  18
ENDBRANCH  10  17
ENDBRANCH   1   8
BRANCH   7  23
HETATM   23  CAK   D T1307       3.166  14.051  -1.653  1.00 42.28     0.025 A 
HETATM   24  CAM   D T1307       3.256  15.383  -2.060  1.00 43.03     0.019 A 
HETATM   25  CAP   D T1307       2.650  16.600  -1.612  1.00 40.17     0.002 A 
HETATM   26  CAN   D T1307       4.170  15.313  -3.120  1.00 41.89     0.081 A 
HETATM   27  CAQ   D T1307       2.983  17.801  -2.230  1.00 40.87     0.000 A 
HETATM   28  CAR   D T1307       3.920  17.766  -3.279  1.00 41.97     0.002 A 
HETATM   29  CAS   D T1307       4.505  16.545  -3.726  1.00 41.64     0.019 A 
HETATM   30  NAO   D T1307       4.548  13.990  -3.297  1.00 41.75    -0.244 NA
HETATM   31  CAL   D T1307       3.933  13.170  -2.402  1.00 40.82     0.099 A 
ENDBRANCH   7  23
TORSDOF 6
ENDMDL
MODEL 3
REMARK VINA RESULT:    -8.852      2.017      5.944
REMARK INTER + INTRA:         -13.121
REMARK INTER:                 -12.082
REMARK INTRA:                  -1.039
REMARK UNBOUND:                -1.164
REMARK  6 active torsions:
REMARK  status: ('A' for Active; 'I' for Inactive)
REMARK    1  A    between atoms: NBC_2  and  CBB_4 
REMARK    2  A    between atoms: CBB_4  and  CBA_5 
REMARK    3  A    between atoms: CBA_5  and  CAY_6 
REMARK    4  A    between atoms: CAY_6  and  NAH_7 
REMARK    5  A    between atoms: CAG_15  and  CAI_16 
REMARK    6  A    between atoms: CAJ_22  and  CAK_23 
ROOT
HETATM    1  CAI   D T1307       3.871  11.586   2.220  1.00 44.72     0.064 A 
HETATM    2  CAT   D T1307       3.259  10.534   3.072  1.00 42.93     0.282 A 
HETATM    3  OAZ   D T1307       2.048  10.127   2.934  1.00 41.82    -0.265 OA
HETATM    4  NAU   D T1307       4.093  10.036   4.044  1.00 41.25    -0.169 NA
HETATM    5  CAV   D T1307       5.273  10.688   3.885  1.00 41.79     0.282 A 
HETATM    6  OAX   D T1307       6.306  10.454   4.632  1.00 43.23    -0.265 OA
HETATM    7  CAJ   D T1307       5.214  11.687   2.800  1.00 41.06     0.064 A 
ENDROOT
BRANCH   1   8
HETATM    8  CAG   D T1307       3.225  12.261   1.030  1.00 45.56     0.023 A 
HETATM    9  CAW   D T1307       3.839  12.398  -0.211  1.00 46.69     0.076 A 
HETATM   10  NAH   D T1307       2.937  13.010  -1.041  1.00 47.96    -0.326 N 
HETATM   11  CAE   D T1307       1.778  13.217  -0.381  1.00 47.40     0.060 A 
HETATM   12  CAF   D T1307       0.574  13.777  -0.802  1.00 46.84     0.017 A 
HETATM   13  CAD   D T1307       1.910  12.739   0.928  1.00 47.14     0.017 A 
HETATM   14  CAA   D T1307      -0.503  13.906   0.070  1.00 46.26     0.002 A 
HETATM   15  CAB   D T1307      -0.373  13.452   1.373  1.00 47.22     0.000 A 
HETATM   16  CAC   D T1307       0.836  12.867   1.808  1.00 47.34     0.002 A 
BRANCH  10  17
HETATM   17  CAY   D T1307       3.078  13.367  -2.463  1.00 47.35     0.108 C 
BRANCH  17  18
HETATM   18  CBA   D T1307       4.367  14.101  -2.820  1.00 49.36     0.048 C 
BRANCH  18  19
HETATM   19  CBB   D T1307       4.440  15.401  -1.996  1.00 49.76     0.099 C 
BRANCH  19  20
HETATM   20  NBC   D T1307       5.776  15.651  -1.421  1.00 50.82    -0.365 N 
HETATM   21  CBD   D T1307       6.788  14.649  -1.686  1.00 49.65     0.121 C 
HETATM   22  CBE   D T1307       6.119  16.823  -0.597  1.00 51.10     0.121 C 
ENDBRANCH  19  20
ENDBRANCH  18  19
ENDBRANCH  17  18
ENDBRANCH  10  17
ENDBRANCH   1   8
BRANCH   7  23
HETATM   23  CAK   D T1307       6.326  12.497   2.286  1.00 42.28     0.025 A 
HETATM   24  CAM   D T1307       7.581  11.950   2.014  1.00 43.03     0.019 A 
HETATM   25  CAP   D T1307       8.112  10.621   2.046  1.00 40.17     0.002 A 
HETATM   26  CAN   D T1307       8.328  13.078   1.650  1.00 41.89     0.081 A 
HETATM   27  CAQ   D T1307       9.437  10.402   1.679  1.00 40.87     0.000 A 
HETATM   28  CAR   D T1307      10.204  11.512   1.280  1.00 41.97     0.002 A 
HETATM   29  CAS   D T1307       9.667  12.833   1.268  1.00 41.64     0.019 A 
HETATM   30  NAO   D T1307       7.516  14.200   1.740  1.00 41.75    -0.244 NA
HETATM   31  CAL   D T1307       6.259  13.875   2.144  1.00 40.82     0.099 A 
ENDBRANCH   7  23
TORSDOF 6
ENDMDL
MODEL 4
REMARK VINA RESULT:    -8.440      1.682      3.506
REMARK INTER + INTRA:         -12.565
REMARK INTER:                 -11.780
REMARK INTRA:                  -0.784
REMARK UNBOUND:                -1.164
REMARK  6 active torsions:
REMARK  status: ('A' for Active; 'I' for Inactive)
REMARK    1  A    between atoms: NBC_2  and  CBB_4 
REMARK    2  A    between atoms: CBB_4  and  CBA_5 
REMARK    3  A    between atoms: CBA_5  and  CAY_6 
REMARK    4  A    between atoms: CAY_6  and  NAH_7 
REMARK    5  A    between atoms: CAG_15  and  CAI_16 
REMARK    6  A    between atoms: CAJ_22  and  CAK_23 
ROOT
HETATM    1  CAI   D T1307       2.638  13.121   0.899  1.00 44.72     0.064 A 
HETATM    2  CAT   D T1307       1.303  13.181   1.549  1.00 42.93     0.282 A 
HETATM    3  OAZ   D T1307       1.102  12.880   2.782  1.00 41.82    -0.265 OA
HETATM    4  NAU   D T1307       0.283  13.572   0.715  1.00 41.25    -0.169 NA
HETATM    5  CAV   D T1307       0.864  13.808  -0.490  1.00 41.79     0.282 A 
HETATM    6  OAX   D T1307       0.192  14.213  -1.521  1.00 43.23    -0.265 OA
HETATM    7  CAJ   D T1307       2.312  13.523  -0.473  1.00 41.06     0.064 A 
ENDROOT
BRANCH   1   8
HETATM    8  CAG   D T1307       3.950  12.798   1.580  1.00 45.56     0.023 A 
HETATM    9  CAW   D T1307       4.108  11.782   2.516  1.00 46.69     0.076 A 
HETATM   10  NAH   D T1307       5.432  11.761   2.869  1.00 47.96    -0.326 N 
HETATM   11  CAE   D T1307       6.106  12.692   2.159  1.00 47.40     0.060 A 
HETATM   12  CAF   D T1307       7.458  13.029   2.148  1.00 46.84     0.017 A 
HETATM   13  CAD   D T1307       5.209  13.357   1.316  1.00 47.14     0.017 A 
HETATM   14  CAA   D T1307       7.936  14.051   1.333  1.00 46.26     0.002 A 
HETATM   15  CAB   D T1307       7.051  14.727   0.509  1.00 47.22     0.000 A 
HETATM   16  CAC   D T1307       5.681  14.384   0.498  1.00 47.34     0.002 A 
BRANCH  10  17
HETATM   17  CAY   D T1307       6.129  10.865   3.806  1.00 47.35     0.108 C 
BRANCH  17  18
HETATM   18  CBA   D T1307       7.398  10.218   3.259  1.00 49.36     0.048 C 
BRANCH  18  19
HETATM   19  CBB   D T1307       8.479  10.246   4.356  1.00 49.76     0.099 C 
BRANCH  19  20
HETATM   20  NBC   D T1307       9.850  10.122   3.825  1.00 50.82    -0.365 N 
HETATM   21  CBD   D T1307      10.802   9.417   4.660  1.00 49.65     0.121 C 
HETATM   22  CBE   D T1307      10.296  10.680   2.536  1.00 51.10     0.121 C 
ENDBRANCH  19  20
ENDBRANCH  18  19
ENDBRANCH  17  18
ENDBRANCH  10  17
ENDBRANCH   1   8
BRANCH   7  23
HETATM   23  CAK   D T1307       3.270  13.763  -1.561  1.00 42.28     0.025 A 
HETATM   24  CAM   D T1307       3.488  15.034  -2.094  1.00 43.03     0.019 A 
HETATM   25  CAP   D T1307       3.010  16.342  -1.766  1.00 40.17     0.002 A 
HETATM   26  CAN   D T1307       4.382  14.771  -3.141  1.00 41.89     0.081 A 
HETATM   27  CAQ   D T1307       3.455  17.439  -2.498  1.00 40.87     0.000 A 
HETATM   28  CAR   D T1307       4.376  17.210  -3.537  1.00 41.97     0.002 A 
HETATM   29  CAS   D T1307       4.833  15.900  -3.863  1.00 41.64     0.019 A 
HETATM   30  NAO   D T1307       4.625  13.406  -3.189  1.00 41.75    -0.244 NA
HETATM   31  CAL   D T1307       3.939  12.742  -2.220  1.00 40.82     0.099 A 
ENDBRANCH   7  23
TORSDOF 6
ENDMDL
MODEL 5
REMARK VINA RESULT:    -8.187      2.349      3.839
REMARK INTER + INTRA:         -12.223
REMARK INTER:                 -11.039
REMARK INTRA:                  -1.184
REMARK UNBOUND:                -1.164
REMARK  6 active torsions:
REMARK  status: ('A' for Active; 'I' for Inactive)
REMARK    1  A    between atoms: NBC_2  and  CBB_4 
REMARK    2  A    between atoms: CBB_4  and  CBA_5 
REMARK    3  A    between atoms: CBA_5  and  CAY_6 
REMARK    4  A    between atoms: CAY_6  and  NAH_7 
REMARK    5  A    between atoms: CAG_15  and  CAI_16 
REMARK    6  A    between atoms: CAJ_22  and  CAK_23 
ROOT
HETATM    1  CAI   D T1307       4.590  13.251  -0.143  1.00 44.72     0.064 A 
HETATM    2  CAT   D T1307       3.150  12.885  -0.127  1.00 42.93     0.282 A 
HETATM    3  OAZ   D T1307       2.691  11.846   0.472  1.00 41.82    -0.265 OA
HETATM    4  NAU   D T1307       2.339  13.746  -0.827  1.00 41.25    -0.169 NA
HETATM    5  CAV   D T1307       3.160  14.712  -1.313  1.00 41.79     0.282 A 
HETATM    6  OAX   D T1307       2.725  15.708  -2.018  1.00 43.23    -0.265 OA
HETATM    7  CAJ   D T1307       4.573  14.467  -0.964  1.00 41.06     0.064 A 
ENDROOT
BRANCH   1   8
HETATM    8  CAG   D T1307       5.702  12.540   0.596  1.00 45.56     0.023 A 
HETATM    9  CAW   D T1307       7.009  12.447   0.128  1.00 46.69     0.076 A 
HETATM   10  NAH   D T1307       7.732  11.780   1.082  1.00 47.96    -0.326 N 
HETATM   11  CAE   D T1307       6.939  11.495   2.138  1.00 47.40     0.060 A 
HETATM   12  CAF   D T1307       7.219  10.860   3.345  1.00 46.84     0.017 A 
HETATM   13  CAD   D T1307       5.650  11.977   1.880  1.00 47.14     0.017 A 
HETATM   14  CAA   D T1307       6.226  10.658   4.298  1.00 46.26     0.002 A 
HETATM   15  CAB   D T1307       4.943  11.115   4.042  1.00 47.22     0.000 A 
HETATM   16  CAC   D T1307       4.649  11.776   2.830  1.00 47.34     0.002 A 
BRANCH  10  17
HETATM   17  CAY   D T1307       9.164  11.438   1.090  1.00 47.35     0.108 C 
BRANCH  17  18
HETATM   18  CBA   D T1307      10.102  12.590   1.440  1.00 49.36     0.048 C 
BRANCH  18  19
HETATM   19  CBB   D T1307      11.386  12.009   2.062  1.00 49.76     0.099 C 
BRANCH  19  20
HETATM   20  NBC   D T1307      11.190  11.501   3.433  1.00 50.82    -0.365 N 
HETATM   21  CBD   D T1307      11.644  10.150   3.690  1.00 49.65     0.121 C 
HETATM   22  CBE   D T1307      10.556  12.268   4.521  1.00 51.10     0.121 C 
ENDBRANCH  19  20
ENDBRANCH  18  19
ENDBRANCH  17  18
ENDBRANCH  10  17
ENDBRANCH   1   8
BRANCH   7  23
HETATM   23  CAK   D T1307       5.713  15.353  -1.232  1.00 42.28     0.025 A 
HETATM   24  CAM   D T1307       6.582  15.144  -2.304  1.00 43.03     0.019 A 
HETATM   25  CAP   D T1307       6.611  14.211  -3.390  1.00 40.17     0.002 A 
HETATM   26  CAN   D T1307       7.543  16.145  -2.111  1.00 41.89     0.081 A 
HETATM   27  CAQ   D T1307       7.629  14.291  -4.336  1.00 40.87     0.000 A 
HETATM   28  CAR   D T1307       8.593  15.304  -4.184  1.00 41.97     0.002 A 
HETATM   29  CAS   D T1307       8.561  16.218  -3.090  1.00 41.64     0.019 A 
HETATM   30  NAO   D T1307       7.222  16.858  -0.966  1.00 41.75    -0.244 NA
HETATM   31  CAL   D T1307       6.087  16.385  -0.384  1.00 40.82     0.099 A 
ENDBRANCH   7  23
TORSDOF 6
ENDMDL
MODEL 6
REMARK VINA RESULT:    -8.138      2.521      5.176
REMARK INTER + INTRA:         -12.157
REMARK INTER:                 -10.676
REMARK INTRA:                  -1.482
REMARK UNBOUND:                -1.164
REMARK  6 active torsions:
REMARK  status: ('A' for Active; 'I' for Inactive)
REMARK    1  A    between atoms: NBC_2  and  CBB_4 
REMARK    2  A    between atoms: CBB_4  and  CBA_5 
REMARK    3  A    between atoms: CBA_5  and  CAY_6 
REMARK    4  A    between atoms: CAY_6  and  NAH_7 
REMARK    5  A    between atoms: CAG_15  and  CAI_16 
REMARK    6  A    between atoms: CAJ_22  and  CAK_23 
ROOT
HETATM    1  CAI   D T1307       4.027  16.364  -2.665  1.00 44.72     0.064 A 
HETATM    2  CAT   D T1307       3.090  17.487  -2.404  1.00 42.93     0.282 A 
HETATM    3  OAZ   D T1307       2.314  17.538  -1.381  1.00 41.82    -0.265 OA
HETATM    4  NAU   D T1307       3.103  18.471  -3.364  1.00 41.25    -0.169 NA
HETATM    5  CAV   D T1307       4.033  18.084  -4.274  1.00 41.79     0.282 A 
HETATM    6  OAX   D T1307       4.322  18.792  -5.320  1.00 43.23    -0.265 OA
HETATM    7  CAJ   D T1307       4.631  16.778  -3.937  1.00 41.06     0.064 A 
ENDROOT
BRANCH   1   8
HETATM    8  CAG   D T1307       4.285  15.184  -1.754  1.00 45.56     0.023 A 
HETATM    9  CAW   D T1307       5.527  14.890  -1.200  1.00 46.69     0.076 A 
HETATM   10  NAH   D T1307       5.361  13.790  -0.401  1.00 47.96    -0.326 N 
HETATM   11  CAE   D T1307       4.063  13.418  -0.403  1.00 47.40     0.060 A 
HETATM   12  CAF   D T1307       3.407  12.387   0.267  1.00 46.84     0.017 A 
HETATM   13  CAD   D T1307       3.343  14.287  -1.231  1.00 47.14     0.017 A 
HETATM   14  CAA   D T1307       2.042  12.177   0.101  1.00 46.26     0.002 A 
HETATM   15  CAB   D T1307       1.326  13.022  -0.732  1.00 47.22     0.000 A 
HETATM   16  CAC   D T1307       1.974  14.081  -1.403  1.00 47.34     0.002 A 
BRANCH  10  17
HETATM   17  CAY   D T1307       6.354  13.086   0.428  1.00 47.35     0.108 C 
BRANCH  17  18
HETATM   18  CBA   D T1307       6.513  13.628   1.846  1.00 49.36     0.048 C 
BRANCH  18  19
HETATM   19  CBB   D T1307       6.113  12.524   2.843  1.00 49.76     0.099 C 
BRANCH  19  20
HETATM   20  NBC   D T1307       7.264  11.750   3.347  1.00 50.82    -0.365 N 
HETATM   21  CBD   D T1307       6.953  10.536   4.073  1.00 49.65     0.121 C 
HETATM   22  CBE   D T1307       8.672  12.146   3.172  1.00 51.10     0.121 C 
ENDBRANCH  19  20
ENDBRANCH  18  19
ENDBRANCH  17  18
ENDBRANCH  10  17
ENDBRANCH   1   8
BRANCH   7  23
HETATM   23  CAK   D T1307       5.735  16.107  -4.636  1.00 42.28     0.025 A 
HETATM   24  CAM   D T1307       7.060  16.216  -4.211  1.00 43.03     0.019 A 
HETATM   25  CAP   D T1307       7.693  16.834  -3.086  1.00 40.17     0.002 A 
HETATM   26  CAN   D T1307       7.753  15.514  -5.207  1.00 41.89     0.081 A 
HETATM   27  CAQ   D T1307       9.073  16.732  -2.934  1.00 40.87     0.000 A 
HETATM   28  CAR   D T1307       9.792  16.009  -3.903  1.00 41.97     0.002 A 
HETATM   29  CAS   D T1307       9.151  15.410  -5.027  1.00 41.64     0.019 A 
HETATM   30  NAO   D T1307       6.842  15.058  -6.148  1.00 41.75    -0.244 NA
HETATM   31  CAL   D T1307       5.569  15.418  -5.829  1.00 40.82     0.099 A 
ENDBRANCH   7  23
TORSDOF 6
ENDMDL
MODEL 7
REMARK VINA RESULT:    -8.104      3.290      6.769
REMARK INTER + INTRA:         -12.111
REMARK INTER:                 -10.405
REMARK INTRA:                  -1.706
REMARK UNBOUND:                -1.164
REMARK  6 active torsions:
REMARK  status: ('A' for Active; 'I' for Inactive)
REMARK    1  A    between atoms: NBC_2  and  CBB_4 
REMARK    2  A    between atoms: CBB_4  and  CBA_5 
REMARK    3  A    between atoms: CBA_5  and  CAY_6 
REMARK    4  A    between atoms: CAY_6  and  NAH_7 
REMARK    5  A    between atoms: CAG_15  and  CAI_16 
REMARK    6  A    between atoms: CAJ_22  and  CAK_23 
ROOT
HETATM    1  CAI   D T1307       4.143  15.867  -2.284  1.00 44.72     0.064 A 
HETATM    2  CAT   D T1307       2.787  16.465  -2.169  1.00 42.93     0.282 A 
HETATM    3  OAZ   D T1307       2.450  17.569  -2.734  1.00 41.82    -0.265 OA
HETATM    4  NAU   D T1307       1.915  15.746  -1.387  1.00 41.25    -0.169 NA
HETATM    5  CAV   D T1307       2.608  14.656  -0.970  1.00 41.79     0.282 A 
HETATM    6  OAX   D T1307       2.083  13.741  -0.217  1.00 43.23    -0.265 OA
HETATM    7  CAJ   D T1307       4.003  14.667  -1.452  1.00 41.06     0.064 A 
ENDROOT
BRANCH   1   8
HETATM    8  CAG   D T1307       5.281  16.390  -3.131  1.00 45.56     0.023 A 
HETATM    9  CAW   D T1307       5.118  16.919  -4.408  1.00 46.69     0.076 A 
HETATM   10  NAH   D T1307       6.354  17.327  -4.835  1.00 47.96    -0.326 N 
HETATM   11  CAE   D T1307       7.266  17.114  -3.863  1.00 47.40     0.060 A 
HETATM   12  CAF   D T1307       8.632  17.384  -3.816  1.00 46.84     0.017 A 
HETATM   13  CAD   D T1307       6.625  16.540  -2.758  1.00 47.14     0.017 A 
HETATM   14  CAA   D T1307       9.390  17.059  -2.695  1.00 46.26     0.002 A 
HETATM   15  CAB   D T1307       8.766  16.473  -1.606  1.00 47.22     0.000 A 
HETATM   16  CAC   D T1307       7.380  16.210  -1.633  1.00 47.34     0.002 A 
BRANCH  10  17
HETATM   17  CAY   D T1307       6.730  17.973  -6.104  1.00 47.35     0.108 C 
BRANCH  17  18
HETATM   18  CBA   D T1307       6.962  17.018  -7.272  1.00 49.36     0.048 C 
BRANCH  18  19
HETATM   19  CBB   D T1307       7.938  17.679  -8.264  1.00 49.76     0.099 C 
BRANCH  19  20
HETATM   20  NBC   D T1307       9.306  17.132  -8.186  1.00 50.82    -0.365 N 
HETATM   21  CBD   D T1307       9.501  15.806  -8.736  1.00 49.65     0.121 C 
HETATM   22  CBE   D T1307      10.449  17.834  -7.576  1.00 51.10     0.121 C 
ENDBRANCH  19  20
ENDBRANCH  18  19
ENDBRANCH  17  18
ENDBRANCH  10  17
ENDBRANCH   1   8
BRANCH   7  23
HETATM   23  CAK   D T1307       5.003  13.604  -1.282  1.00 42.28     0.025 A 
HETATM   24  CAM   D T1307       5.720  13.440  -0.096  1.00 43.03     0.019 A 
HETATM   25  CAP   D T1307       5.677  14.076   1.185  1.00 40.17     0.002 A 
HETATM   26  CAN   D T1307       6.600  12.399  -0.420  1.00 41.89     0.081 A 
HETATM   27  CAQ   D T1307       6.533  13.645   2.194  1.00 40.87     0.000 A 
HETATM   28  CAR   D T1307       7.409  12.582   1.908  1.00 41.97     0.002 A 
HETATM   29  CAS   D T1307       7.451  11.966   0.623  1.00 41.64     0.019 A 
HETATM   30  NAO   D T1307       6.385  12.025  -1.738  1.00 41.75    -0.244 NA
HETATM   31  CAL   D T1307       5.398  12.764  -2.313  1.00 40.82     0.099 A 
ENDBRANCH   7  23
TORSDOF 6
ENDMDL
MODEL 8
REMARK VINA RESULT:    -8.088      2.651      5.746
REMARK INTER + INTRA:         -12.089
REMARK INTER:                 -11.516
REMARK INTRA:                  -0.573
REMARK UNBOUND:                -1.164
REMARK  6 active torsions:
REMARK  status: ('A' for Active; 'I' for Inactive)
REMARK    1  A    between atoms: NBC_2  and  CBB_4 
REMARK    2  A    between atoms: CBB_4  and  CBA_5 
REMARK    3  A    between atoms: CBA_5  and  CAY_6 
REMARK    4  A    between atoms: CAY_6  and  NAH_7 
REMARK    5  A    between atoms: CAG_15  and  CAI_16 
REMARK    6  A    between atoms: CAJ_22  and  CAK_23 
ROOT
HETATM    1  CAI   D T1307       6.240  13.595   0.619  1.00 44.72     0.064 A 
HETATM    2  CAT   D T1307       7.391  12.897   1.249  1.00 42.93     0.282 A 
HETATM    3  OAZ   D T1307       7.273  11.823   1.944  1.00 41.82    -0.265 OA
HETATM    4  NAU   D T1307       8.606  13.507   1.044  1.00 41.25    -0.169 NA
HETATM    5  CAV   D T1307       8.345  14.595   0.273  1.00 41.79     0.282 A 
HETATM    6  OAX   D T1307       9.275  15.402  -0.130  1.00 43.23    -0.265 OA
HETATM    7  CAJ   D T1307       6.904  14.742  -0.010  1.00 41.06     0.064 A 
ENDROOT
BRANCH   1   8
HETATM    8  CAG   D T1307       4.803  13.122   0.610  1.00 45.56     0.023 A 
HETATM    9  CAW   D T1307       3.897  13.416  -0.404  1.00 46.69     0.076 A 
HETATM   10  NAH   D T1307       2.724  12.782  -0.091  1.00 47.96    -0.326 N 
HETATM   11  CAE   D T1307       2.878  12.074   1.049  1.00 47.40     0.060 A 
HETATM   12  CAF   D T1307       1.990  11.257   1.744  1.00 46.84     0.017 A 
HETATM   13  CAD   D T1307       4.187  12.246   1.514  1.00 47.14     0.017 A 
HETATM   14  CAA   D T1307       2.368  10.628   2.926  1.00 46.26     0.002 A 
HETATM   15  CAB   D T1307       3.656  10.808   3.403  1.00 47.22     0.000 A 
HETATM   16  CAC   D T1307       4.572  11.619   2.700  1.00 47.34     0.002 A 
BRANCH  10  17
HETATM   17  CAY   D T1307       1.457  12.751  -0.841  1.00 47.35     0.108 C 
BRANCH  17  18
HETATM   18  CBA   D T1307       0.522  13.928  -0.580  1.00 49.36     0.048 C 
BRANCH  18  19
HETATM   19  CBB   D T1307      -0.538  13.497   0.451  1.00 49.76     0.099 C 
BRANCH  19  20
HETATM   20  NBC   D T1307      -1.909  13.483  -0.095  1.00 50.82    -0.365 N 
HETATM   21  CBD   D T1307      -2.899  14.249   0.634  1.00 49.65     0.121 C 
HETATM   22  CBE   D T1307      -2.317  12.735  -1.297  1.00 51.10     0.121 C 
ENDBRANCH  19  20
ENDBRANCH  18  19
ENDBRANCH  17  18
ENDBRANCH  10  17
ENDBRANCH   1   8
BRANCH   7  23
HETATM   23  CAK   D T1307       6.277  15.736  -0.890  1.00 42.28     0.025 A 
HETATM   24  CAM   D T1307       6.256  15.593  -2.278  1.00 43.03     0.019 A 
HETATM   25  CAP   D T1307       6.681  14.562  -3.176  1.00 40.17     0.002 A 
HETATM   26  CAN   D T1307       5.660  16.791  -2.695  1.00 41.89     0.081 A 
HETATM   27  CAQ   D T1307       6.487  14.721  -4.545  1.00 40.87     0.000 A 
HETATM   28  CAR   D T1307       5.864  15.901  -4.991  1.00 41.97     0.002 A 
HETATM   29  CAS   D T1307       5.459  16.927  -4.088  1.00 41.64     0.019 A 
HETATM   30  NAO   D T1307       5.386  17.566  -1.578  1.00 41.75    -0.244 NA
HETATM   31  CAL   D T1307       5.766  16.942  -0.431  1.00 40.82     0.099 A 
ENDBRANCH   7  23
TORSDOF 6
ENDMDL
MODEL 9
REMARK VINA RESULT:    -8.015      2.190      6.433
REMARK INTER + INTRA:         -11.991
REMARK INTER:                 -11.364
REMARK INTRA:                  -0.627
REMARK UNBOUND:                -1.164
REMARK  6 active torsions:
REMARK  status: ('A' for Active; 'I' for Inactive)
REMARK    1  A    between atoms: NBC_2  and  CBB_4 
REMARK    2  A    between atoms: CBB_4  and  CBA_5 
REMARK    3  A    between atoms: CBA_5  and  CAY_6 
REMARK    4  A    between atoms: CAY_6  and  NAH_7 
REMARK    5  A    between atoms: CAG_15  and  CAI_16 
REMARK    6  A    between atoms: CAJ_22  and  CAK_23 
ROOT
HETATM    1  CAI   D T1307       2.842  13.861  -1.258  1.00 44.72     0.064 A 
HETATM    2  CAT   D T1307       1.381  13.645  -1.089  1.00 42.93     0.282 A 
HETATM    3  OAZ   D T1307       0.488  14.406  -1.611  1.00 41.82    -0.265 OA
HETATM    4  NAU   D T1307       1.055  12.563  -0.306  1.00 41.25    -0.169 NA
HETATM    5  CAV   D T1307       2.238  12.004   0.059  1.00 41.79     0.282 A 
HETATM    6  OAX   D T1307       2.309  10.942   0.798  1.00 43.23    -0.265 OA
HETATM    7  CAJ   D T1307       3.394  12.761  -0.460  1.00 41.06     0.064 A 
ENDROOT
BRANCH   1   8
HETATM    8  CAG   D T1307       3.495  14.919  -2.120  1.00 45.56     0.023 A 
HETATM    9  CAW   D T1307       4.433  14.642  -3.109  1.00 46.69     0.076 A 
HETATM   10  NAH   D T1307       4.757  15.834  -3.702  1.00 47.96    -0.326 N 
HETATM   11  CAE   D T1307       4.028  16.829  -3.153  1.00 47.40     0.060 A 
HETATM   12  CAF   D T1307       3.984  18.192  -3.435  1.00 46.84     0.017 A 
HETATM   13  CAD   D T1307       3.200  16.290  -2.161  1.00 47.14     0.017 A 
HETATM   14  CAA   D T1307       3.153  19.048  -2.718  1.00 46.26     0.002 A 
HETATM   15  CAB   D T1307       2.345  18.524  -1.722  1.00 47.22     0.000 A 
HETATM   16  CAC   D T1307       2.366  17.142  -1.437  1.00 47.34     0.002 A 
BRANCH  10  17
HETATM   17  CAY   D T1307       5.685  16.095  -4.816  1.00 47.35     0.108 C 
BRANCH  17  18
HETATM   18  CBA   D T1307       5.021  16.306  -6.174  1.00 49.36     0.048 C 
BRANCH  18  19
HETATM   19  CBB   D T1307       6.064  16.888  -7.147  1.00 49.76     0.099 C 
BRANCH  19  20
HETATM   20  NBC   D T1307       6.673  18.143  -6.665  1.00 50.82    -0.365 N 
HETATM   21  CBD   D T1307       8.111  18.133  -6.489  1.00 49.65     0.121 C 
HETATM   22  CBE   D T1307       5.914  19.364  -6.341  1.00 51.10     0.121 C 
ENDBRANCH  19  20
ENDBRANCH  18  19
ENDBRANCH  17  18
ENDBRANCH  10  17
ENDBRANCH   1   8
BRANCH   7  23
HETATM   23  CAK   D T1307       4.811  12.392  -0.349  1.00 42.28     0.025 A 
HETATM   24  CAM   D T1307       5.461  12.298   0.882  1.00 43.03     0.019 A 
HETATM   25  CAP   D T1307       5.032  12.415   2.242  1.00 40.17     0.002 A 
HETATM   26  CAN   D T1307       6.783  12.024   0.503  1.00 41.89     0.081 A 
HETATM   27  CAQ   D T1307       5.952  12.232   3.271  1.00 40.87     0.000 A 
HETATM   28  CAR   D T1307       7.280  11.928   2.922  1.00 41.97     0.002 A 
HETATM   29  CAS   D T1307       7.698  11.828   1.562  1.00 41.64     0.019 A 
HETATM   30  NAO   D T1307       6.853  11.991  -0.882  1.00 41.75    -0.244 NA
HETATM   31  CAL   D T1307       5.639  12.226  -1.450  1.00 40.82     0.099 A 
ENDBRANCH   7  23
TORSDOF 6
ENDMDL
