MODEL 1
REMARK VINA RESULT:    -7.430      0.000      0.000
REMARK INTER + INTRA:         -11.685
REMARK INTER:                 -10.036
REMARK INTRA:                  -1.649
REMARK UNBOUND:                -1.649
REMARK  6 active torsions:
REMARK  status: ('A' for Active; 'I' for Inactive)
REMARK    1  A    between atoms: NBC_2  and  CBB_4 
REMARK    2  A    between atoms: CBB_4  and  CBA_5 
REMARK    3  A    between atoms: CBA_5  and  CAY_6 
REMARK    4  A    between atoms: CAY_6  and  NAH_7 
REMARK    5  A    between atoms: CAG_15  and  CAI_16 
REMARK    6  A    between atoms: CAJ_22  and  CAK_23 
ROOT
HETATM    1  CAI   D T1307     -10.345   1.267  -6.706  1.00 44.72     0.064 A 
HETATM    2  CAT   D T1307     -11.643   0.765  -7.227  1.00 42.93     0.282 A 
HETATM    3  OAZ   D T1307     -11.862  -0.470  -7.508  1.00 41.82    -0.265 OA
HETATM    4  NAU   D T1307     -12.596   1.738  -7.406  1.00 41.25    -0.169 NA
HETATM    5  CAV   D T1307     -12.017   2.899  -7.007  1.00 41.79     0.282 A 
HETATM    6  OAX   D T1307     -12.642   4.033  -7.025  1.00 43.23    -0.265 OA
HETATM    7  CAJ   D T1307     -10.615   2.706  -6.588  1.00 41.06     0.064 A 
ENDROOT
BRANCH   1   8
HETATM    8  CAG   D T1307      -9.142   0.426  -6.341  1.00 45.56     0.023 A 
HETATM    9  CAW   D T1307      -7.853   0.676  -6.800  1.00 46.69     0.076 A 
HETATM   10  NAH   D T1307      -7.032  -0.256  -6.224  1.00 47.96    -0.326 N 
HETATM   11  CAE   D T1307      -7.749  -1.046  -5.396  1.00 47.40     0.060 A 
HETATM   12  CAF   D T1307      -7.361  -2.105  -4.579  1.00 46.84     0.017 A 
HETATM   13  CAD   D T1307      -9.087  -0.635  -5.425  1.00 47.14     0.017 A 
HETATM   14  CAA   D T1307      -8.291  -2.796  -3.807  1.00 46.26     0.002 A 
HETATM   15  CAB   D T1307      -9.620  -2.407  -3.845  1.00 47.22     0.000 A 
HETATM   16  CAC   D T1307     -10.025  -1.324  -4.657  1.00 47.34     0.002 A 
BRANCH  10  17
HETATM   17  CAY   D T1307      -5.574  -0.420  -6.359  1.00 47.35     0.108 C 
BRANCH  17  18
HETATM   18  CBA   D T1307      -5.122  -1.179  -7.604  1.00 49.36     0.048 C 
BRANCH  18  19
HETATM   19  CBB   D T1307      -3.823  -1.939  -7.273  1.00 49.76     0.099 C 
BRANCH  19  20
HETATM   20  NBC   D T1307      -4.048  -3.136  -6.439  1.00 50.82    -0.365 N 
HETATM   21  CBD   D T1307      -4.935  -4.143  -6.984  1.00 49.65     0.121 C 
HETATM   22  CBE   D T1307      -3.449  -3.346  -5.108  1.00 51.10     0.121 C 
ENDBRANCH  19  20
ENDBRANCH  18  19
ENDBRANCH  17  18
ENDBRANCH  10  17
ENDBRANCH   1   8
BRANCH   7  23
HETATM   23  CAK   D T1307      -9.722   3.714  -6.003  1.00 42.28     0.025 A 
HETATM   24  CAM   D T1307      -8.866   4.492  -6.785  1.00 43.03     0.019 A 
HETATM   25  CAP   D T1307      -8.658   4.628  -8.194  1.00 40.17     0.002 A 
HETATM   26  CAN   D T1307      -8.157   5.221  -5.819  1.00 41.89     0.081 A 
HETATM   27  CAQ   D T1307      -7.720   5.542  -8.665  1.00 40.87     0.000 A 
HETATM   28  CAR   D T1307      -7.013   6.308  -7.720  1.00 41.97     0.002 A 
HETATM   29  CAS   D T1307      -7.220   6.153  -6.317  1.00 41.64     0.019 A 
HETATM   30  NAO   D T1307      -8.597   4.836  -4.560  1.00 41.75    -0.244 NA
HETATM   31  CAL   D T1307      -9.569   3.890  -4.636  1.00 40.82     0.099 A 
ENDBRANCH   7  23
TORSDOF 6
ENDMDL
MODEL 2
REMARK VINA RESULT:    -7.403      1.878      6.403
REMARK INTER + INTRA:         -11.648
REMARK INTER:                  -9.953
REMARK INTRA:                  -1.695
REMARK UNBOUND:                -1.649
REMARK  6 active torsions:
REMARK  status: ('A' for Active; 'I' for Inactive)
REMARK    1  A    between atoms: NBC_2  and  CBB_4 
REMARK    2  A    between atoms: CBB_4  and  CBA_5 
REMARK    3  A    between atoms: CBA_5  and  CAY_6 
REMARK    4  A    between atoms: CAY_6  and  NAH_7 
REMARK    5  A    between atoms: CAG_15  and  CAI_16 
REMARK    6  A    between atoms: CAJ_22  and  CAK_23 
ROOT
HETATM    1  CAI   D T1307     -10.367   0.544  -6.353  1.00 44.72     0.064 A 
HETATM    2  CAT   D T1307     -11.623   0.258  -7.094  1.00 42.93     0.282 A 
HETATM    3  OAZ   D T1307     -12.437   1.172  -7.484  1.00 41.82    -0.265 OA
HETATM    4  NAU   D T1307     -11.858  -1.077  -7.316  1.00 41.25    -0.169 NA
HETATM    5  CAV   D T1307     -10.799  -1.733  -6.776  1.00 41.79     0.282 A 
HETATM    6  OAX   D T1307     -10.682  -3.022  -6.818  1.00 43.23    -0.265 OA
HETATM    7  CAJ   D T1307      -9.844  -0.811  -6.132  1.00 41.06     0.064 A 
ENDROOT
BRANCH   1   8
HETATM    8  CAG   D T1307      -9.810   1.912  -6.031  1.00 45.56     0.023 A 
HETATM    9  CAW   D T1307      -8.701   2.467  -6.662  1.00 46.69     0.076 A 
HETATM   10  NAH   D T1307      -8.530   3.723  -6.145  1.00 47.96    -0.326 N 
HETATM   11  CAE   D T1307      -9.508   3.986  -5.252  1.00 47.40     0.060 A 
HETATM   12  CAF   D T1307      -9.771   5.125  -4.493  1.00 46.84     0.017 A 
HETATM   13  CAD   D T1307     -10.353   2.873  -5.165  1.00 47.14     0.017 A 
HETATM   14  CAA   D T1307     -10.847   5.168  -3.611  1.00 46.26     0.002 A 
HETATM   15  CAB   D T1307     -11.677   4.063  -3.506  1.00 47.22     0.000 A 
HETATM   16  CAC   D T1307     -11.432   2.909  -4.282  1.00 47.34     0.002 A 
BRANCH  10  17
HETATM   17  CAY   D T1307      -7.517   4.737  -6.485  1.00 47.35     0.108 C 
BRANCH  17  18
HETATM   18  CBA   D T1307      -7.870   5.630  -7.672  1.00 49.36     0.048 C 
BRANCH  18  19
HETATM   19  CBB   D T1307      -7.145   6.979  -7.506  1.00 49.76     0.099 C 
BRANCH  19  20
HETATM   20  NBC   D T1307      -5.696   6.898  -7.784  1.00 50.82    -0.365 N 
HETATM   21  CBD   D T1307      -5.319   6.364  -9.077  1.00 49.65     0.121 C 
HETATM   22  CBE   D T1307      -4.644   7.300  -6.835  1.00 51.10     0.121 C 
ENDBRANCH  19  20
ENDBRANCH  18  19
ENDBRANCH  17  18
ENDBRANCH  10  17
ENDBRANCH   1   8
BRANCH   7  23
HETATM   23  CAK   D T1307      -8.545  -1.156  -5.542  1.00 42.28     0.025 A 
HETATM   24  CAM   D T1307      -7.361  -1.125  -6.281  1.00 43.03     0.019 A 
HETATM   25  CAP   D T1307      -7.034  -0.727  -7.615  1.00 40.17     0.002 A 
HETATM   26  CAN   D T1307      -6.420  -1.611  -5.361  1.00 41.89     0.081 A 
HETATM   27  CAQ   D T1307      -5.713  -0.793  -8.048  1.00 40.87     0.000 A 
HETATM   28  CAR   D T1307      -4.742  -1.251  -7.138  1.00 41.97     0.002 A 
HETATM   29  CAS   D T1307      -5.084  -1.659  -5.814  1.00 41.64     0.019 A 
HETATM   30  NAO   D T1307      -7.074  -1.915  -4.175  1.00 41.75    -0.244 NA
HETATM   31  CAL   D T1307      -8.405  -1.651  -4.253  1.00 40.82     0.099 A 
ENDBRANCH   7  23
TORSDOF 6
ENDMDL
MODEL 3
REMARK VINA RESULT:    -7.152      3.799      8.659
REMARK INTER + INTRA:         -11.309
REMARK INTER:                  -9.716
REMARK INTRA:                  -1.594
REMARK UNBOUND:                -1.649
REMARK  6 active torsions:
REMARK  status: ('A' for Active; 'I' for Inactive)
REMARK    1  A    between atoms: NBC_2  and  CBB_4 
REMARK    2  A    between atoms: CBB_4  and  CBA_5 
REMARK    3  A    between atoms: CBA_5  and  CAY_6 
REMARK    4  A    between atoms: CAY_6  and  NAH_7 
REMARK    5  A    between atoms: CAG_15  and  CAI_16 
REMARK    6  A    between atoms: CAJ_22  and  CAK_23 
ROOT
HETATM    1  CAI   D T1307      -6.186  -3.138  -5.716  1.00 44.72     0.064 A 
HETATM    2  CAT   D T1307      -4.887  -2.864  -5.048  1.00 42.93     0.282 A 
HETATM    3  OAZ   D T1307      -4.679  -1.839  -4.302  1.00 41.82    -0.265 OA
HETATM    4  NAU   D T1307      -3.909  -3.793  -5.308  1.00 41.25    -0.169 NA
HETATM    5  CAV   D T1307      -4.486  -4.719  -6.116  1.00 41.79     0.282 A 
HETATM    6  OAX   D T1307      -3.849  -5.760  -6.551  1.00 43.23    -0.265 OA
HETATM    7  CAJ   D T1307      -5.884  -4.377  -6.445  1.00 41.06     0.064 A 
ENDROOT
BRANCH   1   8
HETATM    8  CAG   D T1307      -7.460  -2.338  -5.558  1.00 45.56     0.023 A 
HETATM    9  CAW   D T1307      -7.596  -1.011  -5.952  1.00 46.69     0.076 A 
HETATM   10  NAH   D T1307      -8.891  -0.645  -5.698  1.00 47.96    -0.326 N 
HETATM   11  CAE   D T1307      -9.573  -1.700  -5.202  1.00 47.40     0.060 A 
HETATM   12  CAF   D T1307     -10.906  -1.828  -4.819  1.00 46.84     0.017 A 
HETATM   13  CAD   D T1307      -8.709  -2.798  -5.116  1.00 47.14     0.017 A 
HETATM   14  CAA   D T1307     -11.396  -3.029  -4.312  1.00 46.26     0.002 A 
HETATM   15  CAB   D T1307     -10.542  -4.115  -4.207  1.00 47.22     0.000 A 
HETATM   16  CAC   D T1307      -9.192  -4.003  -4.608  1.00 47.34     0.002 A 
BRANCH  10  17
HETATM   17  CAY   D T1307      -9.559   0.643  -5.950  1.00 47.35     0.108 C 
BRANCH  17  18
HETATM   18  CBA   D T1307     -10.182   0.788  -7.336  1.00 49.36     0.048 C 
BRANCH  18  19
HETATM   19  CBB   D T1307      -9.051   0.823  -8.382  1.00 49.76     0.099 C 
BRANCH  19  20
HETATM   20  NBC   D T1307      -8.958  -0.418  -9.178  1.00 50.82    -0.365 N 
HETATM   21  CBD   D T1307      -7.883  -0.481 -10.147  1.00 49.65     0.121 C 
HETATM   22  CBE   D T1307      -9.889  -1.554  -9.058  1.00 51.10     0.121 C 
ENDBRANCH  19  20
ENDBRANCH  18  19
ENDBRANCH  17  18
ENDBRANCH  10  17
ENDBRANCH   1   8
BRANCH   7  23
HETATM   23  CAK   D T1307      -6.838  -5.195  -7.203  1.00 42.28     0.025 A 
HETATM   24  CAM   D T1307      -7.037  -6.550  -6.930  1.00 43.03     0.019 A 
HETATM   25  CAP   D T1307      -6.538  -7.444  -5.931  1.00 40.17     0.002 A 
HETATM   26  CAN   D T1307      -7.936  -6.930  -7.937  1.00 41.89     0.081 A 
HETATM   27  CAQ   D T1307      -6.968  -8.768  -5.918  1.00 40.87     0.000 A 
HETATM   28  CAR   D T1307      -7.893  -9.172  -6.899  1.00 41.97     0.002 A 
HETATM   29  CAS   D T1307      -8.370  -8.273  -7.899  1.00 41.64     0.019 A 
HETATM   30  NAO   D T1307      -8.198  -5.828  -8.739  1.00 41.75    -0.244 NA
HETATM   31  CAL   D T1307      -7.523  -4.727  -8.315  1.00 40.82     0.099 A 
ENDBRANCH   7  23
TORSDOF 6
ENDMDL
MODEL 4
REMARK VINA RESULT:    -7.127      3.925      7.310
REMARK INTER + INTRA:         -11.275
REMARK INTER:                  -9.680
REMARK INTRA:                  -1.595
REMARK UNBOUND:                -1.649
REMARK  6 active torsions:
REMARK  status: ('A' for Active; 'I' for Inactive)
REMARK    1  A    between atoms: NBC_2  and  CBB_4 
REMARK    2  A    between atoms: CBB_4  and  CBA_5 
REMARK    3  A    between atoms: CBA_5  and  CAY_6 
REMARK    4  A    between atoms: CAY_6  and  NAH_7 
REMARK    5  A    between atoms: CAG_15  and  CAI_16 
REMARK    6  A    between atoms: CAJ_22  and  CAK_23 
ROOT
HETATM    1  CAI   D T1307      -6.590  -2.352  -6.580  1.00 44.72     0.064 A 
HETATM    2  CAT   D T1307      -5.968  -1.288  -7.412  1.00 42.93     0.282 A 
HETATM    3  OAZ   D T1307      -4.859  -1.443  -8.042  1.00 41.82    -0.265 OA
HETATM    4  NAU   D T1307      -6.670  -0.107  -7.439  1.00 41.25    -0.169 NA
HETATM    5  CAV   D T1307      -7.772  -0.316  -6.674  1.00 41.79     0.282 A 
HETATM    6  OAX   D T1307      -8.675   0.595  -6.490  1.00 43.23    -0.265 OA
HETATM    7  CAJ   D T1307      -7.788  -1.666  -6.078  1.00 41.06     0.064 A 
ENDROOT
BRANCH   1   8
HETATM    8  CAG   D T1307      -6.091  -3.770  -6.421  1.00 45.56     0.023 A 
HETATM    9  CAW   D T1307      -6.825  -4.896  -6.781  1.00 46.69     0.076 A 
HETATM   10  NAH   D T1307      -6.035  -5.987  -6.538  1.00 47.96    -0.326 N 
HETATM   11  CAE   D T1307      -4.828  -5.584  -6.083  1.00 47.40     0.060 A 
HETATM   12  CAF   D T1307      -3.696  -6.313  -5.727  1.00 46.84     0.017 A 
HETATM   13  CAD   D T1307      -4.815  -4.186  -6.014  1.00 47.14     0.017 A 
HETATM   14  CAA   D T1307      -2.548  -5.676  -5.263  1.00 46.26     0.002 A 
HETATM   15  CAB   D T1307      -2.534  -4.293  -5.174  1.00 47.22     0.000 A 
HETATM   16  CAC   D T1307      -3.669  -3.541  -5.548  1.00 47.34     0.002 A 
BRANCH  10  17
HETATM   17  CAY   D T1307      -6.325  -7.413  -6.765  1.00 47.35     0.108 C 
BRANCH  17  18
HETATM   18  CBA   D T1307      -7.615  -7.696  -7.531  1.00 49.36     0.048 C 
BRANCH  18  19
HETATM   19  CBB   D T1307      -7.654  -9.194  -7.892  1.00 49.76     0.099 C 
BRANCH  19  20
HETATM   20  NBC   D T1307      -8.420 -10.004  -6.923  1.00 50.82    -0.365 N 
HETATM   21  CBD   D T1307      -9.851 -10.079  -7.136  1.00 49.65     0.121 C 
HETATM   22  CBE   D T1307      -7.824 -10.703  -5.771  1.00 51.10     0.121 C 
ENDBRANCH  19  20
ENDBRANCH  18  19
ENDBRANCH  17  18
ENDBRANCH  10  17
ENDBRANCH   1   8
BRANCH   7  23
HETATM   23  CAK   D T1307      -8.868  -2.267  -5.286  1.00 42.28     0.025 A 
HETATM   24  CAM   D T1307      -9.895  -3.010  -5.871  1.00 43.03     0.019 A 
HETATM   25  CAP   D T1307     -10.164  -3.450  -7.206  1.00 40.17     0.002 A 
HETATM   26  CAN   D T1307     -10.723  -3.293  -4.776  1.00 41.89     0.081 A 
HETATM   27  CAQ   D T1307     -11.294  -4.223  -7.459  1.00 40.87     0.000 A 
HETATM   28  CAR   D T1307     -12.129  -4.547  -6.374  1.00 41.97     0.002 A 
HETATM   29  CAS   D T1307     -11.857  -4.089  -5.051  1.00 41.64     0.019 A 
HETATM   30  NAO   D T1307     -10.177  -2.707  -3.642  1.00 41.75    -0.244 NA
HETATM   31  CAL   D T1307      -9.020  -2.050  -3.925  1.00 40.82     0.099 A 
ENDBRANCH   7  23
TORSDOF 6
ENDMDL
MODEL 5
REMARK VINA RESULT:    -6.863      6.718     10.229
REMARK INTER + INTRA:         -10.919
REMARK INTER:                  -8.868
REMARK INTRA:                  -2.052
REMARK UNBOUND:                -1.649
REMARK  6 active torsions:
REMARK  status: ('A' for Active; 'I' for Inactive)
REMARK    1  A    between atoms: NBC_2  and  CBB_4 
REMARK    2  A    between atoms: CBB_4  and  CBA_5 
REMARK    3  A    between atoms: CBA_5  and  CAY_6 
REMARK    4  A    between atoms: CAY_6  and  NAH_7 
REMARK    5  A    between atoms: CAG_15  and  CAI_16 
REMARK    6  A    between atoms: CAJ_22  and  CAK_23 
ROOT
HETATM    1  CAI   D T1307      -5.433  -6.932  -6.370  1.00 44.72     0.064 A 
HETATM    2  CAT   D T1307      -4.024  -6.552  -6.091  1.00 42.93     0.282 A 
HETATM    3  OAZ   D T1307      -3.111  -7.402  -5.779  1.00 41.82    -0.265 OA
HETATM    4  NAU   D T1307      -3.773  -5.204  -6.173  1.00 41.25    -0.169 NA
HETATM    5  CAV   D T1307      -4.953  -4.630  -6.523  1.00 41.79     0.282 A 
HETATM    6  OAX   D T1307      -5.081  -3.354  -6.707  1.00 43.23    -0.265 OA
HETATM    7  CAJ   D T1307      -6.041  -5.621  -6.636  1.00 41.06     0.064 A 
ENDROOT
BRANCH   1   8
HETATM    8  CAG   D T1307      -5.986  -8.338  -6.427  1.00 45.56     0.023 A 
HETATM    9  CAW   D T1307      -7.116  -8.756  -5.730  1.00 46.69     0.076 A 
HETATM   10  NAH   D T1307      -7.335 -10.065  -6.066  1.00 47.96    -0.326 N 
HETATM   11  CAE   D T1307      -6.415 -10.463  -6.972  1.00 47.40     0.060 A 
HETATM   12  CAF   D T1307      -6.243 -11.682  -7.624  1.00 46.84     0.017 A 
HETATM   13  CAD   D T1307      -5.555  -9.393  -7.244  1.00 47.14     0.017 A 
HETATM   14  CAA   D T1307      -5.199 -11.874  -8.524  1.00 46.26     0.002 A 
HETATM   15  CAB   D T1307      -4.331 -10.826  -8.784  1.00 47.22     0.000 A 
HETATM   16  CAC   D T1307      -4.505  -9.579  -8.143  1.00 47.34     0.002 A 
BRANCH  10  17
HETATM   17  CAY   D T1307      -8.410 -10.969  -5.626  1.00 47.35     0.108 C 
BRANCH  17  18
HETATM   18  CBA   D T1307      -9.802 -10.623  -6.150  1.00 49.36     0.048 C 
BRANCH  18  19
HETATM   19  CBB   D T1307      -9.958 -11.216  -7.563  1.00 49.76     0.099 C 
BRANCH  19  20
HETATM   20  NBC   D T1307      -9.703 -10.234  -8.636  1.00 50.82    -0.365 N 
HETATM   21  CBD   D T1307     -10.175  -8.885  -8.399  1.00 49.65     0.121 C 
HETATM   22  CBE   D T1307      -9.031 -10.549  -9.909  1.00 51.10     0.121 C 
ENDBRANCH  19  20
ENDBRANCH  18  19
ENDBRANCH  17  18
ENDBRANCH  10  17
ENDBRANCH   1   8
BRANCH   7  23
HETATM   23  CAK   D T1307      -7.414  -5.375  -7.092  1.00 42.28     0.025 A 
HETATM   24  CAM   D T1307      -8.399  -4.865  -6.245  1.00 43.03     0.019 A 
HETATM   25  CAP   D T1307      -8.400  -4.395  -4.893  1.00 40.17     0.002 A 
HETATM   26  CAN   D T1307      -9.540  -4.890  -7.061  1.00 41.89     0.081 A 
HETATM   27  CAQ   D T1307      -9.579  -3.909  -4.335  1.00 40.87     0.000 A 
HETATM   28  CAR   D T1307     -10.734  -3.895  -5.140  1.00 41.97     0.002 A 
HETATM   29  CAS   D T1307     -10.722  -4.380  -6.482  1.00 41.64     0.019 A 
HETATM   30  NAO   D T1307      -9.190  -5.414  -8.298  1.00 41.75    -0.244 NA
HETATM   31  CAL   D T1307      -7.870  -5.736  -8.351  1.00 40.82     0.099 A 
ENDBRANCH   7  23
TORSDOF 6
ENDMDL
MODEL 6
REMARK VINA RESULT:    -6.809      2.264      6.640
REMARK INTER + INTRA:         -10.846
REMARK INTER:                  -9.038
REMARK INTRA:                  -1.808
REMARK UNBOUND:                -1.649
REMARK  6 active torsions:
REMARK  status: ('A' for Active; 'I' for Inactive)
REMARK    1  A    between atoms: NBC_2  and  CBB_4 
REMARK    2  A    between atoms: CBB_4  and  CBA_5 
REMARK    3  A    between atoms: CBA_5  and  CAY_6 
REMARK    4  A    between atoms: CAY_6  and  NAH_7 
REMARK    5  A    between atoms: CAG_15  and  CAI_16 
REMARK    6  A    between atoms: CAJ_22  and  CAK_23 
ROOT
HETATM    1  CAI   D T1307      -9.399  -1.381  -7.428  1.00 44.72     0.064 A 
HETATM    2  CAT   D T1307     -10.106  -2.189  -8.456  1.00 42.93     0.282 A 
HETATM    3  OAZ   D T1307     -11.097  -1.746  -9.144  1.00 41.82    -0.265 OA
HETATM    4  NAU   D T1307      -9.623  -3.467  -8.602  1.00 41.25    -0.169 NA
HETATM    5  CAV   D T1307      -8.590  -3.573  -7.728  1.00 41.79     0.282 A 
HETATM    6  OAX   D T1307      -7.885  -4.653  -7.609  1.00 43.23    -0.265 OA
HETATM    7  CAJ   D T1307      -8.401  -2.341  -6.938  1.00 41.06     0.064 A 
ENDROOT
BRANCH   1   8
HETATM    8  CAG   D T1307      -9.657   0.072  -7.100  1.00 45.56     0.023 A 
HETATM    9  CAW   D T1307      -9.018   1.135  -7.731  1.00 46.69     0.076 A 
HETATM   10  NAH   D T1307      -9.540   2.287  -7.208  1.00 47.96    -0.326 N 
HETATM   11  CAE   D T1307     -10.503   1.985  -6.311  1.00 47.40     0.060 A 
HETATM   12  CAF   D T1307     -11.329   2.806  -5.546  1.00 46.84     0.017 A 
HETATM   13  CAD   D T1307     -10.624   0.593  -6.228  1.00 47.14     0.017 A 
HETATM   14  CAA   D T1307     -12.258   2.266  -4.661  1.00 46.26     0.002 A 
HETATM   15  CAB   D T1307     -12.370   0.888  -4.558  1.00 47.22     0.000 A 
HETATM   16  CAC   D T1307     -11.551   0.045  -5.342  1.00 47.34     0.002 A 
BRANCH  10  17
HETATM   17  CAY   D T1307      -9.226   3.686  -7.546  1.00 47.35     0.108 C 
BRANCH  17  18
HETATM   18  CBA   D T1307      -7.812   4.137  -7.185  1.00 49.36     0.048 C 
BRANCH  18  19
HETATM   19  CBB   D T1307      -7.756   4.418  -5.672  1.00 49.76     0.099 C 
BRANCH  19  20
HETATM   20  NBC   D T1307      -8.410   5.687  -5.292  1.00 50.82    -0.365 N 
HETATM   21  CBD   D T1307      -9.288   5.638  -4.142  1.00 49.65     0.121 C 
HETATM   22  CBE   D T1307      -8.237   6.959  -6.015  1.00 51.10     0.121 C 
ENDBRANCH  19  20
ENDBRANCH  18  19
ENDBRANCH  17  18
ENDBRANCH  10  17
ENDBRANCH   1   8
BRANCH   7  23
HETATM   23  CAK   D T1307      -7.323  -2.063  -5.981  1.00 42.28     0.025 A 
HETATM   24  CAM   D T1307      -6.001  -1.870  -6.385  1.00 43.03     0.019 A 
HETATM   25  CAP   D T1307      -5.353  -1.796  -7.658  1.00 40.17     0.002 A 
HETATM   26  CAN   D T1307      -5.329  -1.738  -5.161  1.00 41.89     0.081 A 
HETATM   27  CAQ   D T1307      -3.983  -1.557  -7.720  1.00 40.87     0.000 A 
HETATM   28  CAR   D T1307      -3.287  -1.392  -6.508  1.00 41.97     0.002 A 
HETATM   29  CAS   D T1307      -3.943  -1.484  -5.244  1.00 41.64     0.019 A 
HETATM   30  NAO   D T1307      -6.250  -1.876  -4.131  1.00 41.75    -0.244 NA
HETATM   31  CAL   D T1307      -7.506  -2.088  -4.606  1.00 40.82     0.099 A 
ENDBRANCH   7  23
TORSDOF 6
ENDMDL
MODEL 7
REMARK VINA RESULT:    -6.799      4.533      7.481
REMARK INTER + INTRA:         -10.833
REMARK INTER:                  -9.610
REMARK INTRA:                  -1.223
REMARK UNBOUND:                -1.649
REMARK  6 active torsions:
REMARK  status: ('A' for Active; 'I' for Inactive)
REMARK    1  A    between atoms: NBC_2  and  CBB_4 
REMARK    2  A    between atoms: CBB_4  and  CBA_5 
REMARK    3  A    between atoms: CBA_5  and  CAY_6 
REMARK    4  A    between atoms: CAY_6  and  NAH_7 
REMARK    5  A    between atoms: CAG_15  and  CAI_16 
REMARK    6  A    between atoms: CAJ_22  and  CAK_23 
ROOT
HETATM    1  CAI   D T1307      -4.842  -3.731  -5.796  1.00 44.72     0.064 A 
HETATM    2  CAT   D T1307      -3.374  -3.589  -5.619  1.00 42.93     0.282 A 
HETATM    3  OAZ   D T1307      -2.550  -4.570  -5.724  1.00 41.82    -0.265 OA
HETATM    4  NAU   D T1307      -2.962  -2.315  -5.311  1.00 41.25    -0.169 NA
HETATM    5  CAV   D T1307      -4.088  -1.558  -5.289  1.00 41.79     0.282 A 
HETATM    6  OAX   D T1307      -4.070  -0.286  -5.044  1.00 43.23    -0.265 OA
HETATM    7  CAJ   D T1307      -5.301  -2.358  -5.547  1.00 41.06     0.064 A 
ENDROOT
BRANCH   1   8
HETATM    8  CAG   D T1307      -5.575  -4.988  -6.210  1.00 45.56     0.023 A 
HETATM    9  CAW   D T1307      -5.261  -6.259  -5.741  1.00 46.69     0.076 A 
HETATM   10  NAH   D T1307      -6.163  -7.127  -6.294  1.00 47.96    -0.326 N 
HETATM   11  CAE   D T1307      -7.048  -6.444  -7.052  1.00 47.40     0.060 A 
HETATM   12  CAF   D T1307      -8.150  -6.877  -7.785  1.00 46.84     0.017 A 
HETATM   13  CAD   D T1307      -6.724  -5.083  -7.009  1.00 47.14     0.017 A 
HETATM   14  CAA   D T1307      -8.925  -5.981  -8.515  1.00 46.26     0.002 A 
HETATM   15  CAB   D T1307      -8.599  -4.634  -8.493  1.00 47.22     0.000 A 
HETATM   16  CAC   D T1307      -7.495  -4.179  -7.740  1.00 47.34     0.002 A 
BRANCH  10  17
HETATM   17  CAY   D T1307      -6.286  -8.583  -6.108  1.00 47.35     0.108 C 
BRANCH  17  18
HETATM   18  CBA   D T1307      -5.531  -9.432  -7.128  1.00 49.36     0.048 C 
BRANCH  18  19
HETATM   19  CBB   D T1307      -6.533 -10.373  -7.824  1.00 49.76     0.099 C 
BRANCH  19  20
HETATM   20  NBC   D T1307      -6.180 -11.800  -7.687  1.00 50.82    -0.365 N 
HETATM   21  CBD   D T1307      -6.493 -12.420  -6.416  1.00 49.65     0.121 C 
HETATM   22  CBE   D T1307      -5.526 -12.599  -8.738  1.00 51.10     0.121 C 
ENDBRANCH  19  20
ENDBRANCH  18  19
ENDBRANCH  17  18
ENDBRANCH  10  17
ENDBRANCH   1   8
BRANCH   7  23
HETATM   23  CAK   D T1307      -6.673  -1.858  -5.700  1.00 42.28     0.025 A 
HETATM   24  CAM   D T1307      -7.082  -1.144  -6.828  1.00 43.03     0.019 A 
HETATM   25  CAP   D T1307      -6.450  -0.788  -8.061  1.00 40.17     0.002 A 
HETATM   26  CAN   D T1307      -8.401  -0.797  -6.500  1.00 41.89     0.081 A 
HETATM   27  CAQ   D T1307      -7.164  -0.075  -9.019  1.00 40.87     0.000 A 
HETATM   28  CAR   D T1307      -8.500   0.263  -8.730  1.00 41.97     0.002 A 
HETATM   29  CAS   D T1307      -9.114  -0.085  -7.490  1.00 41.64     0.019 A 
HETATM   30  NAO   D T1307      -8.688  -1.285  -5.233  1.00 41.75    -0.244 NA
HETATM   31  CAL   D T1307      -7.628  -1.947  -4.699  1.00 40.82     0.099 A 
ENDBRANCH   7  23
TORSDOF 6
ENDMDL
MODEL 8
REMARK VINA RESULT:    -6.720      2.841      7.623
REMARK INTER + INTRA:         -10.725
REMARK INTER:                  -8.644
REMARK INTRA:                  -2.081
REMARK UNBOUND:                -1.649
REMARK  6 active torsions:
REMARK  status: ('A' for Active; 'I' for Inactive)
REMARK    1  A    between atoms: NBC_2  and  CBB_4 
REMARK    2  A    between atoms: CBB_4  and  CBA_5 
REMARK    3  A    between atoms: CBA_5  and  CAY_6 
REMARK    4  A    between atoms: CAY_6  and  NAH_7 
REMARK    5  A    between atoms: CAG_15  and  CAI_16 
REMARK    6  A    between atoms: CAJ_22  and  CAK_23 
ROOT
HETATM    1  CAI   D T1307      -7.346  -0.899  -6.551  1.00 44.72     0.064 A 
HETATM    2  CAT   D T1307      -5.924  -1.065  -6.151  1.00 42.93     0.282 A 
HETATM    3  OAZ   D T1307      -5.178  -0.089  -5.774  1.00 41.82    -0.265 OA
HETATM    4  NAU   D T1307      -5.459  -2.354  -6.236  1.00 41.25    -0.169 NA
HETATM    5  CAV   D T1307      -6.512  -3.100  -6.658  1.00 41.79     0.282 A 
HETATM    6  OAX   D T1307      -6.434  -4.381  -6.834  1.00 43.23    -0.265 OA
HETATM    7  CAJ   D T1307      -7.711  -2.277  -6.908  1.00 41.06     0.064 A 
ENDROOT
BRANCH   1   8
HETATM    8  CAG   D T1307      -8.150   0.380  -6.490  1.00 45.56     0.023 A 
HETATM    9  CAW   D T1307      -7.880   1.503  -7.267  1.00 46.69     0.076 A 
HETATM   10  NAH   D T1307      -8.839   2.435  -6.974  1.00 47.96    -0.326 N 
HETATM   11  CAE   D T1307      -9.714   1.924  -6.081  1.00 47.40     0.060 A 
HETATM   12  CAF   D T1307     -10.857   2.473  -5.505  1.00 46.84     0.017 A 
HETATM   13  CAD   D T1307      -9.325   0.617  -5.763  1.00 47.14     0.017 A 
HETATM   14  CAA   D T1307     -11.612   1.756  -4.581  1.00 46.26     0.002 A 
HETATM   15  CAB   D T1307     -11.223   0.469  -4.247  1.00 47.22     0.000 A 
HETATM   16  CAC   D T1307     -10.075  -0.107  -4.837  1.00 47.34     0.002 A 
BRANCH  10  17
HETATM   17  CAY   D T1307      -9.024   3.785  -7.534  1.00 47.35     0.108 C 
BRANCH  17  18
HETATM   18  CBA   D T1307      -7.860   4.746  -7.303  1.00 49.36     0.048 C 
BRANCH  18  19
HETATM   19  CBB   D T1307      -7.563   4.805  -5.793  1.00 49.76     0.099 C 
BRANCH  19  20
HETATM   20  NBC   D T1307      -8.508   5.662  -5.049  1.00 50.82    -0.365 N 
HETATM   21  CBD   D T1307      -8.975   5.149  -3.777  1.00 49.65     0.121 C 
HETATM   22  CBE   D T1307      -9.003   6.964  -5.528  1.00 51.10     0.121 C 
ENDBRANCH  19  20
ENDBRANCH  18  19
ENDBRANCH  17  18
ENDBRANCH  10  17
ENDBRANCH   1   8
BRANCH   7  23
HETATM   23  CAK   D T1307      -9.050  -2.756  -7.271  1.00 42.28     0.025 A 
HETATM   24  CAM   D T1307      -9.898  -3.365  -6.345  1.00 43.03     0.019 A 
HETATM   25  CAP   D T1307      -9.817  -3.613  -4.938  1.00 40.17     0.002 A 
HETATM   26  CAN   D T1307     -10.994  -3.735  -7.139  1.00 41.89     0.081 A 
HETATM   27  CAQ   D T1307     -10.879  -4.235  -4.287  1.00 40.87     0.000 A 
HETATM   28  CAR   D T1307     -12.004  -4.593  -5.053  1.00 41.97     0.002 A 
HETATM   29  CAS   D T1307     -12.066  -4.353  -6.458  1.00 41.64     0.019 A 
HETATM   30  NAO   D T1307     -10.739  -3.360  -8.450  1.00 41.75    -0.244 NA
HETATM   31  CAL   D T1307      -9.530  -2.752  -8.573  1.00 40.82     0.099 A 
ENDBRANCH   7  23
TORSDOF 6
ENDMDL
MODEL 9
REMARK VINA RESULT:    -6.581      3.354      8.874
REMARK INTER + INTRA:         -10.538
REMARK INTER:                  -9.302
REMARK INTRA:                  -1.236
REMARK UNBOUND:                -1.649
REMARK  6 active torsions:
REMARK  status: ('A' for Active; 'I' for Inactive)
REMARK    1  A    between atoms: NBC_2  and  CBB_4 
REMARK    2  A    between atoms: CBB_4  and  CBA_5 
REMARK    3  A    between atoms: CBA_5  and  CAY_6 
REMARK    4  A    between atoms: CAY_6  and  NAH_7 
REMARK    5  A    between atoms: CAG_15  and  CAI_16 
REMARK    6  A    between atoms: CAJ_22  and  CAK_23 
ROOT
HETATM    1  CAI   D T1307      -6.276  -2.774  -5.922  1.00 44.72     0.064 A 
HETATM    2  CAT   D T1307      -4.980  -2.384  -5.306  1.00 42.93     0.282 A 
HETATM    3  OAZ   D T1307      -4.817  -1.305  -4.627  1.00 41.82    -0.265 OA
HETATM    4  NAU   D T1307      -3.954  -3.268  -5.537  1.00 41.25    -0.169 NA
HETATM    5  CAV   D T1307      -4.492  -4.273  -6.274  1.00 41.79     0.282 A 
HETATM    6  OAX   D T1307      -3.803  -5.299  -6.663  1.00 43.23    -0.265 OA
HETATM    7  CAJ   D T1307      -5.915  -4.034  -6.585  1.00 41.06     0.064 A 
ENDROOT
BRANCH   1   8
HETATM    8  CAG   D T1307      -7.591  -2.043  -5.777  1.00 45.56     0.023 A 
HETATM    9  CAW   D T1307      -7.819  -0.755  -6.252  1.00 46.69     0.076 A 
HETATM   10  NAH   D T1307      -9.126  -0.451  -5.983  1.00 47.96    -0.326 N 
HETATM   11  CAE   D T1307      -9.729  -1.510  -5.400  1.00 47.40     0.060 A 
HETATM   12  CAF   D T1307     -11.042  -1.692  -4.970  1.00 46.84     0.017 A 
HETATM   13  CAD   D T1307      -8.798  -2.547  -5.270  1.00 47.14     0.017 A 
HETATM   14  CAA   D T1307     -11.444  -2.884  -4.374  1.00 46.26     0.002 A 
HETATM   15  CAB   D T1307     -10.523  -3.908  -4.225  1.00 47.22     0.000 A 
HETATM   16  CAC   D T1307      -9.193  -3.743  -4.672  1.00 47.34     0.002 A 
BRANCH  10  17
HETATM   17  CAY   D T1307      -9.879   0.775  -6.297  1.00 47.35     0.108 C 
BRANCH  17  18
HETATM   18  CBA   D T1307      -9.077   2.070  -6.193  1.00 49.36     0.048 C 
BRANCH  18  19
HETATM   19  CBB   D T1307     -10.022   3.258  -6.455  1.00 49.76     0.099 C 
BRANCH  19  20
HETATM   20  NBC   D T1307      -9.394   4.569  -6.196  1.00 50.82    -0.365 N 
HETATM   21  CBD   D T1307      -8.136   4.548  -5.478  1.00 49.65     0.121 C 
HETATM   22  CBE   D T1307      -9.972   5.862  -6.600  1.00 51.10     0.121 C 
ENDBRANCH  19  20
ENDBRANCH  18  19
ENDBRANCH  17  18
ENDBRANCH  10  17
ENDBRANCH   1   8
BRANCH   7  23
HETATM   23  CAK   D T1307      -6.835  -4.952  -7.268  1.00 42.28     0.025 A 
HETATM   24  CAM   D T1307      -6.940  -6.299  -6.916  1.00 43.03     0.019 A 
HETATM   25  CAP   D T1307      -6.361  -7.103  -5.884  1.00 40.17     0.002 A 
HETATM   26  CAN   D T1307      -7.840  -6.790  -7.873  1.00 41.89     0.081 A 
HETATM   27  CAQ   D T1307      -6.705  -8.447  -5.785  1.00 40.87     0.000 A 
HETATM   28  CAR   D T1307      -7.628  -8.963  -6.715  1.00 41.97     0.002 A 
HETATM   29  CAS   D T1307      -8.187  -8.153  -7.748  1.00 41.64     0.019 A 
HETATM   30  NAO   D T1307      -8.192  -5.754  -8.726  1.00 41.75    -0.244 NA
HETATM   31  CAL   D T1307      -7.577  -4.591  -8.383  1.00 40.82     0.099 A 
ENDBRANCH   7  23
TORSDOF 6
ENDMDL
