MODEL 1
REMARK VINA RESULT:    -7.279      0.000      0.000
REMARK INTER + INTRA:         -11.305
REMARK INTER:                  -9.832
REMARK INTRA:                  -1.473
REMARK UNBOUND:                -1.473
REMARK  6 active torsions:
REMARK  status: ('A' for Active; 'I' for Inactive)
REMARK    1  A    between atoms: NBC_2  and  CBB_4 
REMARK    2  A    between atoms: CBB_4  and  CBA_5 
REMARK    3  A    between atoms: CBA_5  and  CAY_6 
REMARK    4  A    between atoms: CAY_6  and  NAH_7 
REMARK    5  A    between atoms: CAG_15  and  CAI_16 
REMARK    6  A    between atoms: CAJ_22  and  CAK_23 
ROOT
HETATM    1  CAI   D T1307      10.376  -3.331  -0.047  1.00 44.72     0.064 A 
HETATM    2  CAT   D T1307       9.899  -4.545   0.666  1.00 42.93     0.282 A 
HETATM    3  OAZ   D T1307       8.800  -5.145   0.382  1.00 41.82    -0.265 OA
HETATM    4  NAU   D T1307      10.725  -4.968   1.680  1.00 41.25    -0.169 NA
HETATM    5  CAV   D T1307      11.774  -4.106   1.683  1.00 41.79     0.282 A 
HETATM    6  OAX   D T1307      12.765  -4.217   2.511  1.00 43.23    -0.265 OA
HETATM    7  CAJ   D T1307      11.625  -3.044   0.670  1.00 41.06     0.064 A 
ENDROOT
BRANCH   1   8
HETATM    8  CAG   D T1307       9.721  -2.683  -1.246  1.00 45.56     0.023 A 
HETATM    9  CAW   D T1307       9.261  -1.370  -1.263  1.00 46.69     0.076 A 
HETATM   10  NAH   D T1307       8.779  -1.129  -2.523  1.00 47.96    -0.326 N 
HETATM   11  CAE   D T1307       8.960  -2.220  -3.297  1.00 47.40     0.060 A 
HETATM   12  CAF   D T1307       8.662  -2.449  -4.638  1.00 46.84     0.017 A 
HETATM   13  CAD   D T1307       9.573  -3.222  -2.532  1.00 47.14     0.017 A 
HETATM   14  CAA   D T1307       8.928  -3.678  -5.234  1.00 46.26     0.002 A 
HETATM   15  CAB   D T1307       9.516  -4.681  -4.478  1.00 47.22     0.000 A 
HETATM   16  CAC   D T1307       9.840  -4.456  -3.123  1.00 47.34     0.002 A 
BRANCH  10  17
HETATM   17  CAY   D T1307       8.200   0.108  -3.074  1.00 47.35     0.108 C 
BRANCH  17  18
HETATM   18  CBA   D T1307       9.167   0.971  -3.880  1.00 49.36     0.048 C 
BRANCH  18  19
HETATM   19  CBB   D T1307       8.536   1.267  -5.254  1.00 49.76     0.099 C 
BRANCH  19  20
HETATM   20  NBC   D T1307       9.477   1.892  -6.203  1.00 50.82    -0.365 N 
HETATM   21  CBD   D T1307      10.885   1.641  -5.973  1.00 49.65     0.121 C 
HETATM   22  CBE   D T1307       9.073   2.754  -7.328  1.00 51.10     0.121 C 
ENDBRANCH  19  20
ENDBRANCH  18  19
ENDBRANCH  17  18
ENDBRANCH  10  17
ENDBRANCH   1   8
BRANCH   7  23
HETATM   23  CAK   D T1307      12.608  -2.010   0.324  1.00 42.28     0.025 A 
HETATM   24  CAM   D T1307      12.943  -0.979   1.203  1.00 43.03     0.019 A 
HETATM   25  CAP   D T1307      12.580  -0.667   2.552  1.00 40.17     0.002 A 
HETATM   26  CAN   D T1307      13.819  -0.200   0.433  1.00 41.89     0.081 A 
HETATM   27  CAQ   D T1307      13.129   0.453   3.169  1.00 40.87     0.000 A 
HETATM   28  CAR   D T1307      14.033   1.238   2.432  1.00 41.97     0.002 A 
HETATM   29  CAS   D T1307      14.374   0.925   1.081  1.00 41.64     0.019 A 
HETATM   30  NAO   D T1307      13.939  -0.776  -0.824  1.00 41.75    -0.244 NA
HETATM   31  CAL   D T1307      13.189  -1.905  -0.931  1.00 40.82     0.099 A 
ENDBRANCH   7  23
TORSDOF 6
ENDMDL
MODEL 2
REMARK VINA RESULT:    -7.007      2.035      6.383
REMARK INTER + INTRA:         -10.938
REMARK INTER:                  -9.351
REMARK INTRA:                  -1.586
REMARK UNBOUND:                -1.473
REMARK  6 active torsions:
REMARK  status: ('A' for Active; 'I' for Inactive)
REMARK    1  A    between atoms: NBC_2  and  CBB_4 
REMARK    2  A    between atoms: CBB_4  and  CBA_5 
REMARK    3  A    between atoms: CBA_5  and  CAY_6 
REMARK    4  A    between atoms: CAY_6  and  NAH_7 
REMARK    5  A    between atoms: CAG_15  and  CAI_16 
REMARK    6  A    between atoms: CAJ_22  and  CAK_23 
ROOT
HETATM    1  CAI   D T1307       9.961  -3.552  -2.485  1.00 44.72     0.064 A 
HETATM    2  CAT   D T1307       9.917  -4.933  -3.033  1.00 42.93     0.282 A 
HETATM    3  OAZ   D T1307      10.439  -5.945  -2.440  1.00 41.82    -0.265 OA
HETATM    4  NAU   D T1307       9.285  -5.041  -4.249  1.00 41.25    -0.169 NA
HETATM    5  CAV   D T1307       8.864  -3.787  -4.557  1.00 41.79     0.282 A 
HETATM    6  OAX   D T1307       8.208  -3.519  -5.641  1.00 43.23    -0.265 OA
HETATM    7  CAJ   D T1307       9.267  -2.799  -3.538  1.00 41.06     0.064 A 
ENDROOT
BRANCH   1   8
HETATM    8  CAG   D T1307      10.520  -3.140  -1.142  1.00 45.56     0.023 A 
HETATM    9  CAW   D T1307      11.345  -2.037  -0.951  1.00 46.69     0.076 A 
HETATM   10  NAH   D T1307      11.606  -1.957   0.391  1.00 47.96    -0.326 N 
HETATM   11  CAE   D T1307      10.944  -2.936   1.044  1.00 47.40     0.060 A 
HETATM   12  CAF   D T1307      10.873  -3.245   2.400  1.00 46.84     0.017 A 
HETATM   13  CAD   D T1307      10.226  -3.697   0.112  1.00 47.14     0.017 A 
HETATM   14  CAA   D T1307      10.126  -4.329   2.853  1.00 46.26     0.002 A 
HETATM   15  CAB   D T1307       9.429  -5.098   1.933  1.00 47.22     0.000 A 
HETATM   16  CAC   D T1307       9.478  -4.784   0.558  1.00 47.34     0.002 A 
BRANCH  10  17
HETATM   17  CAY   D T1307      12.409  -0.963   1.124  1.00 47.35     0.108 C 
BRANCH  17  18
HETATM   18  CBA   D T1307      13.916  -1.058   0.900  1.00 49.36     0.048 C 
BRANCH  18  19
HETATM   19  CBB   D T1307      14.438   0.327   0.471  1.00 49.76     0.099 C 
BRANCH  19  20
HETATM   20  NBC   D T1307      15.191   0.296  -0.798  1.00 50.82    -0.365 N 
HETATM   21  CBD   D T1307      15.313   1.555  -1.505  1.00 49.65     0.121 C 
HETATM   22  CBE   D T1307      15.789  -0.918  -1.380  1.00 51.10     0.121 C 
ENDBRANCH  19  20
ENDBRANCH  18  19
ENDBRANCH  17  18
ENDBRANCH  10  17
ENDBRANCH   1   8
BRANCH   7  23
HETATM   23  CAK   D T1307       8.899  -1.379  -3.492  1.00 42.28     0.025 A 
HETATM   24  CAM   D T1307       9.628  -0.399  -4.168  1.00 43.03     0.019 A 
HETATM   25  CAP   D T1307      10.744  -0.433  -5.063  1.00 40.17     0.002 A 
HETATM   26  CAN   D T1307       8.987   0.783  -3.768  1.00 41.89     0.081 A 
HETATM   27  CAQ   D T1307      11.229   0.755  -5.601  1.00 40.87     0.000 A 
HETATM   28  CAR   D T1307      10.588   1.954  -5.242  1.00 41.97     0.002 A 
HETATM   29  CAS   D T1307       9.485   1.975  -4.335  1.00 41.64     0.019 A 
HETATM   30  NAO   D T1307       7.960   0.458  -2.892  1.00 41.75    -0.244 NA
HETATM   31  CAL   D T1307       7.881  -0.885  -2.689  1.00 40.82     0.099 A 
ENDBRANCH   7  23
TORSDOF 6
ENDMDL
MODEL 3
REMARK VINA RESULT:    -6.701      1.483      2.144
REMARK INTER + INTRA:         -10.524
REMARK INTER:                  -8.997
REMARK INTRA:                  -1.527
REMARK UNBOUND:                -1.473
REMARK  6 active torsions:
REMARK  status: ('A' for Active; 'I' for Inactive)
REMARK    1  A    between atoms: NBC_2  and  CBB_4 
REMARK    2  A    between atoms: CBB_4  and  CBA_5 
REMARK    3  A    between atoms: CBA_5  and  CAY_6 
REMARK    4  A    between atoms: CAY_6  and  NAH_7 
REMARK    5  A    between atoms: CAG_15  and  CAI_16 
REMARK    6  A    between atoms: CAJ_22  and  CAK_23 
ROOT
HETATM    1  CAI   D T1307       9.482  -4.207  -0.111  1.00 44.72     0.064 A 
HETATM    2  CAT   D T1307       8.931  -5.519   0.319  1.00 42.93     0.282 A 
HETATM    3  OAZ   D T1307       7.979  -6.121  -0.296  1.00 41.82    -0.265 OA
HETATM    4  NAU   D T1307       9.514  -6.033   1.453  1.00 41.25    -0.169 NA
HETATM    5  CAV   D T1307      10.468  -5.138   1.815  1.00 41.79     0.282 A 
HETATM    6  OAX   D T1307      11.234  -5.313   2.845  1.00 43.23    -0.265 OA
HETATM    7  CAJ   D T1307      10.497  -3.964   0.922  1.00 41.06     0.064 A 
ENDROOT
BRANCH   1   8
HETATM    8  CAG   D T1307       9.095  -3.439  -1.355  1.00 45.56     0.023 A 
HETATM    9  CAW   D T1307       8.638  -2.125  -1.345  1.00 46.69     0.076 A 
HETATM   10  NAH   D T1307       8.436  -1.759  -2.649  1.00 47.96    -0.326 N 
HETATM   11  CAE   D T1307       8.789  -2.773  -3.467  1.00 47.40     0.060 A 
HETATM   12  CAF   D T1307       8.788  -2.869  -4.857  1.00 46.84     0.017 A 
HETATM   13  CAD   D T1307       9.231  -3.850  -2.689  1.00 47.14     0.017 A 
HETATM   14  CAA   D T1307       9.187  -4.038  -5.497  1.00 46.26     0.002 A 
HETATM   15  CAB   D T1307       9.607  -5.116  -4.732  1.00 47.22     0.000 A 
HETATM   16  CAC   D T1307       9.630  -5.025  -3.324  1.00 47.34     0.002 A 
BRANCH  10  17
HETATM   17  CAY   D T1307       7.978  -0.468  -3.190  1.00 47.35     0.108 C 
BRANCH  17  18
HETATM   18  CBA   D T1307       9.085   0.550  -3.456  1.00 49.36     0.048 C 
BRANCH  18  19
HETATM   19  CBB   D T1307       8.671   1.425  -4.655  1.00 49.76     0.099 C 
BRANCH  19  20
HETATM   20  NBC   D T1307       9.740   1.573  -5.662  1.00 50.82    -0.365 N 
HETATM   21  CBD   D T1307       9.395   2.306  -6.863  1.00 49.65     0.121 C 
HETATM   22  CBE   D T1307      11.095   1.010  -5.524  1.00 51.10     0.121 C 
ENDBRANCH  19  20
ENDBRANCH  18  19
ENDBRANCH  17  18
ENDBRANCH  10  17
ENDBRANCH   1   8
BRANCH   7  23
HETATM   23  CAK   D T1307      11.460  -2.857   0.951  1.00 42.28     0.025 A 
HETATM   24  CAM   D T1307      12.829  -3.056   0.762  1.00 43.03     0.019 A 
HETATM   25  CAP   D T1307      13.630  -4.197   0.437  1.00 40.17     0.002 A 
HETATM   26  CAN   D T1307      13.352  -1.771   0.966  1.00 41.89     0.081 A 
HETATM   27  CAQ   D T1307      15.006  -4.049   0.287  1.00 40.87     0.000 A 
HETATM   28  CAR   D T1307      15.556  -2.766   0.458  1.00 41.97     0.002 A 
HETATM   29  CAS   D T1307      14.747  -1.639   0.797  1.00 41.64     0.019 A 
HETATM   30  NAO   D T1307      12.308  -0.909   1.275  1.00 41.75    -0.244 NA
HETATM   31  CAL   D T1307      11.111  -1.556   1.283  1.00 40.82     0.099 A 
ENDBRANCH   7  23
TORSDOF 6
ENDMDL
MODEL 4
REMARK VINA RESULT:    -6.608      3.077      7.627
REMARK INTER + INTRA:         -10.399
REMARK INTER:                  -8.737
REMARK INTRA:                  -1.662
REMARK UNBOUND:                -1.473
REMARK  6 active torsions:
REMARK  status: ('A' for Active; 'I' for Inactive)
REMARK    1  A    between atoms: NBC_2  and  CBB_4 
REMARK    2  A    between atoms: CBB_4  and  CBA_5 
REMARK    3  A    between atoms: CBA_5  and  CAY_6 
REMARK    4  A    between atoms: CAY_6  and  NAH_7 
REMARK    5  A    between atoms: CAG_15  and  CAI_16 
REMARK    6  A    between atoms: CAJ_22  and  CAK_23 
ROOT
HETATM    1  CAI   D T1307      11.410  -3.499  -0.310  1.00 44.72     0.064 A 
HETATM    2  CAT   D T1307      12.840  -3.195  -0.040  1.00 42.93     0.282 A 
HETATM    3  OAZ   D T1307      13.558  -3.859   0.792  1.00 41.82    -0.265 OA
HETATM    4  NAU   D T1307      13.334  -2.123  -0.742  1.00 41.25    -0.169 NA
HETATM    5  CAV   D T1307      12.306  -1.682  -1.512  1.00 41.79     0.282 A 
HETATM    6  OAX   D T1307      12.423  -0.680  -2.325  1.00 43.23    -0.265 OA
HETATM    7  CAJ   D T1307      11.070  -2.455  -1.285  1.00 41.06     0.064 A 
ENDROOT
BRANCH   1   8
HETATM    8  CAG   D T1307      10.620  -4.658   0.255  1.00 45.56     0.023 A 
HETATM    9  CAW   D T1307      10.197  -5.748  -0.498  1.00 46.69     0.076 A 
HETATM   10  NAH   D T1307       9.560  -6.606   0.358  1.00 47.96    -0.326 N 
HETATM   11  CAE   D T1307       9.608  -6.115   1.615  1.00 47.40     0.060 A 
HETATM   12  CAF   D T1307       9.129  -6.631   2.817  1.00 46.84     0.017 A 
HETATM   13  CAD   D T1307      10.289  -4.891   1.598  1.00 47.14     0.017 A 
HETATM   14  CAA   D T1307       9.280  -5.933   4.011  1.00 46.26     0.002 A 
HETATM   15  CAB   D T1307       9.936  -4.711   3.998  1.00 47.22     0.000 A 
HETATM   16  CAC   D T1307      10.443  -4.185   2.789  1.00 47.34     0.002 A 
BRANCH  10  17
HETATM   17  CAY   D T1307       8.946  -7.915   0.075  1.00 47.35     0.108 C 
BRANCH  17  18
HETATM   18  CBA   D T1307       8.258  -8.026  -1.283  1.00 49.36     0.048 C 
BRANCH  18  19
HETATM   19  CBB   D T1307       6.998  -8.899  -1.127  1.00 49.76     0.099 C 
BRANCH  19  20
HETATM   20  NBC   D T1307       6.279  -9.114  -2.398  1.00 50.82    -0.365 N 
HETATM   21  CBD   D T1307       7.099  -9.351  -3.568  1.00 49.65     0.121 C 
HETATM   22  CBE   D T1307       4.813  -9.078  -2.540  1.00 51.10     0.121 C 
ENDBRANCH  19  20
ENDBRANCH  18  19
ENDBRANCH  17  18
ENDBRANCH  10  17
ENDBRANCH   1   8
BRANCH   7  23
HETATM   23  CAK   D T1307       9.802  -2.325  -2.012  1.00 42.28     0.025 A 
HETATM   24  CAM   D T1307       9.603  -2.898  -3.270  1.00 43.03     0.019 A 
HETATM   25  CAP   D T1307      10.392  -3.745  -4.110  1.00 40.17     0.002 A 
HETATM   26  CAN   D T1307       8.320  -2.442  -3.608  1.00 41.89     0.081 A 
HETATM   27  CAQ   D T1307       9.876  -4.176  -5.329  1.00 40.87     0.000 A 
HETATM   28  CAR   D T1307       8.581  -3.760  -5.683  1.00 41.97     0.002 A 
HETATM   29  CAS   D T1307       7.810  -2.902  -4.842  1.00 41.64     0.019 A 
HETATM   30  NAO   D T1307       7.848  -1.635  -2.582  1.00 41.75    -0.244 NA
HETATM   31  CAL   D T1307       8.753  -1.532  -1.571  1.00 40.82     0.099 A 
ENDBRANCH   7  23
TORSDOF 6
ENDMDL
MODEL 5
REMARK VINA RESULT:    -6.517      1.882      7.190
REMARK INTER + INTRA:         -10.276
REMARK INTER:                  -8.482
REMARK INTRA:                  -1.794
REMARK UNBOUND:                -1.473
REMARK  6 active torsions:
REMARK  status: ('A' for Active; 'I' for Inactive)
REMARK    1  A    between atoms: NBC_2  and  CBB_4 
REMARK    2  A    between atoms: CBB_4  and  CBA_5 
REMARK    3  A    between atoms: CBA_5  and  CAY_6 
REMARK    4  A    between atoms: CAY_6  and  NAH_7 
REMARK    5  A    between atoms: CAG_15  and  CAI_16 
REMARK    6  A    between atoms: CAJ_22  and  CAK_23 
ROOT
HETATM    1  CAI   D T1307      11.397  -3.131   0.609  1.00 44.72     0.064 A 
HETATM    2  CAT   D T1307      11.287  -4.141   1.694  1.00 42.93     0.282 A 
HETATM    3  OAZ   D T1307      12.151  -4.263   2.636  1.00 41.82    -0.265 OA
HETATM    4  NAU   D T1307      10.186  -4.958   1.599  1.00 41.25    -0.169 NA
HETATM    5  CAV   D T1307       9.510  -4.537   0.498  1.00 41.79     0.282 A 
HETATM    6  OAX   D T1307       8.399  -5.080   0.112  1.00 43.23    -0.265 OA
HETATM    7  CAJ   D T1307      10.204  -3.433  -0.192  1.00 41.06     0.064 A 
ENDROOT
BRANCH   1   8
HETATM    8  CAG   D T1307      12.453  -2.054   0.493  1.00 45.56     0.023 A 
HETATM    9  CAW   D T1307      13.239  -1.859  -0.638  1.00 46.69     0.076 A 
HETATM   10  NAH   D T1307      14.037  -0.774  -0.390  1.00 47.96    -0.326 N 
HETATM   11  CAE   D T1307      13.749  -0.264   0.827  1.00 47.40     0.060 A 
HETATM   12  CAF   D T1307      14.267   0.839   1.502  1.00 46.84     0.017 A 
HETATM   13  CAD   D T1307      12.735  -1.034   1.412  1.00 47.14     0.017 A 
HETATM   14  CAA   D T1307      13.823   1.175   2.777  1.00 46.26     0.002 A 
HETATM   15  CAB   D T1307      12.833   0.406   3.371  1.00 47.22     0.000 A 
HETATM   16  CAC   D T1307      12.287  -0.703   2.689  1.00 47.34     0.002 A 
BRANCH  10  17
HETATM   17  CAY   D T1307      15.035  -0.135  -1.266  1.00 47.35     0.108 C 
BRANCH  17  18
HETATM   18  CBA   D T1307      16.299  -0.956  -1.510  1.00 49.36     0.048 C 
BRANCH  18  19
HETATM   19  CBB   D T1307      17.347  -0.574  -0.446  1.00 49.76     0.099 C 
BRANCH  19  20
HETATM   20  NBC   D T1307      17.264  -1.401   0.773  1.00 50.82    -0.365 N 
HETATM   21  CBD   D T1307      16.915  -2.794   0.584  1.00 49.65     0.121 C 
HETATM   22  CBE   D T1307      17.489  -0.894   2.138  1.00 51.10     0.121 C 
ENDBRANCH  19  20
ENDBRANCH  18  19
ENDBRANCH  17  18
ENDBRANCH  10  17
ENDBRANCH   1   8
BRANCH   7  23
HETATM   23  CAK   D T1307       9.716  -2.669  -1.347  1.00 42.28     0.025 A 
HETATM   24  CAM   D T1307       9.601  -3.235  -2.618  1.00 43.03     0.019 A 
HETATM   25  CAP   D T1307       9.796  -4.553  -3.139  1.00 40.17     0.002 A 
HETATM   26  CAN   D T1307       9.201  -2.140  -3.399  1.00 41.89     0.081 A 
HETATM   27  CAQ   D T1307       9.563  -4.800  -4.489  1.00 40.87     0.000 A 
HETATM   28  CAR   D T1307       9.133  -3.728  -5.291  1.00 41.97     0.002 A 
HETATM   29  CAS   D T1307       8.957  -2.414  -4.762  1.00 41.64     0.019 A 
HETATM   30  NAO   D T1307       9.122  -1.018  -2.586  1.00 41.75    -0.244 NA
HETATM   31  CAL   D T1307       9.445  -1.310  -1.297  1.00 40.82     0.099 A 
ENDBRANCH   7  23
TORSDOF 6
ENDMDL
MODEL 6
REMARK VINA RESULT:    -6.349      2.105      7.091
REMARK INTER + INTRA:         -10.048
REMARK INTER:                  -7.738
REMARK INTRA:                  -2.310
REMARK UNBOUND:                -1.473
REMARK  6 active torsions:
REMARK  status: ('A' for Active; 'I' for Inactive)
REMARK    1  A    between atoms: NBC_2  and  CBB_4 
REMARK    2  A    between atoms: CBB_4  and  CBA_5 
REMARK    3  A    between atoms: CBA_5  and  CAY_6 
REMARK    4  A    between atoms: CAY_6  and  NAH_7 
REMARK    5  A    between atoms: CAG_15  and  CAI_16 
REMARK    6  A    between atoms: CAJ_22  and  CAK_23 
ROOT
HETATM    1  CAI   D T1307      11.413  -3.714  -0.362  1.00 44.72     0.064 A 
HETATM    2  CAT   D T1307      11.825  -5.122  -0.126  1.00 42.93     0.282 A 
HETATM    3  OAZ   D T1307      12.728  -5.462   0.722  1.00 41.82    -0.265 OA
HETATM    4  NAU   D T1307      11.172  -6.043  -0.911  1.00 41.25    -0.169 NA
HETATM    5  CAV   D T1307      10.301  -5.328  -1.668  1.00 41.79     0.282 A 
HETATM    6  OAX   D T1307       9.500  -5.884  -2.521  1.00 43.23    -0.265 OA
HETATM    7  CAJ   D T1307      10.405  -3.878  -1.417  1.00 41.06     0.064 A 
ENDROOT
BRANCH   1   8
HETATM    8  CAG   D T1307      11.899  -2.501   0.399  1.00 45.56     0.023 A 
HETATM    9  CAW   D T1307      11.486  -2.177   1.688  1.00 46.69     0.076 A 
HETATM   10  NAH   D T1307      12.171  -1.050   2.058  1.00 47.96    -0.326 N 
HETATM   11  CAE   D T1307      13.020  -0.688   1.073  1.00 47.40     0.060 A 
HETATM   12  CAF   D T1307      13.934   0.361   0.993  1.00 46.84     0.017 A 
HETATM   13  CAD   D T1307      12.895  -1.593   0.011  1.00 47.14     0.017 A 
HETATM   14  CAA   D T1307      14.708   0.555  -0.147  1.00 46.26     0.002 A 
HETATM   15  CAB   D T1307      14.575  -0.326  -1.210  1.00 47.22     0.000 A 
HETATM   16  CAC   D T1307      13.666  -1.403  -1.134  1.00 47.34     0.002 A 
BRANCH  10  17
HETATM   17  CAY   D T1307      12.119  -0.308   3.330  1.00 47.35     0.108 C 
BRANCH  17  18
HETATM   18  CBA   D T1307      12.332  -1.156   4.581  1.00 49.36     0.048 C 
BRANCH  18  19
HETATM   19  CBB   D T1307      13.847  -1.303   4.825  1.00 49.76     0.099 C 
BRANCH  19  20
HETATM   20  NBC   D T1307      14.447  -2.431   4.086  1.00 50.82    -0.365 N 
HETATM   21  CBD   D T1307      15.637  -2.134   3.316  1.00 49.65     0.121 C 
HETATM   22  CBE   D T1307      13.902  -3.799   4.073  1.00 51.10     0.121 C 
ENDBRANCH  19  20
ENDBRANCH  18  19
ENDBRANCH  17  18
ENDBRANCH  10  17
ENDBRANCH   1   8
BRANCH   7  23
HETATM   23  CAK   D T1307       9.552  -2.822  -1.977  1.00 42.28     0.025 A 
HETATM   24  CAM   D T1307       9.994  -1.967  -2.988  1.00 43.03     0.019 A 
HETATM   25  CAP   D T1307      11.192  -1.887  -3.767  1.00 40.17     0.002 A 
HETATM   26  CAN   D T1307       8.912  -1.086  -3.131  1.00 41.89     0.081 A 
HETATM   27  CAQ   D T1307      11.310  -0.904  -4.745  1.00 40.87     0.000 A 
HETATM   28  CAR   D T1307      10.230  -0.024  -4.932  1.00 41.97     0.002 A 
HETATM   29  CAS   D T1307       9.047  -0.105  -4.137  1.00 41.64     0.019 A 
HETATM   30  NAO   D T1307       7.928  -1.437  -2.217  1.00 41.75    -0.244 NA
HETATM   31  CAL   D T1307       8.298  -2.513  -1.472  1.00 40.82     0.099 A 
ENDBRANCH   7  23
TORSDOF 6
ENDMDL
MODEL 7
REMARK VINA RESULT:    -6.300      3.522      6.787
REMARK INTER + INTRA:          -9.983
REMARK INTER:                  -8.020
REMARK INTRA:                  -1.963
REMARK UNBOUND:                -1.473
REMARK  6 active torsions:
REMARK  status: ('A' for Active; 'I' for Inactive)
REMARK    1  A    between atoms: NBC_2  and  CBB_4 
REMARK    2  A    between atoms: CBB_4  and  CBA_5 
REMARK    3  A    between atoms: CBA_5  and  CAY_6 
REMARK    4  A    between atoms: CAY_6  and  NAH_7 
REMARK    5  A    between atoms: CAG_15  and  CAI_16 
REMARK    6  A    between atoms: CAJ_22  and  CAK_23 
ROOT
HETATM    1  CAI   D T1307      10.454  -4.247  -0.251  1.00 44.72     0.064 A 
HETATM    2  CAT   D T1307       9.735  -3.699  -1.431  1.00 42.93     0.282 A 
HETATM    3  OAZ   D T1307       8.652  -4.208  -1.896  1.00 41.82    -0.265 OA
HETATM    4  NAU   D T1307      10.336  -2.605  -2.005  1.00 41.25    -0.169 NA
HETATM    5  CAV   D T1307      11.438  -2.354  -1.252  1.00 41.79     0.282 A 
HETATM    6  OAX   D T1307      12.242  -1.369  -1.499  1.00 43.23    -0.265 OA
HETATM    7  CAJ   D T1307      11.606  -3.339  -0.166  1.00 41.06     0.064 A 
ENDROOT
BRANCH   1   8
HETATM    8  CAG   D T1307       9.996  -5.391   0.624  1.00 45.56     0.023 A 
HETATM    9  CAW   D T1307       9.858  -6.702   0.178  1.00 46.69     0.076 A 
HETATM   10  NAH   D T1307       9.474  -7.455   1.255  1.00 47.96    -0.326 N 
HETATM   11  CAE   D T1307       9.410  -6.677   2.356  1.00 47.40     0.060 A 
HETATM   12  CAF   D T1307       9.096  -6.987   3.677  1.00 46.84     0.017 A 
HETATM   13  CAD   D T1307       9.753  -5.365   2.005  1.00 47.14     0.017 A 
HETATM   14  CAA   D T1307       9.078  -6.004   4.662  1.00 46.26     0.002 A 
HETATM   15  CAB   D T1307       9.398  -4.699   4.317  1.00 47.22     0.000 A 
HETATM   16  CAC   D T1307       9.736  -4.375   2.986  1.00 47.34     0.002 A 
BRANCH  10  17
HETATM   17  CAY   D T1307       9.214  -8.903   1.330  1.00 47.35     0.108 C 
BRANCH  17  18
HETATM   18  CBA   D T1307       8.768  -9.548   0.019  1.00 49.36     0.048 C 
BRANCH  18  19
HETATM   19  CBB   D T1307       7.274  -9.241  -0.197  1.00 49.76     0.099 C 
BRANCH  19  20
HETATM   20  NBC   D T1307       6.938  -8.950  -1.604  1.00 50.82    -0.365 N 
HETATM   21  CBD   D T1307       8.052  -8.665  -2.485  1.00 49.65     0.121 C 
HETATM   22  CBE   D T1307       5.567  -8.912  -2.141  1.00 51.10     0.121 C 
ENDBRANCH  19  20
ENDBRANCH  18  19
ENDBRANCH  17  18
ENDBRANCH  10  17
ENDBRANCH   1   8
BRANCH   7  23
HETATM   23  CAK   D T1307      12.619  -3.317   0.896  1.00 42.28     0.025 A 
HETATM   24  CAM   D T1307      12.648  -2.325   1.877  1.00 43.03     0.019 A 
HETATM   25  CAP   D T1307      11.795  -1.221   2.197  1.00 40.17     0.002 A 
HETATM   26  CAN   D T1307      13.810  -2.645   2.595  1.00 41.89     0.081 A 
HETATM   27  CAQ   D T1307      12.098  -0.414   3.290  1.00 40.87     0.000 A 
HETATM   28  CAR   D T1307      13.241  -0.728   4.047  1.00 41.97     0.002 A 
HETATM   29  CAS   D T1307      14.092  -1.823   3.707  1.00 41.64     0.019 A 
HETATM   30  NAO   D T1307      14.401  -3.757   2.012  1.00 41.75    -0.244 NA
HETATM   31  CAL   D T1307      13.688  -4.199   0.941  1.00 40.82     0.099 A 
ENDBRANCH   7  23
TORSDOF 6
ENDMDL
MODEL 8
REMARK VINA RESULT:    -6.116      3.065      6.852
REMARK INTER + INTRA:          -9.735
REMARK INTER:                  -7.740
REMARK INTRA:                  -1.995
REMARK UNBOUND:                -1.473
REMARK  6 active torsions:
REMARK  status: ('A' for Active; 'I' for Inactive)
REMARK    1  A    between atoms: NBC_2  and  CBB_4 
REMARK    2  A    between atoms: CBB_4  and  CBA_5 
REMARK    3  A    between atoms: CBA_5  and  CAY_6 
REMARK    4  A    between atoms: CAY_6  and  NAH_7 
REMARK    5  A    between atoms: CAG_15  and  CAI_16 
REMARK    6  A    between atoms: CAJ_22  and  CAK_23 
ROOT
HETATM    1  CAI   D T1307      10.740  -2.575  -0.691  1.00 44.72     0.064 A 
HETATM    2  CAT   D T1307       9.703  -2.191  -1.683  1.00 42.93     0.282 A 
HETATM    3  OAZ   D T1307       9.707  -1.072  -2.313  1.00 41.82    -0.265 OA
HETATM    4  NAU   D T1307       8.714  -3.129  -1.862  1.00 41.25    -0.169 NA
HETATM    5  CAV   D T1307       9.039  -4.165  -1.046  1.00 41.79     0.282 A 
HETATM    6  OAX   D T1307       8.325  -5.243  -0.971  1.00 43.23    -0.265 OA
HETATM    7  CAJ   D T1307      10.259  -3.895  -0.262  1.00 41.06     0.064 A 
ENDROOT
BRANCH   1   8
HETATM    8  CAG   D T1307      11.982  -1.784  -0.344  1.00 45.56     0.023 A 
HETATM    9  CAW   D T1307      12.974  -1.456  -1.262  1.00 46.69     0.076 A 
HETATM   10  NAH   D T1307      13.905  -0.703  -0.596  1.00 47.96    -0.326 N 
HETATM   11  CAE   D T1307      13.510  -0.515   0.681  1.00 47.40     0.060 A 
HETATM   12  CAF   D T1307      14.100   0.195   1.725  1.00 46.84     0.017 A 
HETATM   13  CAD   D T1307      12.286  -1.166   0.878  1.00 47.14     0.017 A 
HETATM   14  CAA   D T1307      13.512   0.241   2.986  1.00 46.26     0.002 A 
HETATM   15  CAB   D T1307      12.309  -0.418   3.193  1.00 47.22     0.000 A 
HETATM   16  CAC   D T1307      11.692  -1.126   2.138  1.00 47.34     0.002 A 
BRANCH  10  17
HETATM   17  CAY   D T1307      15.140  -0.086  -1.110  1.00 47.35     0.108 C 
BRANCH  17  18
HETATM   18  CBA   D T1307      16.261  -1.067  -1.445  1.00 49.36     0.048 C 
BRANCH  18  19
HETATM   19  CBB   D T1307      16.856  -1.602  -0.129  1.00 49.76     0.099 C 
BRANCH  19  20
HETATM   20  NBC   D T1307      17.872  -0.704   0.456  1.00 50.82    -0.365 N 
HETATM   21  CBD   D T1307      17.979  -0.709   1.901  1.00 49.65     0.121 C 
HETATM   22  CBE   D T1307      18.742   0.189  -0.328  1.00 51.10     0.121 C 
ENDBRANCH  19  20
ENDBRANCH  18  19
ENDBRANCH  17  18
ENDBRANCH  10  17
ENDBRANCH   1   8
BRANCH   7  23
HETATM   23  CAK   D T1307      10.955  -4.824   0.636  1.00 42.28     0.025 A 
HETATM   24  CAM   D T1307      10.625  -4.941   1.987  1.00 43.03     0.019 A 
HETATM   25  CAP   D T1307       9.608  -4.365   2.813  1.00 40.17     0.002 A 
HETATM   26  CAN   D T1307      11.587  -5.847   2.455  1.00 41.89     0.081 A 
HETATM   27  CAQ   D T1307       9.532  -4.721   4.157  1.00 40.87     0.000 A 
HETATM   28  CAR   D T1307      10.465  -5.651   4.648  1.00 41.97     0.002 A 
HETATM   29  CAS   D T1307      11.484  -6.206   3.816  1.00 41.64     0.019 A 
HETATM   30  NAO   D T1307      12.422  -6.195   1.401  1.00 41.75    -0.244 NA
HETATM   31  CAL   D T1307      12.061  -5.567   0.250  1.00 40.82     0.099 A 
ENDBRANCH   7  23
TORSDOF 6
ENDMDL
MODEL 9
REMARK VINA RESULT:    -6.047      3.505      8.802
REMARK INTER + INTRA:          -9.640
REMARK INTER:                  -7.625
REMARK INTRA:                  -2.015
REMARK UNBOUND:                -1.473
REMARK  6 active torsions:
REMARK  status: ('A' for Active; 'I' for Inactive)
REMARK    1  A    between atoms: NBC_2  and  CBB_4 
REMARK    2  A    between atoms: CBB_4  and  CBA_5 
REMARK    3  A    between atoms: CBA_5  and  CAY_6 
REMARK    4  A    between atoms: CAY_6  and  NAH_7 
REMARK    5  A    between atoms: CAG_15  and  CAI_16 
REMARK    6  A    between atoms: CAJ_22  and  CAK_23 
ROOT
HETATM    1  CAI   D T1307       9.817  -3.875  -0.226  1.00 44.72     0.064 A 
HETATM    2  CAT   D T1307       9.594  -2.673  -1.071  1.00 42.93     0.282 A 
HETATM    3  OAZ   D T1307       9.507  -1.483  -0.597  1.00 41.82    -0.265 OA
HETATM    4  NAU   D T1307       9.467  -2.939  -2.413  1.00 41.25    -0.169 NA
HETATM    5  CAV   D T1307       9.617  -4.282  -2.538  1.00 41.79     0.282 A 
HETATM    6  OAX   D T1307       9.572  -4.886  -3.684  1.00 43.23    -0.265 OA
HETATM    7  CAJ   D T1307       9.807  -4.945  -1.233  1.00 41.06     0.064 A 
ENDROOT
BRANCH   1   8
HETATM    8  CAG   D T1307      10.067  -3.887   1.265  1.00 45.56     0.023 A 
HETATM    9  CAW   D T1307       9.370  -4.691   2.162  1.00 46.69     0.076 A 
HETATM   10  NAH   D T1307       9.902  -4.463   3.403  1.00 47.96    -0.326 N 
HETATM   11  CAE   D T1307      10.926  -3.587   3.307  1.00 47.40     0.060 A 
HETATM   12  CAF   D T1307      11.782  -3.073   4.278  1.00 46.84     0.017 A 
HETATM   13  CAD   D T1307      11.077  -3.212   1.966  1.00 47.14     0.017 A 
HETATM   14  CAA   D T1307      12.774  -2.154   3.947  1.00 46.26     0.002 A 
HETATM   15  CAB   D T1307      12.917  -1.763   2.624  1.00 47.22     0.000 A 
HETATM   16  CAC   D T1307      12.067  -2.292   1.628  1.00 47.34     0.002 A 
BRANCH  10  17
HETATM   17  CAY   D T1307       9.541  -5.074   4.694  1.00 47.35     0.108 C 
BRANCH  17  18
HETATM   18  CBA   D T1307      10.203  -6.419   4.980  1.00 49.36     0.048 C 
BRANCH  18  19
HETATM   19  CBB   D T1307       9.126  -7.520   4.920  1.00 49.76     0.099 C 
BRANCH  19  20
HETATM   20  NBC   D T1307       9.248  -8.387   3.731  1.00 50.82    -0.365 N 
HETATM   21  CBD   D T1307      10.533  -8.386   3.063  1.00 49.65     0.121 C 
HETATM   22  CBE   D T1307       8.154  -9.213   3.190  1.00 51.10     0.121 C 
ENDBRANCH  19  20
ENDBRANCH  18  19
ENDBRANCH  17  18
ENDBRANCH  10  17
ENDBRANCH   1   8
BRANCH   7  23
HETATM   23  CAK   D T1307      10.102  -6.363  -0.999  1.00 42.28     0.025 A 
HETATM   24  CAM   D T1307       9.094  -7.319  -0.860  1.00 43.03     0.019 A 
HETATM   25  CAP   D T1307       7.668  -7.281  -0.968  1.00 40.17     0.002 A 
HETATM   26  CAN   D T1307       9.821  -8.481  -0.561  1.00 41.89     0.081 A 
HETATM   27  CAQ   D T1307       6.934  -8.451  -0.795  1.00 40.87     0.000 A 
HETATM   28  CAR   D T1307       7.638  -9.638  -0.523  1.00 41.97     0.002 A 
HETATM   29  CAS   D T1307       9.060  -9.659  -0.402  1.00 41.64     0.019 A 
HETATM   30  NAO   D T1307      11.172  -8.163  -0.519  1.00 41.75    -0.244 NA
HETATM   31  CAL   D T1307      11.383  -6.845  -0.779  1.00 40.82     0.099 A 
ENDBRANCH   7  23
TORSDOF 6
ENDMDL
