MODEL 1
REMARK VINA RESULT:    -7.447      0.000      0.000
REMARK INTER + INTRA:         -12.047
REMARK INTER:                 -10.059
REMARK INTRA:                  -1.988
REMARK UNBOUND:                -1.988
REMARK  6 active torsions:
REMARK  status: ('A' for Active; 'I' for Inactive)
REMARK    1  A    between atoms: NBC_2  and  CBB_4 
REMARK    2  A    between atoms: CBB_4  and  CBA_5 
REMARK    3  A    between atoms: CBA_5  and  CAY_6 
REMARK    4  A    between atoms: CAY_6  and  NAH_7 
REMARK    5  A    between atoms: CAG_15  and  CAI_16 
REMARK    6  A    between atoms: CAJ_22  and  CAK_23 
ROOT
HETATM    1  CAI   D T1307       9.449   1.916  -4.024  1.00 44.72     0.064 A 
HETATM    2  CAT   D T1307      10.154   0.639  -4.313  1.00 42.93     0.282 A 
HETATM    3  OAZ   D T1307      11.195   0.246  -3.670  1.00 41.82    -0.265 OA
HETATM    4  NAU   D T1307       9.611  -0.087  -5.344  1.00 41.25    -0.169 NA
HETATM    5  CAV   D T1307       8.538   0.626  -5.772  1.00 41.79     0.282 A 
HETATM    6  OAX   D T1307       7.772   0.223  -6.736  1.00 43.23    -0.265 OA
HETATM    7  CAJ   D T1307       8.383   1.893  -5.033  1.00 41.06     0.064 A 
ENDROOT
BRANCH   1   8
HETATM    8  CAG   D T1307       9.770   2.882  -2.906  1.00 45.56     0.023 A 
HETATM    9  CAW   D T1307      10.021   2.493  -1.595  1.00 46.69     0.076 A 
HETATM   10  NAH   D T1307      10.318   3.628  -0.888  1.00 47.96    -0.326 N 
HETATM   11  CAE   D T1307      10.304   4.697  -1.714  1.00 47.40     0.060 A 
HETATM   12  CAF   D T1307      10.564   6.043  -1.471  1.00 46.84     0.017 A 
HETATM   13  CAD   D T1307       9.981   4.265  -3.007  1.00 47.14     0.017 A 
HETATM   14  CAA   D T1307      10.473   6.988  -2.490  1.00 46.26     0.002 A 
HETATM   15  CAB   D T1307      10.135   6.570  -3.767  1.00 47.22     0.000 A 
HETATM   16  CAC   D T1307       9.887   5.205  -4.031  1.00 47.34     0.002 A 
BRANCH  10  17
HETATM   17  CAY   D T1307      10.679   3.770   0.533  1.00 47.35     0.108 C 
BRANCH  17  18
HETATM   18  CBA   D T1307      11.765   2.815   1.022  1.00 49.36     0.048 C 
BRANCH  18  19
HETATM   19  CBB   D T1307      11.118   1.765   1.946  1.00 49.76     0.099 C 
BRANCH  19  20
HETATM   20  NBC   D T1307      10.625   0.578   1.221  1.00 50.82    -0.365 N 
HETATM   21  CBD   D T1307       9.208   0.299   1.331  1.00 49.65     0.121 C 
HETATM   22  CBE   D T1307      11.478  -0.326   0.429  1.00 51.10     0.121 C 
ENDBRANCH  19  20
ENDBRANCH  18  19
ENDBRANCH  17  18
ENDBRANCH  10  17
ENDBRANCH   1   8
BRANCH   7  23
HETATM   23  CAK   D T1307       7.282   2.857  -5.157  1.00 42.28     0.025 A 
HETATM   24  CAM   D T1307       7.224   3.790  -6.193  1.00 43.03     0.019 A 
HETATM   25  CAP   D T1307       8.025   4.037  -7.354  1.00 40.17     0.002 A 
HETATM   26  CAN   D T1307       6.087   4.540  -5.860  1.00 41.89     0.081 A 
HETATM   27  CAQ   D T1307       7.670   5.057  -8.230  1.00 40.87     0.000 A 
HETATM   28  CAR   D T1307       6.517   5.809  -7.936  1.00 41.97     0.002 A 
HETATM   29  CAS   D T1307       5.735   5.562  -6.769  1.00 41.64     0.019 A 
HETATM   30  NAO   D T1307       5.560   4.046  -4.675  1.00 41.75    -0.244 NA
HETATM   31  CAL   D T1307       6.286   2.998  -4.202  1.00 40.82     0.099 A 
ENDBRANCH   7  23
TORSDOF 6
ENDMDL
MODEL 2
REMARK VINA RESULT:    -7.170      2.655      7.280
REMARK INTER + INTRA:         -11.673
REMARK INTER:                 -10.416
REMARK INTRA:                  -1.257
REMARK UNBOUND:                -1.988
REMARK  6 active torsions:
REMARK  status: ('A' for Active; 'I' for Inactive)
REMARK    1  A    between atoms: NBC_2  and  CBB_4 
REMARK    2  A    between atoms: CBB_4  and  CBA_5 
REMARK    3  A    between atoms: CBA_5  and  CAY_6 
REMARK    4  A    between atoms: CAY_6  and  NAH_7 
REMARK    5  A    between atoms: CAG_15  and  CAI_16 
REMARK    6  A    between atoms: CAJ_22  and  CAK_23 
ROOT
HETATM    1  CAI   D T1307       9.315   3.639  -0.644  1.00 44.72     0.064 A 
HETATM    2  CAT   D T1307       9.628   2.847   0.574  1.00 42.93     0.282 A 
HETATM    3  OAZ   D T1307       9.331   1.603   0.704  1.00 41.82    -0.265 OA
HETATM    4  NAU   D T1307      10.249   3.560   1.570  1.00 41.25    -0.169 NA
HETATM    5  CAV   D T1307      10.402   4.818   1.082  1.00 41.79     0.282 A 
HETATM    6  OAX   D T1307      10.972   5.764   1.758  1.00 43.23    -0.265 OA
HETATM    7  CAJ   D T1307       9.824   4.964  -0.267  1.00 41.06     0.064 A 
ENDROOT
BRANCH   1   8
HETATM    8  CAG   D T1307       8.705   3.111  -1.923  1.00 45.56     0.023 A 
HETATM    9  CAW   D T1307       7.500   3.563  -2.451  1.00 46.69     0.076 A 
HETATM   10  NAH   D T1307       7.300   2.893  -3.629  1.00 47.96    -0.326 N 
HETATM   11  CAE   D T1307       8.349   2.077  -3.873  1.00 47.40     0.060 A 
HETATM   12  CAF   D T1307       8.614   1.224  -4.942  1.00 46.84     0.017 A 
HETATM   13  CAD   D T1307       9.272   2.200  -2.826  1.00 47.14     0.017 A 
HETATM   14  CAA   D T1307       9.773   0.454  -4.976  1.00 46.26     0.002 A 
HETATM   15  CAB   D T1307      10.680   0.556  -3.934  1.00 47.22     0.000 A 
HETATM   16  CAC   D T1307      10.433   1.430  -2.853  1.00 47.34     0.002 A 
BRANCH  10  17
HETATM   17  CAY   D T1307       6.191   3.014  -4.590  1.00 47.35     0.108 C 
BRANCH  17  18
HETATM   18  CBA   D T1307       6.426   4.005  -5.726  1.00 49.36     0.048 C 
BRANCH  18  19
HETATM   19  CBB   D T1307       6.303   3.255  -7.067  1.00 49.76     0.099 C 
BRANCH  19  20
HETATM   20  NBC   D T1307       6.249   4.157  -8.234  1.00 50.82    -0.365 N 
HETATM   21  CBD   D T1307       7.357   5.076  -8.387  1.00 49.65     0.121 C 
HETATM   22  CBE   D T1307       5.148   4.186  -9.213  1.00 51.10     0.121 C 
ENDBRANCH  19  20
ENDBRANCH  18  19
ENDBRANCH  17  18
ENDBRANCH  10  17
ENDBRANCH   1   8
BRANCH   7  23
HETATM   23  CAK   D T1307       9.897   6.146  -1.135  1.00 42.28     0.025 A 
HETATM   24  CAM   D T1307       9.373   7.382  -0.753  1.00 43.03     0.019 A 
HETATM   25  CAP   D T1307       8.768   7.877   0.446  1.00 40.17     0.002 A 
HETATM   26  CAN   D T1307       9.578   8.163  -1.900  1.00 41.89     0.081 A 
HETATM   27  CAQ   D T1307       8.368   9.208   0.516  1.00 40.87     0.000 A 
HETATM   28  CAR   D T1307       8.587  10.023  -0.610  1.00 41.97     0.002 A 
HETATM   29  CAS   D T1307       9.179   9.514  -1.805  1.00 41.64     0.019 A 
HETATM   30  NAO   D T1307      10.171   7.374  -2.876  1.00 41.75    -0.244 NA
HETATM   31  CAL   D T1307      10.379   6.104  -2.435  1.00 40.82     0.099 A 
ENDBRANCH   7  23
TORSDOF 6
ENDMDL
MODEL 3
REMARK VINA RESULT:    -7.160      3.265      6.229
REMARK INTER + INTRA:         -11.660
REMARK INTER:                  -9.956
REMARK INTRA:                  -1.703
REMARK UNBOUND:                -1.988
REMARK  6 active torsions:
REMARK  status: ('A' for Active; 'I' for Inactive)
REMARK    1  A    between atoms: NBC_2  and  CBB_4 
REMARK    2  A    between atoms: CBB_4  and  CBA_5 
REMARK    3  A    between atoms: CBA_5  and  CAY_6 
REMARK    4  A    between atoms: CAY_6  and  NAH_7 
REMARK    5  A    between atoms: CAG_15  and  CAI_16 
REMARK    6  A    between atoms: CAJ_22  and  CAK_23 
ROOT
HETATM    1  CAI   D T1307      11.288   2.378  -0.596  1.00 44.72     0.064 A 
HETATM    2  CAT   D T1307      12.264   3.466  -0.324  1.00 42.93     0.282 A 
HETATM    3  OAZ   D T1307      13.308   3.312   0.409  1.00 41.82    -0.265 OA
HETATM    4  NAU   D T1307      11.949   4.669  -0.908  1.00 41.25    -0.169 NA
HETATM    5  CAV   D T1307      10.799   4.454  -1.598  1.00 41.79     0.282 A 
HETATM    6  OAX   D T1307      10.217   5.381  -2.291  1.00 43.23    -0.265 OA
HETATM    7  CAJ   D T1307      10.304   3.074  -1.434  1.00 41.06     0.064 A 
ENDROOT
BRANCH   1   8
HETATM    8  CAG   D T1307      11.407   0.938  -0.152  1.00 45.56     0.023 A 
HETATM    9  CAW   D T1307      11.907  -0.082  -0.955  1.00 46.69     0.076 A 
HETATM   10  NAH   D T1307      11.906  -1.225  -0.201  1.00 47.96    -0.326 N 
HETATM   11  CAE   D T1307      11.469  -0.949   1.047  1.00 47.40     0.060 A 
HETATM   12  CAF   D T1307      11.318  -1.766   2.164  1.00 46.84     0.017 A 
HETATM   13  CAD   D T1307      11.162   0.416   1.127  1.00 47.14     0.017 A 
HETATM   14  CAA   D T1307      10.828  -1.259   3.364  1.00 46.26     0.002 A 
HETATM   15  CAB   D T1307      10.502   0.086   3.444  1.00 47.22     0.000 A 
HETATM   16  CAC   D T1307      10.668   0.929   2.324  1.00 47.34     0.002 A 
BRANCH  10  17
HETATM   17  CAY   D T1307      12.355  -2.579  -0.568  1.00 47.35     0.108 C 
BRANCH  17  18
HETATM   18  CBA   D T1307      11.974  -3.027  -1.976  1.00 49.36     0.048 C 
BRANCH  18  19
HETATM   19  CBB   D T1307      11.614  -4.526  -1.936  1.00 49.76     0.099 C 
BRANCH  19  20
HETATM   20  NBC   D T1307      12.687  -5.394  -2.458  1.00 50.82    -0.365 N 
HETATM   21  CBD   D T1307      13.115  -6.476  -1.595  1.00 49.65     0.121 C 
HETATM   22  CBE   D T1307      13.344  -5.212  -3.764  1.00 51.10     0.121 C 
ENDBRANCH  19  20
ENDBRANCH  18  19
ENDBRANCH  17  18
ENDBRANCH  10  17
ENDBRANCH   1   8
BRANCH   7  23
HETATM   23  CAK   D T1307       9.153   2.464  -2.113  1.00 42.28     0.025 A 
HETATM   24  CAM   D T1307       9.293   1.697  -3.270  1.00 43.03     0.019 A 
HETATM   25  CAP   D T1307      10.418   1.233  -4.024  1.00 40.17     0.002 A 
HETATM   26  CAN   D T1307       7.962   1.414  -3.607  1.00 41.89     0.081 A 
HETATM   27  CAQ   D T1307      10.213   0.438  -5.147  1.00 40.87     0.000 A 
HETATM   28  CAR   D T1307       8.888   0.115  -5.493  1.00 41.97     0.002 A 
HETATM   29  CAS   D T1307       7.774   0.595  -4.742  1.00 41.64     0.019 A 
HETATM   30  NAO   D T1307       7.129   2.024  -2.679  1.00 41.75    -0.244 NA
HETATM   31  CAL   D T1307       7.839   2.696  -1.734  1.00 40.82     0.099 A 
ENDBRANCH   7  23
TORSDOF 6
ENDMDL
MODEL 4
REMARK VINA RESULT:    -6.987      2.877      5.815
REMARK INTER + INTRA:         -11.426
REMARK INTER:                 -10.553
REMARK INTRA:                  -0.873
REMARK UNBOUND:                -1.988
REMARK  6 active torsions:
REMARK  status: ('A' for Active; 'I' for Inactive)
REMARK    1  A    between atoms: NBC_2  and  CBB_4 
REMARK    2  A    between atoms: CBB_4  and  CBA_5 
REMARK    3  A    between atoms: CBA_5  and  CAY_6 
REMARK    4  A    between atoms: CAY_6  and  NAH_7 
REMARK    5  A    between atoms: CAG_15  and  CAI_16 
REMARK    6  A    between atoms: CAJ_22  and  CAK_23 
ROOT
HETATM    1  CAI   D T1307       9.576   2.747  -0.132  1.00 44.72     0.064 A 
HETATM    2  CAT   D T1307       9.201   4.091   0.381  1.00 42.93     0.282 A 
HETATM    3  OAZ   D T1307       9.127   4.375   1.632  1.00 41.82    -0.265 OA
HETATM    4  NAU   D T1307       8.917   5.012  -0.598  1.00 41.25    -0.169 NA
HETATM    5  CAV   D T1307       9.102   4.365  -1.778  1.00 41.79     0.282 A 
HETATM    6  OAX   D T1307       8.937   4.944  -2.925  1.00 43.23    -0.265 OA
HETATM    7  CAJ   D T1307       9.479   2.952  -1.582  1.00 41.06     0.064 A 
ENDROOT
BRANCH   1   8
HETATM    8  CAG   D T1307      10.010   1.561   0.700  1.00 45.56     0.023 A 
HETATM    9  CAW   D T1307       9.433   0.299   0.611  1.00 46.69     0.076 A 
HETATM   10  NAH   D T1307      10.115  -0.518   1.473  1.00 47.96    -0.326 N 
HETATM   11  CAE   D T1307      11.116   0.174   2.060  1.00 47.40     0.060 A 
HETATM   12  CAF   D T1307      12.085  -0.224   2.978  1.00 46.84     0.017 A 
HETATM   13  CAD   D T1307      11.098   1.490   1.583  1.00 47.14     0.017 A 
HETATM   14  CAA   D T1307      13.026   0.679   3.466  1.00 46.26     0.002 A 
HETATM   15  CAB   D T1307      13.001   1.988   3.013  1.00 47.22     0.000 A 
HETATM   16  CAC   D T1307      12.035   2.400   2.068  1.00 47.34     0.002 A 
BRANCH  10  17
HETATM   17  CAY   D T1307       9.920  -1.952   1.744  1.00 47.35     0.108 C 
BRANCH  17  18
HETATM   18  CBA   D T1307      11.184  -2.803   1.668  1.00 49.36     0.048 C 
BRANCH  18  19
HETATM   19  CBB   D T1307      11.527  -3.044   0.185  1.00 49.76     0.099 C 
BRANCH  19  20
HETATM   20  NBC   D T1307      11.918  -4.438  -0.101  1.00 50.82    -0.365 N 
HETATM   21  CBD   D T1307      11.907  -4.836  -1.494  1.00 49.65     0.121 C 
HETATM   22  CBE   D T1307      12.288  -5.426   0.927  1.00 51.10     0.121 C 
ENDBRANCH  19  20
ENDBRANCH  18  19
ENDBRANCH  17  18
ENDBRANCH  10  17
ENDBRANCH   1   8
BRANCH   7  23
HETATM   23  CAK   D T1307       9.856   1.988  -2.624  1.00 42.28     0.025 A 
HETATM   24  CAM   D T1307       8.980   1.615  -3.644  1.00 43.03     0.019 A 
HETATM   25  CAP   D T1307       7.666   2.034  -4.028  1.00 40.17     0.002 A 
HETATM   26  CAN   D T1307       9.712   0.632  -4.325  1.00 41.89     0.081 A 
HETATM   27  CAQ   D T1307       7.062   1.468  -5.146  1.00 40.87     0.000 A 
HETATM   28  CAR   D T1307       7.785   0.499  -5.866  1.00 41.97     0.002 A 
HETATM   29  CAS   D T1307       9.088   0.079  -5.466  1.00 41.64     0.019 A 
HETATM   30  NAO   D T1307      10.931   0.462  -3.685  1.00 41.75    -0.244 NA
HETATM   31  CAL   D T1307      11.053   1.288  -2.613  1.00 40.82     0.099 A 
ENDBRANCH   7  23
TORSDOF 6
ENDMDL
MODEL 5
REMARK VINA RESULT:    -6.981      1.719      4.199
REMARK INTER + INTRA:         -11.418
REMARK INTER:                  -9.829
REMARK INTRA:                  -1.589
REMARK UNBOUND:                -1.988
REMARK  6 active torsions:
REMARK  status: ('A' for Active; 'I' for Inactive)
REMARK    1  A    between atoms: NBC_2  and  CBB_4 
REMARK    2  A    between atoms: CBB_4  and  CBA_5 
REMARK    3  A    between atoms: CBA_5  and  CAY_6 
REMARK    4  A    between atoms: CAY_6  and  NAH_7 
REMARK    5  A    between atoms: CAG_15  and  CAI_16 
REMARK    6  A    between atoms: CAJ_22  and  CAK_23 
ROOT
HETATM    1  CAI   D T1307       9.475   1.977  -3.956  1.00 44.72     0.064 A 
HETATM    2  CAT   D T1307      10.183   0.695  -4.207  1.00 42.93     0.282 A 
HETATM    3  OAZ   D T1307      11.228   0.325  -3.555  1.00 41.82    -0.265 OA
HETATM    4  NAU   D T1307       9.641  -0.065  -5.215  1.00 41.25    -0.169 NA
HETATM    5  CAV   D T1307       8.564   0.631  -5.662  1.00 41.79     0.282 A 
HETATM    6  OAX   D T1307       7.798   0.197  -6.612  1.00 43.23    -0.265 OA
HETATM    7  CAJ   D T1307       8.406   1.920  -4.961  1.00 41.06     0.064 A 
ENDROOT
BRANCH   1   8
HETATM    8  CAG   D T1307       9.794   2.978  -2.868  1.00 45.56     0.023 A 
HETATM    9  CAW   D T1307      10.042   4.326  -3.104  1.00 46.69     0.076 A 
HETATM   10  NAH   D T1307      10.242   4.918  -1.885  1.00 47.96    -0.326 N 
HETATM   11  CAE   D T1307      10.086   4.004  -0.903  1.00 47.40     0.060 A 
HETATM   12  CAF   D T1307      10.164   4.129   0.482  1.00 46.84     0.017 A 
HETATM   13  CAD   D T1307       9.781   2.765  -1.482  1.00 47.14     0.017 A 
HETATM   14  CAA   D T1307       9.979   3.028   1.314  1.00 46.26     0.002 A 
HETATM   15  CAB   D T1307       9.696   1.795   0.747  1.00 47.22     0.000 A 
HETATM   16  CAC   D T1307       9.597   1.659  -0.655  1.00 47.34     0.002 A 
BRANCH  10  17
HETATM   17  CAY   D T1307      10.518   6.331  -1.574  1.00 47.35     0.108 C 
BRANCH  17  18
HETATM   18  CBA   D T1307       9.283   7.192  -1.329  1.00 49.36     0.048 C 
BRANCH  18  19
HETATM   19  CBB   D T1307       9.447   8.519  -2.097  1.00 49.76     0.099 C 
BRANCH  19  20
HETATM   20  NBC   D T1307       8.950   9.689  -1.347  1.00 50.82    -0.365 N 
HETATM   21  CBD   D T1307       8.569   9.455   0.031  1.00 49.65     0.121 C 
HETATM   22  CBE   D T1307       8.804  11.040  -1.915  1.00 51.10     0.121 C 
ENDBRANCH  19  20
ENDBRANCH  18  19
ENDBRANCH  17  18
ENDBRANCH  10  17
ENDBRANCH   1   8
BRANCH   7  23
HETATM   23  CAK   D T1307       7.302   2.876  -5.112  1.00 42.28     0.025 A 
HETATM   24  CAM   D T1307       7.258   3.803  -6.154  1.00 43.03     0.019 A 
HETATM   25  CAP   D T1307       8.080   4.050  -7.299  1.00 40.17     0.002 A 
HETATM   26  CAN   D T1307       6.110   4.547  -5.847  1.00 41.89     0.081 A 
HETATM   27  CAQ   D T1307       7.736   5.063  -8.188  1.00 40.87     0.000 A 
HETATM   28  CAR   D T1307       6.573   5.808  -7.921  1.00 41.97     0.002 A 
HETATM   29  CAS   D T1307       5.769   5.562  -6.768  1.00 41.64     0.019 A 
HETATM   30  NAO   D T1307       5.563   4.056  -4.670  1.00 41.75    -0.244 NA
HETATM   31  CAL   D T1307       6.286   3.015  -4.178  1.00 40.82     0.099 A 
ENDBRANCH   7  23
TORSDOF 6
ENDMDL
MODEL 6
REMARK VINA RESULT:    -6.582      5.024      8.191
REMARK INTER + INTRA:         -10.879
REMARK INTER:                  -9.131
REMARK INTRA:                  -1.747
REMARK UNBOUND:                -1.988
REMARK  6 active torsions:
REMARK  status: ('A' for Active; 'I' for Inactive)
REMARK    1  A    between atoms: NBC_2  and  CBB_4 
REMARK    2  A    between atoms: CBB_4  and  CBA_5 
REMARK    3  A    between atoms: CBA_5  and  CAY_6 
REMARK    4  A    between atoms: CAY_6  and  NAH_7 
REMARK    5  A    between atoms: CAG_15  and  CAI_16 
REMARK    6  A    between atoms: CAJ_22  and  CAK_23 
ROOT
HETATM    1  CAI   D T1307      11.714   9.406  -0.838  1.00 44.72     0.064 A 
HETATM    2  CAT   D T1307      13.146   9.408  -1.237  1.00 42.93     0.282 A 
HETATM    3  OAZ   D T1307      13.845   8.337  -1.364  1.00 41.82    -0.265 OA
HETATM    4  NAU   D T1307      13.675  10.658  -1.442  1.00 41.25    -0.169 NA
HETATM    5  CAV   D T1307      12.658  11.530  -1.224  1.00 41.79     0.282 A 
HETATM    6  OAX   D T1307      12.798  12.812  -1.346  1.00 43.23    -0.265 OA
HETATM    7  CAJ   D T1307      11.417  10.844  -0.815  1.00 41.06     0.064 A 
ENDROOT
BRANCH   1   8
HETATM    8  CAG   D T1307      10.847   8.187  -0.618  1.00 45.56     0.023 A 
HETATM    9  CAW   D T1307      10.267   7.453  -1.647  1.00 46.69     0.076 A 
HETATM   10  NAH   D T1307       9.603   6.403  -1.069  1.00 47.96    -0.326 N 
HETATM   11  CAE   D T1307       9.783   6.432   0.270  1.00 47.40     0.060 A 
HETATM   12  CAF   D T1307       9.333   5.574   1.271  1.00 46.84     0.017 A 
HETATM   13  CAD   D T1307      10.583   7.535   0.596  1.00 47.14     0.017 A 
HETATM   14  CAA   D T1307       9.634   5.812   2.609  1.00 46.26     0.002 A 
HETATM   15  CAB   D T1307      10.408   6.913   2.940  1.00 47.22     0.000 A 
HETATM   16  CAC   D T1307      10.886   7.780   1.933  1.00 47.34     0.002 A 
BRANCH  10  17
HETATM   17  CAY   D T1307       8.842   5.319  -1.712  1.00 47.35     0.108 C 
BRANCH  17  18
HETATM   18  CBA   D T1307       9.691   4.210  -2.327  1.00 49.36     0.048 C 
BRANCH  18  19
HETATM   19  CBB   D T1307       8.780   3.310  -3.186  1.00 49.76     0.099 C 
BRANCH  19  20
HETATM   20  NBC   D T1307       8.624   3.795  -4.571  1.00 50.82    -0.365 N 
HETATM   21  CBD   D T1307       9.832   4.238  -5.237  1.00 49.65     0.121 C 
HETATM   22  CBE   D T1307       7.338   3.872  -5.285  1.00 51.10     0.121 C 
ENDBRANCH  19  20
ENDBRANCH  18  19
ENDBRANCH  17  18
ENDBRANCH  10  17
ENDBRANCH   1   8
BRANCH   7  23
HETATM   23  CAK   D T1307      10.101  11.457  -0.599  1.00 42.28     0.025 A 
HETATM   24  CAM   D T1307       9.078  11.377  -1.545  1.00 43.03     0.019 A 
HETATM   25  CAP   D T1307       8.939  10.706  -2.802  1.00 40.17     0.002 A 
HETATM   26  CAN   D T1307       8.072  12.166  -0.969  1.00 41.89     0.081 A 
HETATM   27  CAQ   D T1307       7.743  10.807  -3.506  1.00 40.87     0.000 A 
HETATM   28  CAR   D T1307       6.706  11.570  -2.939  1.00 41.97     0.002 A 
HETATM   29  CAS   D T1307       6.861  12.245  -1.692  1.00 41.64     0.019 A 
HETATM   30  NAO   D T1307       8.540  12.675   0.235  1.00 41.75    -0.244 NA
HETATM   31  CAL   D T1307       9.807  12.259   0.495  1.00 40.82     0.099 A 
ENDBRANCH   7  23
TORSDOF 6
ENDMDL
MODEL 7
REMARK VINA RESULT:    -6.554      3.796      6.886
REMARK INTER + INTRA:         -10.841
REMARK INTER:                  -9.353
REMARK INTRA:                  -1.488
REMARK UNBOUND:                -1.988
REMARK  6 active torsions:
REMARK  status: ('A' for Active; 'I' for Inactive)
REMARK    1  A    between atoms: NBC_2  and  CBB_4 
REMARK    2  A    between atoms: CBB_4  and  CBA_5 
REMARK    3  A    between atoms: CBA_5  and  CAY_6 
REMARK    4  A    between atoms: CAY_6  and  NAH_7 
REMARK    5  A    between atoms: CAG_15  and  CAI_16 
REMARK    6  A    between atoms: CAJ_22  and  CAK_23 
ROOT
HETATM    1  CAI   D T1307      11.700   5.478  -0.478  1.00 44.72     0.064 A 
HETATM    2  CAT   D T1307      13.077   5.036  -0.134  1.00 42.93     0.282 A 
HETATM    3  OAZ   D T1307      13.972   5.822   0.349  1.00 41.82    -0.265 OA
HETATM    4  NAU   D T1307      13.328   3.711  -0.394  1.00 41.25    -0.169 NA
HETATM    5  CAV   D T1307      12.168   3.205  -0.886  1.00 41.79     0.282 A 
HETATM    6  OAX   D T1307      12.037   1.963  -1.227  1.00 43.23    -0.265 OA
HETATM    7  CAJ   D T1307      11.118   4.236  -1.002  1.00 41.06     0.064 A 
ENDROOT
BRANCH   1   8
HETATM    8  CAG   D T1307      11.115   6.852  -0.237  1.00 45.56     0.023 A 
HETATM    9  CAW   D T1307      11.014   7.834  -1.216  1.00 46.69     0.076 A 
HETATM   10  NAH   D T1307      10.394   8.912  -0.643  1.00 47.96    -0.326 N 
HETATM   11  CAE   D T1307      10.069   8.624   0.636  1.00 47.40     0.060 A 
HETATM   12  CAF   D T1307       9.412   9.380   1.604  1.00 46.84     0.017 A 
HETATM   13  CAD   D T1307      10.489   7.320   0.928  1.00 47.14     0.017 A 
HETATM   14  CAA   D T1307       9.195   8.876   2.884  1.00 46.26     0.002 A 
HETATM   15  CAB   D T1307       9.626   7.594   3.185  1.00 47.22     0.000 A 
HETATM   16  CAC   D T1307      10.277   6.811   2.207  1.00 47.34     0.002 A 
BRANCH  10  17
HETATM   17  CAY   D T1307      10.028  10.204  -1.250  1.00 47.35     0.108 C 
BRANCH  17  18
HETATM   18  CBA   D T1307       8.530  10.428  -1.435  1.00 49.36     0.048 C 
BRANCH  18  19
HETATM   19  CBB   D T1307       8.264  10.787  -2.911  1.00 49.76     0.099 C 
BRANCH  19  20
HETATM   20  NBC   D T1307       7.018  11.553  -3.106  1.00 50.82    -0.365 N 
HETATM   21  CBD   D T1307       6.641  12.452  -2.036  1.00 49.65     0.121 C 
HETATM   22  CBE   D T1307       6.149  11.439  -4.291  1.00 51.10     0.121 C 
ENDBRANCH  19  20
ENDBRANCH  18  19
ENDBRANCH  17  18
ENDBRANCH  10  17
ENDBRANCH   1   8
BRANCH   7  23
HETATM   23  CAK   D T1307       9.719   4.029  -1.395  1.00 42.28     0.025 A 
HETATM   24  CAM   D T1307       9.330   3.921  -2.731  1.00 43.03     0.019 A 
HETATM   25  CAP   D T1307      10.041   3.886  -3.973  1.00 40.17     0.002 A 
HETATM   26  CAN   D T1307       7.934   3.834  -2.632  1.00 41.89     0.081 A 
HETATM   27  CAQ   D T1307       9.338   3.736  -5.164  1.00 40.87     0.000 A 
HETATM   28  CAR   D T1307       7.937   3.617  -5.093  1.00 41.97     0.002 A 
HETATM   29  CAS   D T1307       7.238   3.668  -3.850  1.00 41.64     0.019 A 
HETATM   30  NAO   D T1307       7.577   3.913  -1.293  1.00 41.75    -0.244 NA
HETATM   31  CAL   D T1307       8.667   4.044  -0.491  1.00 40.82     0.099 A 
ENDBRANCH   7  23
TORSDOF 6
ENDMDL
MODEL 8
REMARK VINA RESULT:    -6.511      3.324      5.696
REMARK INTER + INTRA:         -10.783
REMARK INTER:                  -8.982
REMARK INTRA:                  -1.801
REMARK UNBOUND:                -1.988
REMARK  6 active torsions:
REMARK  status: ('A' for Active; 'I' for Inactive)
REMARK    1  A    between atoms: NBC_2  and  CBB_4 
REMARK    2  A    between atoms: CBB_4  and  CBA_5 
REMARK    3  A    between atoms: CBA_5  and  CAY_6 
REMARK    4  A    between atoms: CAY_6  and  NAH_7 
REMARK    5  A    between atoms: CAG_15  and  CAI_16 
REMARK    6  A    between atoms: CAJ_22  and  CAK_23 
ROOT
HETATM    1  CAI   D T1307       9.623   4.801  -0.911  1.00 44.72     0.064 A 
HETATM    2  CAT   D T1307       9.315   4.136   0.383  1.00 42.93     0.282 A 
HETATM    3  OAZ   D T1307       9.437   4.718   1.523  1.00 41.82    -0.265 OA
HETATM    4  NAU   D T1307       8.903   2.832   0.266  1.00 41.25    -0.169 NA
HETATM    5  CAV   D T1307       8.890   2.567  -1.066  1.00 41.79     0.282 A 
HETATM    6  OAX   D T1307       8.530   1.419  -1.546  1.00 43.23    -0.265 OA
HETATM    7  CAJ   D T1307       9.351   3.718  -1.865  1.00 41.06     0.064 A 
ENDROOT
BRANCH   1   8
HETATM    8  CAG   D T1307      10.025   6.246  -1.101  1.00 45.56     0.023 A 
HETATM    9  CAW   D T1307       9.135   7.258  -1.445  1.00 46.69     0.076 A 
HETATM   10  NAH   D T1307       9.848   8.427  -1.478  1.00 47.96    -0.326 N 
HETATM   11  CAE   D T1307      11.131   8.189  -1.128  1.00 47.40     0.060 A 
HETATM   12  CAF   D T1307      12.216   9.051  -0.992  1.00 46.84     0.017 A 
HETATM   13  CAD   D T1307      11.281   6.822  -0.860  1.00 47.14     0.017 A 
HETATM   14  CAA   D T1307      13.472   8.573  -0.628  1.00 46.26     0.002 A 
HETATM   15  CAB   D T1307      13.632   7.219  -0.381  1.00 47.22     0.000 A 
HETATM   16  CAC   D T1307      12.535   6.337  -0.498  1.00 47.34     0.002 A 
BRANCH  10  17
HETATM   17  CAY   D T1307       9.379   9.793  -1.767  1.00 47.35     0.108 C 
BRANCH  17  18
HETATM   18  CBA   D T1307       8.476  10.406  -0.700  1.00 49.36     0.048 C 
BRANCH  18  19
HETATM   19  CBB   D T1307       9.349  11.209   0.283  1.00 49.76     0.099 C 
BRANCH  19  20
HETATM   20  NBC   D T1307       9.745  10.434   1.475  1.00 50.82    -0.365 N 
HETATM   21  CBD   D T1307      11.017  10.780   2.074  1.00 49.65     0.121 C 
HETATM   22  CBE   D T1307       8.948   9.340   2.058  1.00 51.10     0.121 C 
ENDBRANCH  19  20
ENDBRANCH  18  19
ENDBRANCH  17  18
ENDBRANCH  10  17
ENDBRANCH   1   8
BRANCH   7  23
HETATM   23  CAK   D T1307       9.369   3.825  -3.329  1.00 42.28     0.025 A 
HETATM   24  CAM   D T1307       8.212   3.693  -4.099  1.00 43.03     0.019 A 
HETATM   25  CAP   D T1307       6.825   3.529  -3.786  1.00 40.17     0.002 A 
HETATM   26  CAN   D T1307       8.711   3.766  -5.407  1.00 41.89     0.081 A 
HETATM   27  CAQ   D T1307       5.892   3.456  -4.816  1.00 40.87     0.000 A 
HETATM   28  CAR   D T1307       6.361   3.555  -6.139  1.00 41.97     0.002 A 
HETATM   29  CAS   D T1307       7.748   3.705  -6.438  1.00 41.64     0.019 A 
HETATM   30  NAO   D T1307      10.090   3.911  -5.350  1.00 41.75    -0.244 NA
HETATM   31  CAL   D T1307      10.538   3.944  -4.067  1.00 40.82     0.099 A 
ENDBRANCH   7  23
TORSDOF 6
ENDMDL
MODEL 9
REMARK VINA RESULT:    -6.448      2.805      4.539
REMARK INTER + INTRA:         -10.699
REMARK INTER:                  -9.213
REMARK INTRA:                  -1.485
REMARK UNBOUND:                -1.988
REMARK  6 active torsions:
REMARK  status: ('A' for Active; 'I' for Inactive)
REMARK    1  A    between atoms: NBC_2  and  CBB_4 
REMARK    2  A    between atoms: CBB_4  and  CBA_5 
REMARK    3  A    between atoms: CBA_5  and  CAY_6 
REMARK    4  A    between atoms: CAY_6  and  NAH_7 
REMARK    5  A    between atoms: CAG_15  and  CAI_16 
REMARK    6  A    between atoms: CAJ_22  and  CAK_23 
ROOT
HETATM    1  CAI   D T1307      10.116   5.217  -1.841  1.00 44.72     0.064 A 
HETATM    2  CAT   D T1307      10.814   6.411  -2.385  1.00 42.93     0.282 A 
HETATM    3  OAZ   D T1307      11.608   7.144  -1.689  1.00 41.82    -0.265 OA
HETATM    4  NAU   D T1307      10.526   6.685  -3.699  1.00 41.25    -0.169 NA
HETATM    5  CAV   D T1307       9.669   5.711  -4.100  1.00 41.79     0.282 A 
HETATM    6  OAX   D T1307       9.198   5.649  -5.305  1.00 43.23    -0.265 OA
HETATM    7  CAJ   D T1307       9.337   4.780  -3.006  1.00 41.06     0.064 A 
ENDROOT
BRANCH   1   8
HETATM    8  CAG   D T1307      10.292   4.631  -0.458  1.00 45.56     0.023 A 
HETATM    9  CAW   D T1307      10.748   3.339  -0.216  1.00 46.69     0.076 A 
HETATM   10  NAH   D T1307      10.822   3.186   1.143  1.00 47.96    -0.326 N 
HETATM   11  CAE   D T1307      10.473   4.340   1.752  1.00 47.40     0.060 A 
HETATM   12  CAF   D T1307      10.418   4.681   3.101  1.00 46.84     0.017 A 
HETATM   13  CAD   D T1307      10.149   5.288   0.773  1.00 47.14     0.017 A 
HETATM   14  CAA   D T1307      10.007   5.949   3.505  1.00 46.26     0.002 A 
HETATM   15  CAB   D T1307       9.667   6.886   2.542  1.00 47.22     0.000 A 
HETATM   16  CAC   D T1307       9.736   6.558   1.170  1.00 47.34     0.002 A 
BRANCH  10  17
HETATM   17  CAY   D T1307      11.266   2.018   1.923  1.00 47.35     0.108 C 
BRANCH  17  18
HETATM   18  CBA   D T1307      10.551   0.711   1.592  1.00 49.36     0.048 C 
BRANCH  18  19
HETATM   19  CBB   D T1307      10.815  -0.296   2.729  1.00 49.76     0.099 C 
BRANCH  19  20
HETATM   20  NBC   D T1307      11.116  -1.656   2.241  1.00 50.82    -0.365 N 
HETATM   21  CBD   D T1307      12.511  -2.047   2.246  1.00 49.65     0.121 C 
HETATM   22  CBE   D T1307      10.104  -2.604   1.743  1.00 51.10     0.121 C 
ENDBRANCH  19  20
ENDBRANCH  18  19
ENDBRANCH  17  18
ENDBRANCH  10  17
ENDBRANCH   1   8
BRANCH   7  23
HETATM   23  CAK   D T1307       8.529   3.557  -3.103  1.00 42.28     0.025 A 
HETATM   24  CAM   D T1307       8.960   2.436  -3.814  1.00 43.03     0.019 A 
HETATM   25  CAP   D T1307      10.169   2.100  -4.502  1.00 40.17     0.002 A 
HETATM   26  CAN   D T1307       7.856   1.576  -3.717  1.00 41.89     0.081 A 
HETATM   27  CAQ   D T1307      10.295   0.851  -5.101  1.00 40.87     0.000 A 
HETATM   28  CAR   D T1307       9.214  -0.044  -4.996  1.00 41.97     0.002 A 
HETATM   29  CAS   D T1307       8.008   0.308  -4.319  1.00 41.64     0.019 A 
HETATM   30  NAO   D T1307       6.855   2.216  -2.999  1.00 41.75    -0.244 NA
HETATM   31  CAL   D T1307       7.238   3.460  -2.605  1.00 40.82     0.099 A 
ENDBRANCH   7  23
TORSDOF 6
ENDMDL
