MODEL 1
REMARK VINA RESULT:    -8.469      0.000      0.000
REMARK INTER + INTRA:         -13.081
REMARK INTER:                 -11.440
REMARK INTRA:                  -1.641
REMARK UNBOUND:                -1.641
REMARK  6 active torsions:
REMARK  status: ('A' for Active; 'I' for Inactive)
REMARK    1  A    between atoms: NBC_2  and  CBB_4 
REMARK    2  A    between atoms: CBB_4  and  CBA_5 
REMARK    3  A    between atoms: CBA_5  and  CAY_6 
REMARK    4  A    between atoms: CAY_6  and  NAH_7 
REMARK    5  A    between atoms: CAG_15  and  CAI_16 
REMARK    6  A    between atoms: CAJ_22  and  CAK_23 
ROOT
HETATM    1  CAI   D T1307      -3.596   0.219 -11.365  1.00 44.72     0.064 A 
HETATM    2  CAT   D T1307      -4.636   0.250 -10.304  1.00 42.93     0.282 A 
HETATM    3  OAZ   D T1307      -5.042  -0.799  -9.681  1.00 41.82    -0.265 OA
HETATM    4  NAU   D T1307      -5.150   1.498 -10.050  1.00 41.25    -0.169 NA
HETATM    5  CAV   D T1307      -4.490   2.345 -10.881  1.00 41.79     0.282 A 
HETATM    6  OAX   D T1307      -4.714   3.621 -10.899  1.00 43.23    -0.265 OA
HETATM    7  CAJ   D T1307      -3.533   1.634 -11.750  1.00 41.06     0.064 A 
ENDROOT
BRANCH   1   8
HETATM    8  CAG   D T1307      -2.802  -0.990 -11.804  1.00 45.56     0.023 A 
HETATM    9  CAW   D T1307      -1.419  -1.091 -11.695  1.00 46.69     0.076 A 
HETATM   10  NAH   D T1307      -1.068  -2.336 -12.146  1.00 47.96    -0.326 N 
HETATM   11  CAE   D T1307      -2.178  -3.025 -12.489  1.00 47.40     0.060 A 
HETATM   12  CAF   D T1307      -2.335  -4.323 -12.969  1.00 46.84     0.017 A 
HETATM   13  CAD   D T1307      -3.300  -2.216 -12.268  1.00 47.14     0.017 A 
HETATM   14  CAA   D T1307      -3.596  -4.828 -13.275  1.00 46.26     0.002 A 
HETATM   15  CAB   D T1307      -4.709  -4.027 -13.078  1.00 47.22     0.000 A 
HETATM   16  CAC   D T1307      -4.565  -2.717 -12.574  1.00 47.34     0.002 A 
BRANCH  10  17
HETATM   17  CAY   D T1307       0.267  -2.954 -12.222  1.00 47.35     0.108 C 
BRANCH  17  18
HETATM   18  CBA   D T1307       0.624  -3.867 -11.052  1.00 49.36     0.048 C 
BRANCH  18  19
HETATM   19  CBB   D T1307       0.278  -3.140  -9.738  1.00 49.76     0.099 C 
BRANCH  19  20
HETATM   20  NBC   D T1307       1.360  -2.256  -9.262  1.00 50.82    -0.365 N 
HETATM   21  CBD   D T1307       0.963  -0.933  -8.825  1.00 49.65     0.121 C 
HETATM   22  CBE   D T1307       2.785  -2.629  -9.229  1.00 51.10     0.121 C 
ENDBRANCH  19  20
ENDBRANCH  18  19
ENDBRANCH  17  18
ENDBRANCH  10  17
ENDBRANCH   1   8
BRANCH   7  23
HETATM   23  CAK   D T1307      -2.580   2.238 -12.692  1.00 42.28     0.025 A 
HETATM   24  CAM   D T1307      -1.373   2.798 -12.271  1.00 43.03     0.019 A 
HETATM   25  CAP   D T1307      -0.705   2.883 -11.008  1.00 40.17     0.002 A 
HETATM   26  CAN   D T1307      -0.855   3.323 -13.463  1.00 41.89     0.081 A 
HETATM   27  CAQ   D T1307       0.540   3.500 -10.930  1.00 40.87     0.000 A 
HETATM   28  CAR   D T1307       1.098   4.013 -12.116  1.00 41.97     0.002 A 
HETATM   29  CAS   D T1307       0.416   3.933 -13.366  1.00 41.64     0.019 A 
HETATM   30  NAO   D T1307      -1.758   3.078 -14.488  1.00 41.75    -0.244 NA
HETATM   31  CAL   D T1307      -2.853   2.408 -14.041  1.00 40.82     0.099 A 
ENDBRANCH   7  23
TORSDOF 6
ENDMDL
MODEL 2
REMARK VINA RESULT:    -8.307      2.606      6.205
REMARK INTER + INTRA:         -12.862
REMARK INTER:                 -10.931
REMARK INTRA:                  -1.931
REMARK UNBOUND:                -1.641
REMARK  6 active torsions:
REMARK  status: ('A' for Active; 'I' for Inactive)
REMARK    1  A    between atoms: NBC_2  and  CBB_4 
REMARK    2  A    between atoms: CBB_4  and  CBA_5 
REMARK    3  A    between atoms: CBA_5  and  CAY_6 
REMARK    4  A    between atoms: CAY_6  and  NAH_7 
REMARK    5  A    between atoms: CAG_15  and  CAI_16 
REMARK    6  A    between atoms: CAJ_22  and  CAK_23 
ROOT
HETATM    1  CAI   D T1307      -3.207   0.401 -12.185  1.00 44.72     0.064 A 
HETATM    2  CAT   D T1307      -3.309   1.677 -12.940  1.00 42.93     0.282 A 
HETATM    3  OAZ   D T1307      -4.302   1.971 -13.700  1.00 41.82    -0.265 OA
HETATM    4  NAU   D T1307      -2.238   2.521 -12.773  1.00 41.25    -0.169 NA
HETATM    5  CAV   D T1307      -1.400   1.889 -11.911  1.00 41.79     0.282 A 
HETATM    6  OAX   D T1307      -0.283   2.410 -11.514  1.00 43.23    -0.265 OA
HETATM    7  CAJ   D T1307      -1.907   0.559 -11.521  1.00 41.06     0.064 A 
ENDROOT
BRANCH   1   8
HETATM    8  CAG   D T1307      -4.261  -0.682 -12.113  1.00 45.56     0.023 A 
HETATM    9  CAW   D T1307      -5.581  -0.454 -11.738  1.00 46.69     0.076 A 
HETATM   10  NAH   D T1307      -6.239  -1.651 -11.837  1.00 47.96    -0.326 N 
HETATM   11  CAE   D T1307      -5.395  -2.600 -12.296  1.00 47.40     0.060 A 
HETATM   12  CAF   D T1307      -5.602  -3.947 -12.582  1.00 46.84     0.017 A 
HETATM   13  CAD   D T1307      -4.135  -2.022 -12.504  1.00 47.14     0.017 A 
HETATM   14  CAA   D T1307      -4.563  -4.752 -13.041  1.00 46.26     0.002 A 
HETATM   15  CAB   D T1307      -3.310  -4.192 -13.230  1.00 47.22     0.000 A 
HETATM   16  CAC   D T1307      -3.091  -2.824 -12.961  1.00 47.34     0.002 A 
BRANCH  10  17
HETATM   17  CAY   D T1307      -7.657  -1.956 -11.576  1.00 47.35     0.108 C 
BRANCH  17  18
HETATM   18  CBA   D T1307      -8.592  -1.745 -12.764  1.00 49.36     0.048 C 
BRANCH  18  19
HETATM   19  CBB   D T1307      -9.570  -0.604 -12.424  1.00 49.76     0.099 C 
BRANCH  19  20
HETATM   20  NBC   D T1307      -8.972   0.737 -12.572  1.00 50.82    -0.365 N 
HETATM   21  CBD   D T1307      -9.203   1.668 -11.487  1.00 49.65     0.121 C 
HETATM   22  CBE   D T1307      -8.191   1.174 -13.743  1.00 51.10     0.121 C 
ENDBRANCH  19  20
ENDBRANCH  18  19
ENDBRANCH  17  18
ENDBRANCH  10  17
ENDBRANCH   1   8
BRANCH   7  23
HETATM   23  CAK   D T1307      -1.319  -0.354 -10.532  1.00 42.28     0.025 A 
HETATM   24  CAM   D T1307      -0.584  -1.481 -10.905  1.00 43.03     0.019 A 
HETATM   25  CAP   D T1307      -0.140  -2.005 -12.159  1.00 40.17     0.002 A 
HETATM   26  CAN   D T1307      -0.314  -2.084  -9.668  1.00 41.89     0.081 A 
HETATM   27  CAQ   D T1307       0.622  -3.169 -12.185  1.00 40.87     0.000 A 
HETATM   28  CAR   D T1307       0.933  -3.783 -10.957  1.00 41.97     0.002 A 
HETATM   29  CAS   D T1307       0.472  -3.257  -9.714  1.00 41.64     0.019 A 
HETATM   30  NAO   D T1307      -0.899  -1.325  -8.664  1.00 41.75    -0.244 NA
HETATM   31  CAL   D T1307      -1.543  -0.239  -9.168  1.00 40.82     0.099 A 
ENDBRANCH   7  23
TORSDOF 6
ENDMDL
MODEL 3
REMARK VINA RESULT:    -8.247      2.256      4.774
REMARK INTER + INTRA:         -12.781
REMARK INTER:                 -11.103
REMARK INTRA:                  -1.678
REMARK UNBOUND:                -1.641
REMARK  6 active torsions:
REMARK  status: ('A' for Active; 'I' for Inactive)
REMARK    1  A    between atoms: NBC_2  and  CBB_4 
REMARK    2  A    between atoms: CBB_4  and  CBA_5 
REMARK    3  A    between atoms: CBA_5  and  CAY_6 
REMARK    4  A    between atoms: CAY_6  and  NAH_7 
REMARK    5  A    between atoms: CAG_15  and  CAI_16 
REMARK    6  A    between atoms: CAJ_22  and  CAK_23 
ROOT
HETATM    1  CAI   D T1307      -1.148   0.122  -9.566  1.00 44.72     0.064 A 
HETATM    2  CAT   D T1307      -0.741   0.221  -8.140  1.00 42.93     0.282 A 
HETATM    3  OAZ   D T1307      -0.648  -0.795  -7.359  1.00 41.82    -0.265 OA
HETATM    4  NAU   D T1307      -0.488   1.502  -7.711  1.00 41.25    -0.169 NA
HETATM    5  CAV   D T1307      -0.682   2.299  -8.793  1.00 41.79     0.282 A 
HETATM    6  OAX   D T1307      -0.513   3.583  -8.754  1.00 43.23    -0.265 OA
HETATM    7  CAJ   D T1307      -1.121   1.531  -9.975  1.00 41.06     0.064 A 
ENDROOT
BRANCH   1   8
HETATM    8  CAG   D T1307      -1.414  -1.154 -10.333  1.00 45.56     0.023 A 
HETATM    9  CAW   D T1307      -2.541  -1.364 -11.121  1.00 46.69     0.076 A 
HETATM   10  NAH   D T1307      -2.410  -2.604 -11.689  1.00 47.96    -0.326 N 
HETATM   11  CAE   D T1307      -1.232  -3.152 -11.321  1.00 47.40     0.060 A 
HETATM   12  CAF   D T1307      -0.646  -4.369 -11.658  1.00 46.84     0.017 A 
HETATM   13  CAD   D T1307      -0.560  -2.257 -10.478  1.00 47.14     0.017 A 
HETATM   14  CAA   D T1307       0.592  -4.738 -11.139  1.00 46.26     0.002 A 
HETATM   15  CAB   D T1307       1.254  -3.867 -10.289  1.00 47.22     0.000 A 
HETATM   16  CAC   D T1307       0.680  -2.622  -9.955  1.00 47.34     0.002 A 
BRANCH  10  17
HETATM   17  CAY   D T1307      -3.314  -3.298 -12.622  1.00 47.35     0.108 C 
BRANCH  17  18
HETATM   18  CBA   D T1307      -4.377  -4.172 -11.962  1.00 49.36     0.048 C 
BRANCH  18  19
HETATM   19  CBB   D T1307      -5.730  -3.905 -12.649  1.00 49.76     0.099 C 
BRANCH  19  20
HETATM   20  NBC   D T1307      -6.550  -2.899 -11.946  1.00 50.82    -0.365 N 
HETATM   21  CBD   D T1307      -7.812  -2.551 -12.566  1.00 49.65     0.121 C 
HETATM   22  CBE   D T1307      -6.155  -2.235 -10.692  1.00 51.10     0.121 C 
ENDBRANCH  19  20
ENDBRANCH  18  19
ENDBRANCH  17  18
ENDBRANCH  10  17
ENDBRANCH   1   8
BRANCH   7  23
HETATM   23  CAK   D T1307      -1.322   2.047 -11.336  1.00 42.28     0.025 A 
HETATM   24  CAM   D T1307      -2.592   2.173 -11.902  1.00 43.03     0.019 A 
HETATM   25  CAP   D T1307      -3.921   1.971 -11.414  1.00 40.17     0.002 A 
HETATM   26  CAN   D T1307      -2.297   2.598 -13.205  1.00 41.89     0.081 A 
HETATM   27  CAQ   D T1307      -5.006   2.220 -12.249  1.00 40.87     0.000 A 
HETATM   28  CAR   D T1307      -4.742   2.675 -13.555  1.00 41.97     0.002 A 
HETATM   29  CAS   D T1307      -3.411   2.860 -14.034  1.00 41.64     0.019 A 
HETATM   30  NAO   D T1307      -0.919   2.679 -13.347  1.00 41.75    -0.244 NA
HETATM   31  CAL   D T1307      -0.276   2.334 -12.200  1.00 40.82     0.099 A 
ENDBRANCH   7  23
TORSDOF 6
ENDMDL
MODEL 4
REMARK VINA RESULT:    -8.110      2.130      4.347
REMARK INTER + INTRA:         -12.596
REMARK INTER:                 -11.058
REMARK INTRA:                  -1.539
REMARK UNBOUND:                -1.641
REMARK  6 active torsions:
REMARK  status: ('A' for Active; 'I' for Inactive)
REMARK    1  A    between atoms: NBC_2  and  CBB_4 
REMARK    2  A    between atoms: CBB_4  and  CBA_5 
REMARK    3  A    between atoms: CBA_5  and  CAY_6 
REMARK    4  A    between atoms: CAY_6  and  NAH_7 
REMARK    5  A    between atoms: CAG_15  and  CAI_16 
REMARK    6  A    between atoms: CAJ_22  and  CAK_23 
ROOT
HETATM    1  CAI   D T1307      -1.823   0.036  -9.425  1.00 44.72     0.064 A 
HETATM    2  CAT   D T1307      -1.348   0.387  -8.061  1.00 42.93     0.282 A 
HETATM    3  OAZ   D T1307      -0.797  -0.458  -7.266  1.00 41.82    -0.265 OA
HETATM    4  NAU   D T1307      -1.563   1.697  -7.706  1.00 41.25    -0.169 NA
HETATM    5  CAV   D T1307      -2.152   2.279  -8.783  1.00 41.79     0.282 A 
HETATM    6  OAX   D T1307      -2.485   3.531  -8.805  1.00 43.23    -0.265 OA
HETATM    7  CAJ   D T1307      -2.377   1.317  -9.879  1.00 41.06     0.064 A 
ENDROOT
BRANCH   1   8
HETATM    8  CAG   D T1307      -1.654  -1.300 -10.114  1.00 45.56     0.023 A 
HETATM    9  CAW   D T1307      -2.615  -1.871 -10.942  1.00 46.69     0.076 A 
HETATM   10  NAH   D T1307      -2.092  -3.046 -11.415  1.00 47.96    -0.326 N 
HETATM   11  CAE   D T1307      -0.834  -3.205 -10.949  1.00 47.40     0.060 A 
HETATM   12  CAF   D T1307       0.101  -4.213 -11.169  1.00 46.84     0.017 A 
HETATM   13  CAD   D T1307      -0.510  -2.110 -10.137  1.00 47.14     0.017 A 
HETATM   14  CAA   D T1307       1.353  -4.176 -10.563  1.00 46.26     0.002 A 
HETATM   15  CAB   D T1307       1.674  -3.106  -9.743  1.00 47.22     0.000 A 
HETATM   16  CAC   D T1307       0.742  -2.068  -9.526  1.00 47.34     0.002 A 
BRANCH  10  17
HETATM   17  CAY   D T1307      -2.689  -4.022 -12.343  1.00 47.35     0.108 C 
BRANCH  17  18
HETATM   18  CBA   D T1307      -4.058  -4.554 -11.928  1.00 49.36     0.048 C 
BRANCH  18  19
HETATM   19  CBB   D T1307      -5.130  -3.911 -12.830  1.00 49.76     0.099 C 
BRANCH  19  20
HETATM   20  NBC   D T1307      -5.652  -2.639 -12.294  1.00 50.82    -0.365 N 
HETATM   21  CBD   D T1307      -5.395  -1.453 -13.086  1.00 49.65     0.121 C 
HETATM   22  CBE   D T1307      -6.383  -2.511 -11.021  1.00 51.10     0.121 C 
ENDBRANCH  19  20
ENDBRANCH  18  19
ENDBRANCH  17  18
ENDBRANCH  10  17
ENDBRANCH   1   8
BRANCH   7  23
HETATM   23  CAK   D T1307      -2.894   1.616 -11.221  1.00 42.28     0.025 A 
HETATM   24  CAM   D T1307      -2.066   2.058 -12.255  1.00 43.03     0.019 A 
HETATM   25  CAP   D T1307      -0.654   2.254 -12.381  1.00 40.17     0.002 A 
HETATM   26  CAN   D T1307      -2.981   2.301 -13.288  1.00 41.89     0.081 A 
HETATM   27  CAQ   D T1307      -0.127   2.691 -13.592  1.00 40.87     0.000 A 
HETATM   28  CAR   D T1307      -1.018   2.916 -14.657  1.00 41.97     0.002 A 
HETATM   29  CAS   D T1307      -2.426   2.731 -14.514  1.00 41.64     0.019 A 
HETATM   30  NAO   D T1307      -4.260   2.022 -12.827  1.00 41.75    -0.244 NA
HETATM   31  CAL   D T1307      -4.245   1.598 -11.535  1.00 40.82     0.099 A 
ENDBRANCH   7  23
TORSDOF 6
ENDMDL
MODEL 5
REMARK VINA RESULT:    -8.071      2.199      3.899
REMARK INTER + INTRA:         -12.543
REMARK INTER:                 -10.405
REMARK INTRA:                  -2.138
REMARK UNBOUND:                -1.641
REMARK  6 active torsions:
REMARK  status: ('A' for Active; 'I' for Inactive)
REMARK    1  A    between atoms: NBC_2  and  CBB_4 
REMARK    2  A    between atoms: CBB_4  and  CBA_5 
REMARK    3  A    between atoms: CBA_5  and  CAY_6 
REMARK    4  A    between atoms: CAY_6  and  NAH_7 
REMARK    5  A    between atoms: CAG_15  and  CAI_16 
REMARK    6  A    between atoms: CAJ_22  and  CAK_23 
ROOT
HETATM    1  CAI   D T1307      -4.250  -1.562 -11.863  1.00 44.72     0.064 A 
HETATM    2  CAT   D T1307      -5.315  -2.597 -11.920  1.00 42.93     0.282 A 
HETATM    3  OAZ   D T1307      -5.185  -3.773 -11.418  1.00 41.82    -0.265 OA
HETATM    4  NAU   D T1307      -6.456  -2.202 -12.576  1.00 41.25    -0.169 NA
HETATM    5  CAV   D T1307      -6.234  -0.918 -12.961  1.00 41.79     0.282 A 
HETATM    6  OAX   D T1307      -7.118  -0.218 -13.599  1.00 43.23    -0.265 OA
HETATM    7  CAJ   D T1307      -4.885  -0.453 -12.587  1.00 41.06     0.064 A 
ENDROOT
BRANCH   1   8
HETATM    8  CAG   D T1307      -2.925  -1.681 -11.146  1.00 45.56     0.023 A 
HETATM    9  CAW   D T1307      -2.577  -0.928 -10.029  1.00 46.69     0.076 A 
HETATM   10  NAH   D T1307      -1.333  -1.344  -9.635  1.00 47.96    -0.326 N 
HETATM   11  CAE   D T1307      -0.914  -2.349 -10.433  1.00 47.40     0.060 A 
HETATM   12  CAF   D T1307       0.256  -3.104 -10.413  1.00 46.84     0.017 A 
HETATM   13  CAD   D T1307      -1.902  -2.609 -11.391  1.00 47.14     0.017 A 
HETATM   14  CAA   D T1307       0.486  -4.098 -11.360  1.00 46.26     0.002 A 
HETATM   15  CAB   D T1307      -0.478  -4.347 -12.323  1.00 47.22     0.000 A 
HETATM   16  CAC   D T1307      -1.677  -3.602 -12.343  1.00 47.34     0.002 A 
BRANCH  10  17
HETATM   17  CAY   D T1307      -0.519  -0.886  -8.495  1.00 47.35     0.108 C 
BRANCH  17  18
HETATM   18  CBA   D T1307      -0.667   0.593  -8.148  1.00 49.36     0.048 C 
BRANCH  18  19
HETATM   19  CBB   D T1307       0.363   1.395  -8.965  1.00 49.76     0.099 C 
BRANCH  19  20
HETATM   20  NBC   D T1307      -0.256   2.255  -9.994  1.00 50.82    -0.365 N 
HETATM   21  CBD   D T1307      -0.557   3.615  -9.598  1.00 49.65     0.121 C 
HETATM   22  CBE   D T1307      -0.593   1.809 -11.357  1.00 51.10     0.121 C 
ENDBRANCH  19  20
ENDBRANCH  18  19
ENDBRANCH  17  18
ENDBRANCH  10  17
ENDBRANCH   1   8
BRANCH   7  23
HETATM   23  CAK   D T1307      -4.343   0.903 -12.750  1.00 42.28     0.025 A 
HETATM   24  CAM   D T1307      -4.394   1.852 -11.727  1.00 43.03     0.019 A 
HETATM   25  CAP   D T1307      -4.829   1.819 -10.365  1.00 40.17     0.002 A 
HETATM   26  CAN   D T1307      -3.865   2.991 -12.350  1.00 41.89     0.081 A 
HETATM   27  CAQ   D T1307      -4.716   2.963  -9.580  1.00 40.87     0.000 A 
HETATM   28  CAR   D T1307      -4.163   4.116 -10.169  1.00 41.97     0.002 A 
HETATM   29  CAS   D T1307      -3.745   4.138 -11.534  1.00 41.64     0.019 A 
HETATM   30  NAO   D T1307      -3.559   2.679 -13.666  1.00 41.75    -0.244 NA
HETATM   31  CAL   D T1307      -3.852   1.383 -13.955  1.00 40.82     0.099 A 
ENDBRANCH   7  23
TORSDOF 6
ENDMDL
MODEL 6
REMARK VINA RESULT:    -7.973      2.011      5.855
REMARK INTER + INTRA:         -12.411
REMARK INTER:                  -9.992
REMARK INTRA:                  -2.418
REMARK UNBOUND:                -1.641
REMARK  6 active torsions:
REMARK  status: ('A' for Active; 'I' for Inactive)
REMARK    1  A    between atoms: NBC_2  and  CBB_4 
REMARK    2  A    between atoms: CBB_4  and  CBA_5 
REMARK    3  A    between atoms: CBA_5  and  CAY_6 
REMARK    4  A    between atoms: CAY_6  and  NAH_7 
REMARK    5  A    between atoms: CAG_15  and  CAI_16 
REMARK    6  A    between atoms: CAJ_22  and  CAK_23 
ROOT
HETATM    1  CAI   D T1307      -4.485  -1.909 -11.957  1.00 44.72     0.064 A 
HETATM    2  CAT   D T1307      -5.788  -2.615 -12.068  1.00 42.93     0.282 A 
HETATM    3  OAZ   D T1307      -6.914  -2.007 -12.183  1.00 41.82    -0.265 OA
HETATM    4  NAU   D T1307      -5.697  -3.985 -12.019  1.00 41.25    -0.169 NA
HETATM    5  CAV   D T1307      -4.373  -4.263 -11.900  1.00 41.79     0.282 A 
HETATM    6  OAX   D T1307      -3.916  -5.474 -11.841  1.00 43.23    -0.265 OA
HETATM    7  CAJ   D T1307      -3.555  -3.037 -11.823  1.00 41.06     0.064 A 
ENDROOT
BRANCH   1   8
HETATM    8  CAG   D T1307      -4.265  -0.417 -12.056  1.00 45.56     0.023 A 
HETATM    9  CAW   D T1307      -3.819   0.227 -13.206  1.00 46.69     0.076 A 
HETATM   10  NAH   D T1307      -3.788   1.568 -12.930  1.00 47.96    -0.326 N 
HETATM   11  CAE   D T1307      -4.235   1.786 -11.674  1.00 47.40     0.060 A 
HETATM   12  CAF   D T1307      -4.411   2.969 -10.960  1.00 46.84     0.017 A 
HETATM   13  CAD   D T1307      -4.568   0.556 -11.092  1.00 47.14     0.017 A 
HETATM   14  CAA   D T1307      -4.881   2.953  -9.649  1.00 46.26     0.002 A 
HETATM   15  CAB   D T1307      -5.193   1.738  -9.060  1.00 47.22     0.000 A 
HETATM   16  CAC   D T1307      -5.037   0.534  -9.780  1.00 47.34     0.002 A 
BRANCH  10  17
HETATM   17  CAY   D T1307      -3.412   2.689 -13.810  1.00 47.35     0.108 C 
BRANCH  17  18
HETATM   18  CBA   D T1307      -1.927   2.772 -14.150  1.00 49.36     0.048 C 
BRANCH  18  19
HETATM   19  CBB   D T1307      -1.212   3.570 -13.043  1.00 49.76     0.099 C 
BRANCH  19  20
HETATM   20  NBC   D T1307      -0.830   2.740 -11.884  1.00 50.82    -0.365 N 
HETATM   21  CBD   D T1307      -0.738   3.421 -10.608  1.00 49.65     0.121 C 
HETATM   22  CBE   D T1307      -0.525   1.301 -11.956  1.00 51.10     0.121 C 
ENDBRANCH  19  20
ENDBRANCH  18  19
ENDBRANCH  17  18
ENDBRANCH  10  17
ENDBRANCH   1   8
BRANCH   7  23
HETATM   23  CAK   D T1307      -2.088  -2.957 -11.795  1.00 42.28     0.025 A 
HETATM   24  CAM   D T1307      -1.400  -2.285 -10.783  1.00 43.03     0.019 A 
HETATM   25  CAP   D T1307      -1.800  -1.631  -9.575  1.00 40.17     0.002 A 
HETATM   26  CAN   D T1307      -0.068  -2.384 -11.211  1.00 41.89     0.081 A 
HETATM   27  CAQ   D T1307      -0.835  -1.069  -8.746  1.00 40.87     0.000 A 
HETATM   28  CAR   D T1307       0.513  -1.177  -9.135  1.00 41.97     0.002 A 
HETATM   29  CAS   D T1307       0.898  -1.819 -10.349  1.00 41.64     0.019 A 
HETATM   30  NAO   D T1307      -0.037  -3.064 -12.420  1.00 41.75    -0.244 NA
HETATM   31  CAL   D T1307      -1.283  -3.431 -12.820  1.00 40.82     0.099 A 
ENDBRANCH   7  23
TORSDOF 6
ENDMDL
MODEL 7
REMARK VINA RESULT:    -7.936      2.452      6.500
REMARK INTER + INTRA:         -12.361
REMARK INTER:                 -10.817
REMARK INTRA:                  -1.544
REMARK UNBOUND:                -1.641
REMARK  6 active torsions:
REMARK  status: ('A' for Active; 'I' for Inactive)
REMARK    1  A    between atoms: NBC_2  and  CBB_4 
REMARK    2  A    between atoms: CBB_4  and  CBA_5 
REMARK    3  A    between atoms: CBA_5  and  CAY_6 
REMARK    4  A    between atoms: CAY_6  and  NAH_7 
REMARK    5  A    between atoms: CAG_15  and  CAI_16 
REMARK    6  A    between atoms: CAJ_22  and  CAK_23 
ROOT
HETATM    1  CAI   D T1307      -3.100   0.953 -12.228  1.00 44.72     0.064 A 
HETATM    2  CAT   D T1307      -4.116   0.872 -13.310  1.00 42.93     0.282 A 
HETATM    3  OAZ   D T1307      -4.495   1.886 -14.000  1.00 41.82    -0.265 OA
HETATM    4  NAU   D T1307      -4.638  -0.385 -13.504  1.00 41.25    -0.169 NA
HETATM    5  CAV   D T1307      -4.006  -1.189 -12.611  1.00 41.79     0.282 A 
HETATM    6  OAX   D T1307      -4.244  -2.460 -12.525  1.00 43.23    -0.265 OA
HETATM    7  CAJ   D T1307      -3.061  -0.439 -11.762  1.00 41.06     0.064 A 
ENDROOT
BRANCH   1   8
HETATM    8  CAG   D T1307      -2.302   2.177 -11.841  1.00 45.56     0.023 A 
HETATM    9  CAW   D T1307      -1.296   2.728 -12.628  1.00 46.69     0.076 A 
HETATM   10  NAH   D T1307      -0.841   3.844 -11.977  1.00 47.96    -0.326 N 
HETATM   11  CAE   D T1307      -1.550   4.032 -10.843  1.00 47.40     0.060 A 
HETATM   12  CAF   D T1307      -1.478   5.030  -9.875  1.00 46.84     0.017 A 
HETATM   13  CAD   D T1307      -2.501   3.009 -10.730  1.00 47.14     0.017 A 
HETATM   14  CAA   D T1307      -2.314   5.014  -8.763  1.00 46.26     0.002 A 
HETATM   15  CAB   D T1307      -3.244   3.995  -8.633  1.00 47.22     0.000 A 
HETATM   16  CAC   D T1307      -3.340   2.987  -9.617  1.00 47.34     0.002 A 
BRANCH  10  17
HETATM   17  CAY   D T1307       0.202   4.800 -12.390  1.00 47.35     0.108 C 
BRANCH  17  18
HETATM   18  CBA   D T1307       1.633   4.280 -12.285  1.00 49.36     0.048 C 
BRANCH  18  19
HETATM   19  CBB   D T1307       1.979   4.087 -10.796  1.00 49.76     0.099 C 
BRANCH  19  20
HETATM   20  NBC   D T1307       3.394   4.372 -10.487  1.00 50.82    -0.365 N 
HETATM   21  CBD   D T1307       3.666   4.931  -9.179  1.00 49.65     0.121 C 
HETATM   22  CBE   D T1307       4.510   4.144 -11.421  1.00 51.10     0.121 C 
ENDBRANCH  19  20
ENDBRANCH  18  19
ENDBRANCH  17  18
ENDBRANCH  10  17
ENDBRANCH   1   8
BRANCH   7  23
HETATM   23  CAK   D T1307      -2.136  -0.997 -10.766  1.00 42.28     0.025 A 
HETATM   24  CAM   D T1307      -1.171  -1.949 -11.099  1.00 43.03     0.019 A 
HETATM   25  CAP   D T1307      -0.748  -2.546 -12.329  1.00 40.17     0.002 A 
HETATM   26  CAN   D T1307      -0.607  -2.252  -9.851  1.00 41.89     0.081 A 
HETATM   27  CAQ   D T1307       0.293  -3.468 -12.322  1.00 40.87     0.000 A 
HETATM   28  CAR   D T1307       0.899  -3.772 -11.088  1.00 41.97     0.002 A 
HETATM   29  CAS   D T1307       0.458  -3.180  -9.867  1.00 41.64     0.019 A 
HETATM   30  NAO   D T1307      -1.256  -1.509  -8.876  1.00 41.75    -0.244 NA
HETATM   31  CAL   D T1307      -2.225  -0.718  -9.410  1.00 40.82     0.099 A 
ENDBRANCH   7  23
TORSDOF 6
ENDMDL
MODEL 8
REMARK VINA RESULT:    -7.734      2.145      5.360
REMARK INTER + INTRA:         -12.088
REMARK INTER:                 -11.425
REMARK INTRA:                  -0.663
REMARK UNBOUND:                -1.641
REMARK  6 active torsions:
REMARK  status: ('A' for Active; 'I' for Inactive)
REMARK    1  A    between atoms: NBC_2  and  CBB_4 
REMARK    2  A    between atoms: CBB_4  and  CBA_5 
REMARK    3  A    between atoms: CBA_5  and  CAY_6 
REMARK    4  A    between atoms: CAY_6  and  NAH_7 
REMARK    5  A    between atoms: CAG_15  and  CAI_16 
REMARK    6  A    between atoms: CAJ_22  and  CAK_23 
ROOT
HETATM    1  CAI   D T1307      -2.343  -2.382 -11.587  1.00 44.72     0.064 A 
HETATM    2  CAT   D T1307      -2.370  -3.704 -12.266  1.00 42.93     0.282 A 
HETATM    3  OAZ   D T1307      -1.355  -4.489 -12.326  1.00 41.82    -0.265 OA
HETATM    4  NAU   D T1307      -3.576  -4.018 -12.847  1.00 41.25    -0.169 NA
HETATM    5  CAV   D T1307      -4.398  -2.970 -12.580  1.00 41.79     0.282 A 
HETATM    6  OAX   D T1307      -5.633  -2.935 -12.969  1.00 43.23    -0.265 OA
HETATM    7  CAJ   D T1307      -3.708  -1.902 -11.832  1.00 41.06     0.064 A 
ENDROOT
BRANCH   1   8
HETATM    8  CAG   D T1307      -1.188  -1.806 -10.800  1.00 45.56     0.023 A 
HETATM    9  CAW   D T1307      -1.149  -0.498 -10.326  1.00 46.69     0.076 A 
HETATM   10  NAH   D T1307       0.021  -0.358  -9.627  1.00 47.96    -0.326 N 
HETATM   11  CAE   D T1307       0.686  -1.533  -9.611  1.00 47.40     0.060 A 
HETATM   12  CAF   D T1307       1.892  -1.893  -9.013  1.00 46.84     0.017 A 
HETATM   13  CAD   D T1307      -0.055  -2.483 -10.326  1.00 47.14     0.017 A 
HETATM   14  CAA   D T1307       2.402  -3.181  -9.144  1.00 46.26     0.002 A 
HETATM   15  CAB   D T1307       1.684  -4.121  -9.865  1.00 47.22     0.000 A 
HETATM   16  CAC   D T1307       0.452  -3.775 -10.460  1.00 47.34     0.002 A 
BRANCH  10  17
HETATM   17  CAY   D T1307       0.537   0.819  -8.907  1.00 47.35     0.108 C 
BRANCH  17  18
HETATM   18  CBA   D T1307      -0.531   1.767  -8.369  1.00 49.36     0.048 C 
BRANCH  18  19
HETATM   19  CBB   D T1307      -0.179   3.202  -8.804  1.00 49.76     0.099 C 
BRANCH  19  20
HETATM   20  NBC   D T1307      -0.176   3.380 -10.269  1.00 50.82    -0.365 N 
HETATM   21  CBD   D T1307       1.057   3.866 -10.855  1.00 49.65     0.121 C 
HETATM   22  CBE   D T1307      -1.334   3.118 -11.141  1.00 51.10     0.121 C 
ENDBRANCH  19  20
ENDBRANCH  18  19
ENDBRANCH  17  18
ENDBRANCH  10  17
ENDBRANCH   1   8
BRANCH   7  23
HETATM   23  CAK   D T1307      -4.311  -0.677 -11.287  1.00 42.28     0.025 A 
HETATM   24  CAM   D T1307      -4.315   0.527 -11.993  1.00 43.03     0.019 A 
HETATM   25  CAP   D T1307      -3.894   0.909 -13.306  1.00 40.17     0.002 A 
HETATM   26  CAN   D T1307      -4.889   1.412 -11.070  1.00 41.89     0.081 A 
HETATM   27  CAQ   D T1307      -4.069   2.223 -13.728  1.00 40.87     0.000 A 
HETATM   28  CAR   D T1307      -4.669   3.129 -12.833  1.00 41.97     0.002 A 
HETATM   29  CAS   D T1307      -5.072   2.738 -11.521  1.00 41.64     0.019 A 
HETATM   30  NAO   D T1307      -5.166   0.720  -9.900  1.00 41.75    -0.244 NA
HETATM   31  CAL   D T1307      -4.810  -0.589  -9.996  1.00 40.82     0.099 A 
ENDBRANCH   7  23
TORSDOF 6
ENDMDL
MODEL 9
REMARK VINA RESULT:    -7.620      2.857      6.767
REMARK INTER + INTRA:         -11.934
REMARK INTER:                  -9.789
REMARK INTRA:                  -2.145
REMARK UNBOUND:                -1.641
REMARK  6 active torsions:
REMARK  status: ('A' for Active; 'I' for Inactive)
REMARK    1  A    between atoms: NBC_2  and  CBB_4 
REMARK    2  A    between atoms: CBB_4  and  CBA_5 
REMARK    3  A    between atoms: CBA_5  and  CAY_6 
REMARK    4  A    between atoms: CAY_6  and  NAH_7 
REMARK    5  A    between atoms: CAG_15  and  CAI_16 
REMARK    6  A    between atoms: CAJ_22  and  CAK_23 
ROOT
HETATM    1  CAI   D T1307      -1.921  -2.524 -11.966  1.00 44.72     0.064 A 
HETATM    2  CAT   D T1307      -0.821  -3.470 -12.289  1.00 42.93     0.282 A 
HETATM    3  OAZ   D T1307       0.423  -3.171 -12.176  1.00 41.82    -0.265 OA
HETATM    4  NAU   D T1307      -1.243  -4.697 -12.740  1.00 41.25    -0.169 NA
HETATM    5  CAV   D T1307      -2.600  -4.650 -12.722  1.00 41.79     0.282 A 
HETATM    6  OAX   D T1307      -3.338  -5.655 -13.075  1.00 43.23    -0.265 OA
HETATM    7  CAJ   D T1307      -3.103  -3.333 -12.286  1.00 41.06     0.064 A 
ENDROOT
BRANCH   1   8
HETATM    8  CAG   D T1307      -1.766  -1.138 -11.381  1.00 45.56     0.023 A 
HETATM    9  CAW   D T1307      -1.937   0.035 -12.109  1.00 46.69     0.076 A 
HETATM   10  NAH   D T1307      -1.764   1.078 -11.239  1.00 47.96    -0.326 N 
HETATM   11  CAE   D T1307      -1.535   0.602  -9.996  1.00 47.40     0.060 A 
HETATM   12  CAF   D T1307      -1.327   1.263  -8.788  1.00 46.84     0.017 A 
HETATM   13  CAD   D T1307      -1.549  -0.798 -10.038  1.00 47.14     0.017 A 
HETATM   14  CAA   D T1307      -1.093   0.556  -7.613  1.00 46.26     0.002 A 
HETATM   15  CAB   D T1307      -1.086  -0.829  -7.650  1.00 47.22     0.000 A 
HETATM   16  CAC   D T1307      -1.313  -1.512  -8.864  1.00 47.34     0.002 A 
BRANCH  10  17
HETATM   17  CAY   D T1307      -1.858   2.526 -11.494  1.00 47.35     0.108 C 
BRANCH  17  18
HETATM   18  CBA   D T1307      -3.151   2.980 -12.167  1.00 49.36     0.048 C 
BRANCH  18  19
HETATM   19  CBB   D T1307      -4.023   3.700 -11.121  1.00 49.76     0.099 C 
BRANCH  19  20
HETATM   20  NBC   D T1307      -4.603   2.785 -10.119  1.00 50.82    -0.365 N 
HETATM   21  CBD   D T1307      -4.473   3.184  -8.732  1.00 49.65     0.121 C 
HETATM   22  CBE   D T1307      -5.269   1.511 -10.443  1.00 51.10     0.121 C 
ENDBRANCH  19  20
ENDBRANCH  18  19
ENDBRANCH  17  18
ENDBRANCH  10  17
ENDBRANCH   1   8
BRANCH   7  23
HETATM   23  CAK   D T1307      -4.505  -2.959 -12.051  1.00 42.28     0.025 A 
HETATM   24  CAM   D T1307      -5.094  -1.858 -12.675  1.00 43.03     0.019 A 
HETATM   25  CAP   D T1307      -4.653  -0.923 -13.663  1.00 40.17     0.002 A 
HETATM   26  CAN   D T1307      -6.369  -1.832 -12.091  1.00 41.89     0.081 A 
HETATM   27  CAQ   D T1307      -5.522   0.070 -14.106  1.00 40.87     0.000 A 
HETATM   28  CAR   D T1307      -6.818   0.105 -13.559  1.00 41.97     0.002 A 
HETATM   29  CAS   D T1307      -7.241  -0.826 -12.564  1.00 41.64     0.019 A 
HETATM   30  NAO   D T1307      -6.460  -2.865 -11.170  1.00 41.75    -0.244 NA
HETATM   31  CAL   D T1307      -5.309  -3.587 -11.112  1.00 40.82     0.099 A 
ENDBRANCH   7  23
TORSDOF 6
ENDMDL
