MODEL 1
REMARK VINA RESULT:    -6.793      0.000      0.000
REMARK INTER + INTRA:          -8.160
REMARK INTER:                  -7.587
REMARK INTRA:                  -0.573
REMARK UNBOUND:                -0.573
REMARK  2 active torsions:
REMARK  status: ('A' for Active; 'I' for Inactive)
REMARK    1  A    between atoms: C4_4  and  C7_7 
REMARK    2  A    between atoms: C5_5  and  C15_15 
ROOT
HETATM    1  N1    D T1240      -5.946   5.874   1.867  1.00 25.62    -0.194 NA
HETATM    2  C2    D T1240      -5.341   6.990   1.320  1.00 23.58     0.239 A 
HETATM    3  C3    D T1240      -5.194   5.038   2.735  1.00 22.29     0.187 A 
HETATM    4  C4    D T1240      -3.768   5.313   3.065  1.00 21.48     0.051 A 
HETATM    5  C5    D T1240      -3.256   6.570   2.411  1.00 26.18     0.065 A 
HETATM    6  N6    D T1240      -4.025   7.351   1.588  1.00 28.81    -0.219 NA
HETATM    7  N13   D T1240      -5.764   3.962   3.278  1.00 22.31    -0.127 N 
HETATM    8  N14   D T1240      -6.075   7.802   0.446  1.00 25.45    -0.060 NA
ENDROOT
BRANCH   4   9
HETATM    9  C7    D T1240      -2.958   4.445   3.933  1.00 23.16     0.000 A 
HETATM   10  C8    D T1240      -2.131   3.359   3.388  1.00 23.74     0.000 A 
HETATM   11  C9    D T1240      -1.312   2.503   4.209  1.00 22.05     0.007 A 
HETATM   12  C10   D T1240      -1.287   2.689   5.583  1.00 28.58     0.040 A 
HETATM   13  C11   D T1240      -2.090   3.770   6.193  1.00 23.69     0.064 A 
HETATM   14 CL1    D T1240      -0.398   1.743   6.598  1.00  5.79    -0.087 Cl
HETATM   15  C12   D T1240      -2.900   4.615   5.351  1.00 23.56    -0.020 A 
ENDBRANCH   4   9
BRANCH   5  16
HETATM   16  C15   D T1240      -1.834   7.017   2.657  1.00 31.62     0.046 C 
HETATM   17  C16   D T1240      -0.814   6.529   1.638  1.00 31.37     0.007 C 
ENDBRANCH   5  16
TORSDOF 2
ENDMDL
MODEL 2
REMARK VINA RESULT:    -6.580      1.059      2.847
REMARK INTER + INTRA:          -7.922
REMARK INTER:                  -7.482
REMARK INTRA:                  -0.440
REMARK UNBOUND:                -0.573
REMARK  2 active torsions:
REMARK  status: ('A' for Active; 'I' for Inactive)
REMARK    1  A    between atoms: C4_4  and  C7_7 
REMARK    2  A    between atoms: C5_5  and  C15_15 
ROOT
HETATM    1  N1    D T1240      -4.054   7.771   1.853  1.00 25.62    -0.194 NA
HETATM    2  C2    D T1240      -5.190   7.274   1.242  1.00 23.58     0.239 A 
HETATM    3  C3    D T1240      -3.276   6.907   2.670  1.00 22.29     0.187 A 
HETATM    4  C4    D T1240      -3.651   5.485   2.906  1.00 21.48     0.051 A 
HETATM    5  C5    D T1240      -4.899   5.087   2.161  1.00 26.18     0.065 A 
HETATM    6  N6    D T1240      -5.611   5.955   1.375  1.00 28.81    -0.219 NA
HETATM    7  N13   D T1240      -2.173   7.367   3.260  1.00 22.31    -0.127 N 
HETATM    8  N14   D T1240      -5.969   8.132   0.455  1.00 25.45    -0.060 NA
ENDROOT
BRANCH   4   9
HETATM    9  C7    D T1240      -2.883   4.580   3.774  1.00 23.16     0.000 A 
HETATM   10  C8    D T1240      -3.107   4.523   5.226  1.00 23.74     0.000 A 
HETATM   11  C9    D T1240      -2.384   3.635   6.101  1.00 22.05     0.007 A 
HETATM   12  C10   D T1240      -1.423   2.785   5.574  1.00 28.58     0.040 A 
HETATM   13  C11   D T1240      -1.155   2.788   4.121  1.00 23.69     0.064 A 
HETATM   14 CL1    D T1240      -0.534   1.755   6.505  1.00  5.79    -0.087 Cl
HETATM   15  C12   D T1240      -1.893   3.684   3.265  1.00 23.56    -0.020 A 
ENDBRANCH   4   9
BRANCH   5  16
HETATM   16  C15   D T1240      -5.412   3.670   2.265  1.00 31.62     0.046 C 
HETATM   17  C16   D T1240      -6.230   3.185   1.076  1.00 31.37     0.007 C 
ENDBRANCH   5  16
TORSDOF 2
ENDMDL
MODEL 3
REMARK VINA RESULT:    -6.567      2.994      5.118
REMARK INTER + INTRA:          -7.908
REMARK INTER:                  -7.466
REMARK INTRA:                  -0.442
REMARK UNBOUND:                -0.573
REMARK  2 active torsions:
REMARK  status: ('A' for Active; 'I' for Inactive)
REMARK    1  A    between atoms: C4_4  and  C7_7 
REMARK    2  A    between atoms: C5_5  and  C15_15 
ROOT
HETATM    1  N1    D T1240      -3.987   4.459   2.384  1.00 25.62    -0.194 NA
HETATM    2  C2    D T1240      -3.803   3.434   3.292  1.00 23.58     0.239 A 
HETATM    3  C3    D T1240      -3.060   5.536   2.363  1.00 22.29     0.187 A 
HETATM    4  C4    D T1240      -1.903   5.607   3.298  1.00 21.48     0.051 A 
HETATM    5  C5    D T1240      -1.826   4.412   4.212  1.00 26.18     0.065 A 
HETATM    6  N6    D T1240      -2.740   3.391   4.188  1.00 28.81    -0.219 NA
HETATM    7  N13   D T1240      -3.217   6.530   1.488  1.00 22.31    -0.127 N 
HETATM    8  N14   D T1240      -4.730   2.383   3.328  1.00 25.45    -0.060 NA
ENDROOT
BRANCH   4   9
HETATM    9  C7    D T1240      -0.950   6.726   3.320  1.00 23.16     0.000 A 
HETATM   10  C8    D T1240      -1.123   7.874   4.222  1.00 23.74     0.000 A 
HETATM   11  C9    D T1240      -0.198   8.978   4.281  1.00 22.05     0.007 A 
HETATM   12  C10   D T1240       0.917   8.984   3.455  1.00 28.58     0.040 A 
HETATM   13  C11   D T1240       1.153   7.855   2.531  1.00 23.69     0.064 A 
HETATM   14 CL1    D T1240       2.012  10.215   3.441  1.00  5.79    -0.087 Cl
HETATM   15  C12   D T1240       0.215   6.761   2.492  1.00 23.56    -0.020 A 
ENDBRANCH   4   9
BRANCH   5  16
HETATM   16  C15   D T1240      -0.698   4.305   5.212  1.00 31.62     0.046 C 
HETATM   17  C16   D T1240      -0.834   3.180   6.228  1.00 31.37     0.007 C 
ENDBRANCH   5  16
TORSDOF 2
ENDMDL
MODEL 4
REMARK VINA RESULT:    -6.531      3.164      4.963
REMARK INTER + INTRA:          -7.868
REMARK INTER:                  -7.301
REMARK INTRA:                  -0.566
REMARK UNBOUND:                -0.573
REMARK  2 active torsions:
REMARK  status: ('A' for Active; 'I' for Inactive)
REMARK    1  A    between atoms: C4_4  and  C7_7 
REMARK    2  A    between atoms: C5_5  and  C15_15 
ROOT
HETATM    1  N1    D T1240      -3.966   6.038   1.141  1.00 25.62    -0.194 NA
HETATM    2  C2    D T1240      -4.325   5.124   2.114  1.00 23.58     0.239 A 
HETATM    3  C3    D T1240      -2.874   6.914   1.386  1.00 22.29     0.187 A 
HETATM    4  C4    D T1240      -2.111   6.892   2.665  1.00 21.48     0.051 A 
HETATM    5  C5    D T1240      -2.607   5.834   3.616  1.00 26.18     0.065 A 
HETATM    6  N6    D T1240      -3.659   5.004   3.329  1.00 28.81    -0.219 NA
HETATM    7  N13   D T1240      -2.509   7.796   0.457  1.00 22.31    -0.127 N 
HETATM    8  N14   D T1240      -5.416   4.277   1.881  1.00 25.45    -0.060 NA
ENDROOT
BRANCH   4   9
HETATM    9  C7    D T1240      -0.999   7.810   2.958  1.00 23.16     0.000 A 
HETATM   10  C8    D T1240       0.387   7.491   2.585  1.00 23.74     0.000 A 
HETATM   11  C9    D T1240       1.495   8.376   2.842  1.00 22.05     0.007 A 
HETATM   12  C10   D T1240       1.272   9.591   3.471  1.00 28.58     0.040 A 
HETATM   13  C11   D T1240      -0.100   9.975   3.864  1.00 23.69     0.064 A 
HETATM   14 CL1    D T1240       2.483  10.652   3.823  1.00  5.79    -0.087 Cl
HETATM   15  C12   D T1240      -1.194   9.075   3.594  1.00 23.56    -0.020 A 
ENDBRANCH   4   9
BRANCH   5  16
HETATM   16  C15   D T1240      -1.930   5.653   4.954  1.00 31.62     0.046 C 
HETATM   17  C16   D T1240      -0.739   4.704   4.959  1.00 31.37     0.007 C 
ENDBRANCH   5  16
TORSDOF 2
ENDMDL
MODEL 5
REMARK VINA RESULT:    -6.485      3.826      5.817
REMARK INTER + INTRA:          -7.816
REMARK INTER:                  -7.523
REMARK INTRA:                  -0.293
REMARK UNBOUND:                -0.573
REMARK  2 active torsions:
REMARK  status: ('A' for Active; 'I' for Inactive)
REMARK    1  A    between atoms: C4_4  and  C7_7 
REMARK    2  A    between atoms: C5_5  and  C15_15 
ROOT
HETATM    1  N1    D T1240      -3.529   3.630   4.308  1.00 25.62    -0.194 NA
HETATM    2  C2    D T1240      -2.351   4.104   3.761  1.00 23.58     0.239 A 
HETATM    3  C3    D T1240      -4.767   4.065   3.764  1.00 22.29     0.187 A 
HETATM    4  C4    D T1240      -4.842   5.029   2.631  1.00 21.48     0.051 A 
HETATM    5  C5    D T1240      -3.481   5.440   2.132  1.00 26.18     0.065 A 
HETATM    6  N6    D T1240      -2.313   4.984   2.684  1.00 28.81    -0.219 NA
HETATM    7  N13   D T1240      -5.912   3.612   4.274  1.00 22.31    -0.127 N 
HETATM    8  N14   D T1240      -1.131   3.694   4.312  1.00 25.45    -0.060 NA
ENDROOT
BRANCH   4   9
HETATM    9  C7    D T1240      -6.110   5.522   2.072  1.00 23.16     0.000 A 
HETATM   10  C8    D T1240      -6.971   4.670   1.237  1.00 23.74     0.000 A 
HETATM   11  C9    D T1240      -8.227   5.117   0.689  1.00 22.05     0.007 A 
HETATM   12  C10   D T1240      -8.667   6.407   0.944  1.00 28.58     0.040 A 
HETATM   13  C11   D T1240      -7.852   7.310   1.782  1.00 23.69     0.064 A 
HETATM   14 CL1    D T1240     -10.078   7.006   0.338  1.00  5.79    -0.087 Cl
HETATM   15  C12   D T1240      -6.600   6.841   2.322  1.00 23.56    -0.020 A 
ENDBRANCH   4   9
BRANCH   5  16
HETATM   16  C15   D T1240      -3.368   6.397   0.968  1.00 31.62     0.046 C 
HETATM   17  C16   D T1240      -1.951   6.660   0.478  1.00 31.37     0.007 C 
ENDBRANCH   5  16
TORSDOF 2
ENDMDL
MODEL 6
REMARK VINA RESULT:    -6.484      2.330      3.762
REMARK INTER + INTRA:          -7.816
REMARK INTER:                  -7.250
REMARK INTRA:                  -0.566
REMARK UNBOUND:                -0.573
REMARK  2 active torsions:
REMARK  status: ('A' for Active; 'I' for Inactive)
REMARK    1  A    between atoms: C4_4  and  C7_7 
REMARK    2  A    between atoms: C5_5  and  C15_15 
ROOT
HETATM    1  N1    D T1240      -6.225   6.006   0.755  1.00 25.62    -0.194 NA
HETATM    2  C2    D T1240      -6.728   4.789   1.176  1.00 23.58     0.239 A 
HETATM    3  C3    D T1240      -4.976   6.450   1.266  1.00 22.29     0.187 A 
HETATM    4  C4    D T1240      -4.194   5.656   2.255  1.00 21.48     0.051 A 
HETATM    5  C5    D T1240      -4.860   4.349   2.602  1.00 26.18     0.065 A 
HETATM    6  N6    D T1240      -6.063   3.960   2.074  1.00 28.81    -0.219 NA
HETATM    7  N13   D T1240      -4.471   7.616   0.865  1.00 22.31    -0.127 N 
HETATM    8  N14   D T1240      -7.970   4.362   0.690  1.00 25.45    -0.060 NA
ENDROOT
BRANCH   4   9
HETATM    9  C7    D T1240      -2.916   6.108   2.825  1.00 23.16     0.000 A 
HETATM   10  C8    D T1240      -1.628   5.767   2.205  1.00 23.74     0.000 A 
HETATM   11  C9    D T1240      -0.359   6.209   2.728  1.00 22.05     0.007 A 
HETATM   12  C10   D T1240      -0.325   6.992   3.873  1.00 28.58     0.040 A 
HETATM   13  C11   D T1240      -1.586   7.376   4.539  1.00 23.69     0.064 A 
HETATM   14 CL1    D T1240       1.081   7.521   4.551  1.00  5.79    -0.087 Cl
HETATM   15  C12   D T1240      -2.843   6.925   3.996  1.00 23.56    -0.020 A 
ENDBRANCH   4   9
BRANCH   5  16
HETATM   16  C15   D T1240      -4.194   3.404   3.573  1.00 31.62     0.046 C 
HETATM   17  C16   D T1240      -4.594   3.580   5.032  1.00 31.37     0.007 C 
ENDBRANCH   5  16
TORSDOF 2
ENDMDL
MODEL 7
REMARK VINA RESULT:    -6.248      3.545      5.184
REMARK INTER + INTRA:          -7.551
REMARK INTER:                  -7.026
REMARK INTRA:                  -0.525
REMARK UNBOUND:                -0.573
REMARK  2 active torsions:
REMARK  status: ('A' for Active; 'I' for Inactive)
REMARK    1  A    between atoms: C4_4  and  C7_7 
REMARK    2  A    between atoms: C5_5  and  C15_15 
ROOT
HETATM    1  N1    D T1240      -2.372   3.825   4.136  1.00 25.62    -0.194 NA
HETATM    2  C2    D T1240      -3.428   3.953   3.253  1.00 23.58     0.239 A 
HETATM    3  C3    D T1240      -1.441   4.892   4.258  1.00 22.29     0.187 A 
HETATM    4  C4    D T1240      -1.554   6.141   3.455  1.00 21.48     0.051 A 
HETATM    5  C5    D T1240      -2.762   6.140   2.554  1.00 26.18     0.065 A 
HETATM    6  N6    D T1240      -3.639   5.090   2.478  1.00 28.81    -0.219 NA
HETATM    7  N13   D T1240      -0.422   4.789   5.110  1.00 22.31    -0.127 N 
HETATM    8  N14   D T1240      -4.332   2.893   3.115  1.00 25.45    -0.060 NA
ENDROOT
BRANCH   4   9
HETATM    9  C7    D T1240      -0.586   7.245   3.537  1.00 23.16     0.000 A 
HETATM   10  C8    D T1240      -0.774   8.372   4.463  1.00 23.74     0.000 A 
HETATM   11  C9    D T1240       0.165   9.460   4.580  1.00 22.05     0.007 A 
HETATM   12  C10   D T1240       1.306   9.470   3.792  1.00 28.58     0.040 A 
HETATM   13  C11   D T1240       1.557   8.362   2.847  1.00 23.69     0.064 A 
HETATM   14 CL1    D T1240       2.418  10.685   3.846  1.00  5.79    -0.087 Cl
HETATM   15  C12   D T1240       0.605   7.283   2.749  1.00 23.56    -0.020 A 
ENDBRANCH   4   9
BRANCH   5  16
HETATM   16  C15   D T1240      -3.048   7.342   1.683  1.00 31.62     0.046 C 
HETATM   17  C16   D T1240      -2.245   7.415   0.392  1.00 31.37     0.007 C 
ENDBRANCH   5  16
TORSDOF 2
ENDMDL
MODEL 8
REMARK VINA RESULT:    -6.184      3.901      6.521
REMARK INTER + INTRA:          -7.480
REMARK INTER:                  -7.030
REMARK INTRA:                  -0.450
REMARK UNBOUND:                -0.573
REMARK  2 active torsions:
REMARK  status: ('A' for Active; 'I' for Inactive)
REMARK    1  A    between atoms: C4_4  and  C7_7 
REMARK    2  A    between atoms: C5_5  and  C15_15 
ROOT
HETATM    1  N1    D T1240      -2.219   6.239   1.986  1.00 25.62    -0.194 NA
HETATM    2  C2    D T1240      -2.082   5.106   2.767  1.00 23.58     0.239 A 
HETATM    3  C3    D T1240      -3.520   6.644   1.581  1.00 22.29     0.187 A 
HETATM    4  C4    D T1240      -4.742   5.880   1.955  1.00 21.48     0.051 A 
HETATM    5  C5    D T1240      -4.435   4.685   2.819  1.00 26.18     0.065 A 
HETATM    6  N6    D T1240      -3.162   4.340   3.193  1.00 28.81    -0.219 NA
HETATM    7  N13   D T1240      -3.671   7.738   0.835  1.00 22.31    -0.127 N 
HETATM    8  N14   D T1240      -0.799   4.694   3.147  1.00 25.45    -0.060 NA
ENDROOT
BRANCH   4   9
HETATM    9  C7    D T1240      -6.095   6.258   1.521  1.00 23.16     0.000 A 
HETATM   10  C8    D T1240      -6.875   7.287   2.224  1.00 23.74     0.000 A 
HETATM   11  C9    D T1240      -8.196   7.693   1.813  1.00 22.05     0.007 A 
HETATM   12  C10   D T1240      -8.784   7.099   0.706  1.00 28.58     0.040 A 
HETATM   13  C11   D T1240      -8.049   6.063  -0.049  1.00 23.69     0.064 A 
HETATM   14 CL1    D T1240     -10.298   7.486   0.181  1.00  5.79    -0.087 Cl
HETATM   15  C12   D T1240      -6.727   5.675   0.379  1.00 23.56    -0.020 A 
ENDBRANCH   4   9
BRANCH   5  16
HETATM   16  C15   D T1240      -5.561   3.808   3.314  1.00 31.62     0.046 C 
HETATM   17  C16   D T1240      -5.618   3.610   4.822  1.00 31.37     0.007 C 
ENDBRANCH   5  16
TORSDOF 2
ENDMDL
MODEL 9
REMARK VINA RESULT:    -6.051      3.364      5.204
REMARK INTER + INTRA:          -7.331
REMARK INTER:                  -6.826
REMARK INTRA:                  -0.506
REMARK UNBOUND:                -0.573
REMARK  2 active torsions:
REMARK  status: ('A' for Active; 'I' for Inactive)
REMARK    1  A    between atoms: C4_4  and  C7_7 
REMARK    2  A    between atoms: C5_5  and  C15_15 
ROOT
HETATM    1  N1    D T1240      -1.091   8.293   4.012  1.00 25.62    -0.194 NA
HETATM    2  C2    D T1240       0.033   7.496   4.124  1.00 23.58     0.239 A 
HETATM    3  C3    D T1240      -2.292   7.725   3.508  1.00 22.29     0.187 A 
HETATM    4  C4    D T1240      -2.379   6.301   3.081  1.00 21.48     0.051 A 
HETATM    5  C5    D T1240      -1.084   5.558   3.281  1.00 26.18     0.065 A 
HETATM    6  N6    D T1240       0.048   6.148   3.781  1.00 28.81    -0.219 NA
HETATM    7  N13   D T1240      -3.387   8.477   3.400  1.00 22.31    -0.127 N 
HETATM    8  N14   D T1240       1.223   8.061   4.599  1.00 25.45    -0.060 NA
ENDROOT
BRANCH   4   9
HETATM    9  C7    D T1240      -3.600   5.697   2.525  1.00 23.16     0.000 A 
HETATM   10  C8    D T1240      -3.977   5.872   1.115  1.00 23.74     0.000 A 
HETATM   11  C9    D T1240      -5.156   5.279   0.536  1.00 22.05     0.007 A 
HETATM   12  C10   D T1240      -5.994   4.505   1.324  1.00 28.58     0.040 A 
HETATM   13  C11   D T1240      -5.667   4.285   2.748  1.00 23.69     0.064 A 
HETATM   14 CL1    D T1240      -7.374   3.810   0.750  1.00  5.79    -0.087 Cl
HETATM   15  C12   D T1240      -4.480   4.886   3.306  1.00 23.56    -0.020 A 
ENDBRANCH   4   9
BRANCH   5  16
HETATM   16  C15   D T1240      -0.998   4.092   2.924  1.00 31.62     0.046 C 
HETATM   17  C16   D T1240      -1.229   3.127   4.078  1.00 31.37     0.007 C 
ENDBRANCH   5  16
TORSDOF 2
ENDMDL
