MODEL 1
REMARK VINA RESULT:    -6.822      0.000      0.000
REMARK INTER + INTRA:          -8.192
REMARK INTER:                  -7.620
REMARK INTRA:                  -0.572
REMARK UNBOUND:                -0.572
REMARK  2 active torsions:
REMARK  status: ('A' for Active; 'I' for Inactive)
REMARK    1  A    between atoms: C4_4  and  C7_7 
REMARK    2  A    between atoms: C5_5  and  C15_15 
ROOT
HETATM    1  N1    D T1240      -8.407   1.312   1.691  1.00 25.62    -0.194 NA
HETATM    2  C2    D T1240      -8.667   2.200   0.663  1.00 23.58     0.239 A 
HETATM    3  C3    D T1240      -7.243   1.497   2.484  1.00 22.29     0.187 A 
HETATM    4  C4    D T1240      -6.281   2.606   2.238  1.00 21.48     0.051 A 
HETATM    5  C5    D T1240      -6.707   3.499   1.101  1.00 26.18     0.065 A 
HETATM    6  N6    D T1240      -7.847   3.285   0.371  1.00 28.81    -0.219 NA
HETATM    7  N13   D T1240      -6.981   0.654   3.483  1.00 22.31    -0.127 N 
HETATM    8  N14   D T1240      -9.802   2.006  -0.133  1.00 25.45    -0.060 NA
ENDROOT
BRANCH   4   9
HETATM    9  C7    D T1240      -5.052   2.799   3.023  1.00 23.16     0.000 A 
HETATM   10  C8    D T1240      -3.766   2.224   2.601  1.00 23.74     0.000 A 
HETATM   11  C9    D T1240      -2.540   2.410   3.341  1.00 22.05     0.007 A 
HETATM   12  C10   D T1240      -2.549   3.160   4.506  1.00 28.58     0.040 A 
HETATM   13  C11   D T1240      -3.809   3.770   4.979  1.00 23.69     0.064 A 
HETATM   14 CL1    D T1240      -1.200   3.402   5.422  1.00  5.79    -0.087 Cl
HETATM   15  C12   D T1240      -5.021   3.574   4.224  1.00 23.56    -0.020 A 
ENDBRANCH   4   9
BRANCH   5  16
HETATM   16  C15   D T1240      -5.860   4.692   0.727  1.00 31.62     0.046 C 
HETATM   17  C16   D T1240      -4.792   4.427  -0.326  1.00 31.37     0.007 C 
ENDBRANCH   5  16
TORSDOF 2
ENDMDL
MODEL 2
REMARK VINA RESULT:    -6.721      1.592      3.106
REMARK INTER + INTRA:          -8.079
REMARK INTER:                  -7.642
REMARK INTRA:                  -0.436
REMARK UNBOUND:                -0.572
REMARK  2 active torsions:
REMARK  status: ('A' for Active; 'I' for Inactive)
REMARK    1  A    between atoms: C4_4  and  C7_7 
REMARK    2  A    between atoms: C5_5  and  C15_15 
ROOT
HETATM    1  N1    D T1240      -9.049   4.355   0.289  1.00 25.62    -0.194 NA
HETATM    2  C2    D T1240      -9.790   3.193   0.175  1.00 23.58     0.239 A 
HETATM    3  C3    D T1240      -7.782   4.304   0.930  1.00 22.29     0.187 A 
HETATM    4  C4    D T1240      -7.229   3.045   1.500  1.00 21.48     0.051 A 
HETATM    5  C5    D T1240      -8.140   1.864   1.283  1.00 26.18     0.065 A 
HETATM    6  N6    D T1240      -9.350   1.961   0.647  1.00 28.81    -0.219 NA
HETATM    7  N13   D T1240      -7.052   5.413   1.041  1.00 22.31    -0.127 N 
HETATM    8  N14   D T1240     -11.049   3.246  -0.436  1.00 25.45    -0.060 NA
ENDROOT
BRANCH   4   9
HETATM    9  C7    D T1240      -5.936   2.973   2.197  1.00 23.16     0.000 A 
HETATM   10  C8    D T1240      -5.809   3.286   3.628  1.00 23.74     0.000 A 
HETATM   11  C9    D T1240      -4.559   3.208   4.344  1.00 22.05     0.007 A 
HETATM   12  C10   D T1240      -3.408   2.825   3.674  1.00 28.58     0.040 A 
HETATM   13  C11   D T1240      -3.470   2.490   2.236  1.00 23.69     0.064 A 
HETATM   14 CL1    D T1240      -1.935   2.732   4.409  1.00  5.79    -0.087 Cl
HETATM   15  C12   D T1240      -4.730   2.572   1.541  1.00 23.56    -0.020 A 
ENDBRANCH   4   9
BRANCH   5  16
HETATM   16  C15   D T1240      -7.725   0.498   1.775  1.00 31.62     0.046 C 
HETATM   17  C16   D T1240      -8.311  -0.677   1.003  1.00 31.37     0.007 C 
ENDBRANCH   5  16
TORSDOF 2
ENDMDL
MODEL 3
REMARK VINA RESULT:    -6.440      2.717      4.425
REMARK INTER + INTRA:          -7.765
REMARK INTER:                  -7.281
REMARK INTRA:                  -0.484
REMARK UNBOUND:                -0.572
REMARK  2 active torsions:
REMARK  status: ('A' for Active; 'I' for Inactive)
REMARK    1  A    between atoms: C4_4  and  C7_7 
REMARK    2  A    between atoms: C5_5  and  C15_15 
ROOT
HETATM    1  N1    D T1240      -8.100   2.383   1.069  1.00 25.62    -0.194 NA
HETATM    2  C2    D T1240      -7.258   1.377   1.507  1.00 23.58     0.239 A 
HETATM    3  C3    D T1240      -7.552   3.659   0.769  1.00 22.29     0.187 A 
HETATM    4  C4    D T1240      -6.102   3.959   0.925  1.00 21.48     0.051 A 
HETATM    5  C5    D T1240      -5.312   2.762   1.390  1.00 26.18     0.065 A 
HETATM    6  N6    D T1240      -5.886   1.546   1.657  1.00 28.81    -0.219 NA
HETATM    7  N13   D T1240      -8.348   4.638   0.339  1.00 22.31    -0.127 N 
HETATM    8  N14   D T1240      -7.801   0.126   1.825  1.00 25.45    -0.060 NA
ENDROOT
BRANCH   4   9
HETATM    9  C7    D T1240      -5.516   5.280   0.653  1.00 23.16     0.000 A 
HETATM   10  C8    D T1240      -4.967   5.627  -0.666  1.00 23.74     0.000 A 
HETATM   11  C9    D T1240      -4.401   6.920  -0.968  1.00 22.05     0.007 A 
HETATM   12  C10   D T1240      -4.360   7.897   0.014  1.00 28.58     0.040 A 
HETATM   13  C11   D T1240      -4.903   7.613   1.358  1.00 23.69     0.064 A 
HETATM   14 CL1    D T1240      -3.711   9.391  -0.240  1.00  5.79    -0.087 Cl
HETATM   15  C12   D T1240      -5.465   6.316   1.638  1.00 23.56    -0.020 A 
ENDBRANCH   4   9
BRANCH   5  16
HETATM   16  C15   D T1240      -3.818   2.878   1.579  1.00 31.62     0.046 C 
HETATM   17  C16   D T1240      -3.307   2.507   2.964  1.00 31.37     0.007 C 
ENDBRANCH   5  16
TORSDOF 2
ENDMDL
MODEL 4
REMARK VINA RESULT:    -6.357      2.920      4.831
REMARK INTER + INTRA:          -7.673
REMARK INTER:                  -7.239
REMARK INTRA:                  -0.434
REMARK UNBOUND:                -0.572
REMARK  2 active torsions:
REMARK  status: ('A' for Active; 'I' for Inactive)
REMARK    1  A    between atoms: C4_4  and  C7_7 
REMARK    2  A    between atoms: C5_5  and  C15_15 
ROOT
HETATM    1  N1    D T1240      -7.081   2.019   1.847  1.00 25.62    -0.194 NA
HETATM    2  C2    D T1240      -6.216   1.563   2.825  1.00 23.58     0.239 A 
HETATM    3  C3    D T1240      -6.871   3.309   1.289  1.00 22.29     0.187 A 
HETATM    4  C4    D T1240      -5.760   4.196   1.731  1.00 21.48     0.051 A 
HETATM    5  C5    D T1240      -4.895   3.555   2.785  1.00 26.18     0.065 A 
HETATM    6  N6    D T1240      -5.132   2.302   3.286  1.00 28.81    -0.219 NA
HETATM    7  N13   D T1240      -7.690   3.761   0.340  1.00 22.31    -0.127 N 
HETATM    8  N14   D T1240      -6.436   0.302   3.392  1.00 25.45    -0.060 NA
ENDROOT
BRANCH   4   9
HETATM    9  C7    D T1240      -5.542   5.547   1.193  1.00 23.16     0.000 A 
HETATM   10  C8    D T1240      -4.640   5.793   0.058  1.00 23.74     0.000 A 
HETATM   11  C9    D T1240      -4.418   7.104  -0.503  1.00 22.05     0.007 A 
HETATM   12  C10   D T1240      -5.074   8.200   0.035  1.00 28.58     0.040 A 
HETATM   13  C11   D T1240      -6.000   8.018   1.172  1.00 23.69     0.064 A 
HETATM   14 CL1    D T1240      -4.861   9.734  -0.530  1.00  5.79    -0.087 Cl
HETATM   15  C12   D T1240      -6.208   6.700   1.715  1.00 23.56    -0.020 A 
ENDBRANCH   4   9
BRANCH   5  16
HETATM   16  C15   D T1240      -3.703   4.305   3.333  1.00 31.62     0.046 C 
HETATM   17  C16   D T1240      -3.030   3.664   4.539  1.00 31.37     0.007 C 
ENDBRANCH   5  16
TORSDOF 2
ENDMDL
MODEL 5
REMARK VINA RESULT:    -6.166      3.096      4.011
REMARK INTER + INTRA:          -7.460
REMARK INTER:                  -7.056
REMARK INTRA:                  -0.404
REMARK UNBOUND:                -0.572
REMARK  2 active torsions:
REMARK  status: ('A' for Active; 'I' for Inactive)
REMARK    1  A    between atoms: C4_4  and  C7_7 
REMARK    2  A    between atoms: C5_5  and  C15_15 
ROOT
HETATM    1  N1    D T1240      -7.054   0.596   1.500  1.00 25.62    -0.194 NA
HETATM    2  C2    D T1240      -8.390   0.538   1.147  1.00 23.58     0.239 A 
HETATM    3  C3    D T1240      -6.378   1.843   1.437  1.00 22.29     0.187 A 
HETATM    4  C4    D T1240      -7.053   3.092   0.988  1.00 21.48     0.051 A 
HETATM    5  C5    D T1240      -8.507   2.875   0.656  1.00 26.18     0.065 A 
HETATM    6  N6    D T1240      -9.118   1.652   0.743  1.00 28.81    -0.219 NA
HETATM    7  N13   D T1240      -5.092   1.918   1.781  1.00 22.31    -0.127 N 
HETATM    8  N14   D T1240      -9.052  -0.696   1.186  1.00 25.45    -0.060 NA
ENDROOT
BRANCH   4   9
HETATM    9  C7    D T1240      -6.366   4.389   0.883  1.00 23.16     0.000 A 
HETATM   10  C8    D T1240      -5.553   4.741  -0.291  1.00 23.74     0.000 A 
HETATM   11  C9    D T1240      -4.882   6.011  -0.431  1.00 22.05     0.007 A 
HETATM   12  C10   D T1240      -4.992   6.960   0.573  1.00 28.58     0.040 A 
HETATM   13  C11   D T1240      -5.801   6.669   1.775  1.00 23.69     0.064 A 
HETATM   14 CL1    D T1240      -4.239   8.425   0.504  1.00  5.79    -0.087 Cl
HETATM   15  C12   D T1240      -6.465   5.395   1.894  1.00 23.56    -0.020 A 
ENDBRANCH   4   9
BRANCH   5  16
HETATM   16  C15   D T1240      -9.354   4.042   0.206  1.00 31.62     0.046 C 
HETATM   17  C16   D T1240     -10.859   3.826   0.299  1.00 31.37     0.007 C 
ENDBRANCH   5  16
TORSDOF 2
ENDMDL
MODEL 6
REMARK VINA RESULT:    -6.131      3.648      5.686
REMARK INTER + INTRA:          -7.420
REMARK INTER:                  -6.916
REMARK INTRA:                  -0.504
REMARK UNBOUND:                -0.572
REMARK  2 active torsions:
REMARK  status: ('A' for Active; 'I' for Inactive)
REMARK    1  A    between atoms: C4_4  and  C7_7 
REMARK    2  A    between atoms: C5_5  and  C15_15 
ROOT
HETATM    1  N1    D T1240      -5.098   2.719   4.061  1.00 25.62    -0.194 NA
HETATM    2  C2    D T1240      -4.133   3.515   3.472  1.00 23.58     0.239 A 
HETATM    3  C3    D T1240      -6.203   2.284   3.281  1.00 22.29     0.187 A 
HETATM    4  C4    D T1240      -6.369   2.669   1.852  1.00 21.48     0.051 A 
HETATM    5  C5    D T1240      -5.231   3.520   1.348  1.00 26.18     0.065 A 
HETATM    6  N6    D T1240      -4.179   3.905   2.138  1.00 28.81    -0.219 NA
HETATM    7  N13   D T1240      -7.138   1.510   3.831  1.00 22.31    -0.127 N 
HETATM    8  N14   D T1240      -3.055   3.963   4.246  1.00 25.45    -0.060 NA
ENDROOT
BRANCH   4   9
HETATM    9  C7    D T1240      -7.519   2.260   1.033  1.00 23.16     0.000 A 
HETATM   10  C8    D T1240      -7.562   0.958   0.352  1.00 23.74     0.000 A 
HETATM   11  C9    D T1240      -8.684   0.521  -0.444  1.00 22.05     0.007 A 
HETATM   12  C10   D T1240      -9.785   1.349  -0.590  1.00 28.58     0.040 A 
HETATM   13  C11   D T1240      -9.807   2.668   0.076  1.00 23.69     0.064 A 
HETATM   14 CL1    D T1240     -11.097   0.939  -1.499  1.00  5.79    -0.087 Cl
HETATM   15  C12   D T1240      -8.677   3.084   0.868  1.00 23.56    -0.020 A 
ENDBRANCH   4   9
BRANCH   5  16
HETATM   16  C15   D T1240      -5.222   3.982  -0.090  1.00 31.62     0.046 C 
HETATM   17  C16   D T1240      -5.414   5.479  -0.292  1.00 31.37     0.007 C 
ENDBRANCH   5  16
TORSDOF 2
ENDMDL
MODEL 7
REMARK VINA RESULT:    -6.120      4.866      7.557
REMARK INTER + INTRA:          -7.408
REMARK INTER:                  -6.846
REMARK INTRA:                  -0.563
REMARK UNBOUND:                -0.572
REMARK  2 active torsions:
REMARK  status: ('A' for Active; 'I' for Inactive)
REMARK    1  A    between atoms: C4_4  and  C7_7 
REMARK    2  A    between atoms: C5_5  and  C15_15 
ROOT
HETATM    1  N1    D T1240      -7.981   4.689   0.841  1.00 25.62    -0.194 NA
HETATM    2  C2    D T1240      -6.847   3.905   0.961  1.00 23.58     0.239 A 
HETATM    3  C3    D T1240      -9.199   4.081   0.438  1.00 22.29     0.187 A 
HETATM    4  C4    D T1240      -9.298   2.629   0.122  1.00 21.48     0.051 A 
HETATM    5  C5    D T1240      -7.990   1.906   0.316  1.00 26.18     0.065 A 
HETATM    6  N6    D T1240      -6.841   2.536   0.719  1.00 28.81    -0.219 NA
HETATM    7  N13   D T1240     -10.303   4.820   0.324  1.00 22.31    -0.127 N 
HETATM    8  N14   D T1240      -5.640   4.508   1.337  1.00 25.45    -0.060 NA
ENDROOT
BRANCH   4   9
HETATM    9  C7    D T1240     -10.539   1.983  -0.330  1.00 23.16     0.000 A 
HETATM   10  C8    D T1240     -10.846   1.808  -1.757  1.00 23.74     0.000 A 
HETATM   11  C9    D T1240     -12.047   1.163  -2.232  1.00 22.05     0.007 A 
HETATM   12  C10   D T1240     -12.971   0.678  -1.320  1.00 28.58     0.040 A 
HETATM   13  C11   D T1240     -12.717   0.816   0.129  1.00 23.69     0.064 A 
HETATM   14 CL1    D T1240     -14.378  -0.051  -1.775  1.00  5.79    -0.087 Cl
HETATM   15  C12   D T1240     -11.510   1.461   0.582  1.00 23.56    -0.020 A 
ENDBRANCH   4   9
BRANCH   5  16
HETATM   16  C15   D T1240      -7.912   0.418   0.065  1.00 31.62     0.046 C 
HETATM   17  C16   D T1240      -8.280  -0.461   1.252  1.00 31.37     0.007 C 
ENDBRANCH   5  16
TORSDOF 2
ENDMDL
MODEL 8
REMARK VINA RESULT:    -5.912      3.488      5.110
REMARK INTER + INTRA:          -7.175
REMARK INTER:                  -6.773
REMARK INTRA:                  -0.402
REMARK UNBOUND:                -0.572
REMARK  2 active torsions:
REMARK  status: ('A' for Active; 'I' for Inactive)
REMARK    1  A    between atoms: C4_4  and  C7_7 
REMARK    2  A    between atoms: C5_5  and  C15_15 
ROOT
HETATM    1  N1    D T1240      -5.089   2.861   2.943  1.00 25.62    -0.194 NA
HETATM    2  C2    D T1240      -6.240   2.195   2.560  1.00 23.58     0.239 A 
HETATM    3  C3    D T1240      -4.849   4.167   2.439  1.00 22.29     0.187 A 
HETATM    4  C4    D T1240      -5.786   4.842   1.499  1.00 21.48     0.051 A 
HETATM    5  C5    D T1240      -6.999   4.002   1.191  1.00 26.18     0.065 A 
HETATM    6  N6    D T1240      -7.191   2.749   1.711  1.00 28.81    -0.219 NA
HETATM    7  N13   D T1240      -3.749   4.826   2.803  1.00 22.31    -0.127 N 
HETATM    8  N14   D T1240      -6.466   0.898   3.038  1.00 25.45    -0.060 NA
ENDROOT
BRANCH   4   9
HETATM    9  C7    D T1240      -5.543   6.180   0.938  1.00 23.16     0.000 A 
HETATM   10  C8    D T1240      -4.671   6.385  -0.227  1.00 23.74     0.000 A 
HETATM   11  C9    D T1240      -4.427   7.682  -0.811  1.00 22.05     0.007 A 
HETATM   12  C10   D T1240      -5.031   8.804  -0.266  1.00 28.58     0.040 A 
HETATM   13  C11   D T1240      -5.925   8.664   0.902  1.00 23.69     0.064 A 
HETATM   14 CL1    D T1240      -4.789  10.324  -0.855  1.00  5.79    -0.087 Cl
HETATM   15  C12   D T1240      -6.156   7.359   1.468  1.00 23.56    -0.020 A 
ENDBRANCH   4   9
BRANCH   5  16
HETATM   16  C15   D T1240      -8.069   4.542   0.272  1.00 31.62     0.046 C 
HETATM   17  C16   D T1240      -9.411   3.827   0.347  1.00 31.37     0.007 C 
ENDBRANCH   5  16
TORSDOF 2
ENDMDL
MODEL 9
REMARK VINA RESULT:    -5.894      6.303      7.831
REMARK INTER + INTRA:          -7.155
REMARK INTER:                  -6.713
REMARK INTRA:                  -0.442
REMARK UNBOUND:                -0.572
REMARK  2 active torsions:
REMARK  status: ('A' for Active; 'I' for Inactive)
REMARK    1  A    between atoms: C4_4  and  C7_7 
REMARK    2  A    between atoms: C5_5  and  C15_15 
ROOT
HETATM    1  N1    D T1240      -7.639   9.364   1.306  1.00 25.62    -0.194 NA
HETATM    2  C2    D T1240      -7.658   8.150   0.643  1.00 23.58     0.239 A 
HETATM    3  C3    D T1240      -6.447  10.136   1.296  1.00 22.29     0.187 A 
HETATM    4  C4    D T1240      -5.208   9.677   0.610  1.00 21.48     0.051 A 
HETATM    5  C5    D T1240      -5.388   8.350  -0.081  1.00 26.18     0.065 A 
HETATM    6  N6    D T1240      -6.564   7.647  -0.053  1.00 28.81    -0.219 NA
HETATM    7  N13   D T1240      -6.413  11.311   1.924  1.00 22.31    -0.127 N 
HETATM    8  N14   D T1240      -8.826   7.378   0.671  1.00 25.45    -0.060 NA
ENDROOT
BRANCH   4   9
HETATM    9  C7    D T1240      -3.951  10.442   0.614  1.00 23.16     0.000 A 
HETATM   10  C8    D T1240      -2.894  10.189   1.604  1.00 23.74     0.000 A 
HETATM   11  C9    D T1240      -1.644  10.910   1.624  1.00 22.05     0.007 A 
HETATM   12  C10   D T1240      -1.405  11.893   0.676  1.00 28.58     0.040 A 
HETATM   13  C11   D T1240      -2.425  12.189  -0.351  1.00 23.69     0.064 A 
HETATM   14 CL1    D T1240      -0.015  12.779   0.640  1.00  5.79    -0.087 Cl
HETATM   15  C12   D T1240      -3.665  11.455  -0.354  1.00 23.56    -0.020 A 
ENDBRANCH   4   9
BRANCH   5  16
HETATM   16  C15   D T1240      -4.238   7.744  -0.850  1.00 31.62     0.046 C 
HETATM   17  C16   D T1240      -4.363   6.254  -1.139  1.00 31.37     0.007 C 
ENDBRANCH   5  16
TORSDOF 2
ENDMDL
