MODEL 1
REMARK VINA RESULT:    -6.930      0.000      0.000
REMARK INTER + INTRA:          -8.135
REMARK INTER:                  -7.740
REMARK INTRA:                  -0.395
REMARK UNBOUND:                -0.395
REMARK  2 active torsions:
REMARK  status: ('A' for Active; 'I' for Inactive)
REMARK    1  A    between atoms: C4_4  and  C7_7 
REMARK    2  A    between atoms: C5_5  and  C15_15 
ROOT
HETATM    1  N1    D T1240     -18.731   2.545  10.553  1.00 25.62    -0.194 NA
HETATM    2  C2    D T1240     -19.236   1.505  11.312  1.00 23.58     0.239 A 
HETATM    3  C3    D T1240     -19.208   3.864  10.786  1.00 22.29     0.187 A 
HETATM    4  C4    D T1240     -20.248   4.164  11.809  1.00 21.48     0.051 A 
HETATM    5  C5    D T1240     -20.686   2.936  12.564  1.00 26.18     0.065 A 
HETATM    6  N6    D T1240     -20.188   1.685  12.311  1.00 28.81    -0.219 NA
HETATM    7  N13   D T1240     -18.726   4.879  10.069  1.00 22.31    -0.127 N 
HETATM    8  N14   D T1240     -18.783   0.202  11.068  1.00 25.45    -0.060 NA
ENDROOT
BRANCH   4   9
HETATM    9  C7    D T1240     -20.784   5.513  12.045  1.00 23.16     0.000 A 
HETATM   10  C8    D T1240     -20.061   6.501  12.860  1.00 23.74     0.000 A 
HETATM   11  C9    D T1240     -20.551   7.838  13.095  1.00 22.05     0.007 A 
HETATM   12  C10   D T1240     -21.759   8.233  12.541  1.00 28.58     0.040 A 
HETATM   13  C11   D T1240     -22.529   7.289  11.706  1.00 23.69     0.064 A 
HETATM   14 CL1    D T1240     -22.402   9.732  12.778  1.00  5.79    -0.087 Cl
HETATM   15  C12   D T1240     -22.020   5.959  11.480  1.00 23.56    -0.020 A 
ENDBRANCH   4   9
BRANCH   5  16
HETATM   16  C15   D T1240     -21.720   3.059  13.659  1.00 31.62     0.046 C 
HETATM   17  C16   D T1240     -22.297   1.742  14.160  1.00 31.37     0.007 C 
ENDBRANCH   5  16
TORSDOF 2
ENDMDL
MODEL 2
REMARK VINA RESULT:    -6.900      4.339      6.326
REMARK INTER + INTRA:          -8.101
REMARK INTER:                  -7.594
REMARK INTRA:                  -0.507
REMARK UNBOUND:                -0.395
REMARK  2 active torsions:
REMARK  status: ('A' for Active; 'I' for Inactive)
REMARK    1  A    between atoms: C4_4  and  C7_7 
REMARK    2  A    between atoms: C5_5  and  C15_15 
ROOT
HETATM    1  N1    D T1240     -23.005   9.787  12.690  1.00 25.62    -0.194 NA
HETATM    2  C2    D T1240     -24.138   9.692  11.903  1.00 23.58     0.239 A 
HETATM    3  C3    D T1240     -22.040   8.745  12.639  1.00 22.29     0.187 A 
HETATM    4  C4    D T1240     -22.213   7.542  11.779  1.00 21.48     0.051 A 
HETATM    5  C5    D T1240     -23.484   7.590  10.969  1.00 26.18     0.065 A 
HETATM    6  N6    D T1240     -24.379   8.624  11.044  1.00 28.81    -0.219 NA
HETATM    7  N13   D T1240     -20.938   8.825  13.386  1.00 22.31    -0.127 N 
HETATM    8  N14   D T1240     -25.100  10.708  11.969  1.00 25.45    -0.060 NA
ENDROOT
BRANCH   4   9
HETATM    9  C7    D T1240     -21.248   6.433  11.735  1.00 23.16     0.000 A 
HETATM   10  C8    D T1240     -20.014   6.514  10.939  1.00 23.74     0.000 A 
HETATM   11  C9    D T1240     -19.038   5.452  10.889  1.00 22.05     0.007 A 
HETATM   12  C10   D T1240     -19.252   4.290  11.613  1.00 28.58     0.040 A 
HETATM   13  C11   D T1240     -20.469   4.150  12.439  1.00 23.69     0.064 A 
HETATM   14 CL1    D T1240     -18.202   3.019  11.595  1.00  5.79    -0.087 Cl
HETATM   15  C12   D T1240     -21.430   5.225  12.477  1.00 23.56    -0.020 A 
ENDBRANCH   4   9
BRANCH   5  16
HETATM   16  C15   D T1240     -23.810   6.461  10.020  1.00 31.62     0.046 C 
HETATM   17  C16   D T1240     -24.646   5.335  10.612  1.00 31.37     0.007 C 
ENDBRANCH   5  16
TORSDOF 2
ENDMDL
MODEL 3
REMARK VINA RESULT:    -6.879      3.675      5.765
REMARK INTER + INTRA:          -8.078
REMARK INTER:                  -7.589
REMARK INTRA:                  -0.489
REMARK UNBOUND:                -0.395
REMARK  2 active torsions:
REMARK  status: ('A' for Active; 'I' for Inactive)
REMARK    1  A    between atoms: C4_4  and  C7_7 
REMARK    2  A    between atoms: C5_5  and  C15_15 
ROOT
HETATM    1  N1    D T1240     -24.081   4.585  11.086  1.00 25.62    -0.194 NA
HETATM    2  C2    D T1240     -24.028   5.966  11.049  1.00 23.58     0.239 A 
HETATM    3  C3    D T1240     -22.898   3.858  11.387  1.00 22.29     0.187 A 
HETATM    4  C4    D T1240     -21.595   4.530  11.647  1.00 21.48     0.051 A 
HETATM    5  C5    D T1240     -21.700   6.033  11.589  1.00 26.18     0.065 A 
HETATM    6  N6    D T1240     -22.868   6.690  11.305  1.00 28.81    -0.219 NA
HETATM    7  N13   D T1240     -22.933   2.526  11.435  1.00 22.31    -0.127 N 
HETATM    8  N14   D T1240     -25.188   6.683  10.730  1.00 25.45    -0.060 NA
ENDROOT
BRANCH   4   9
HETATM    9  C7    D T1240     -20.349   3.800  11.925  1.00 23.16     0.000 A 
HETATM   10  C8    D T1240     -19.453   3.359  10.846  1.00 23.74     0.000 A 
HETATM   11  C9    D T1240     -18.216   2.657  11.086  1.00 22.05     0.007 A 
HETATM   12  C10   D T1240     -17.832   2.369  12.386  1.00 28.58     0.040 A 
HETATM   13  C11   D T1240     -18.686   2.792  13.516  1.00 23.69     0.064 A 
HETATM   14 CL1    D T1240     -16.448   1.551  12.749  1.00  5.79    -0.087 Cl
HETATM   15  C12   D T1240     -19.916   3.496  13.253  1.00 23.56    -0.020 A 
ENDBRANCH   4   9
BRANCH   5  16
HETATM   16  C15   D T1240     -20.477   6.879  11.853  1.00 31.62     0.046 C 
HETATM   17  C16   D T1240     -20.640   7.939  12.933  1.00 31.37     0.007 C 
ENDBRANCH   5  16
TORSDOF 2
ENDMDL
MODEL 4
REMARK VINA RESULT:    -6.532      3.837      6.064
REMARK INTER + INTRA:          -7.690
REMARK INTER:                  -7.190
REMARK INTRA:                  -0.500
REMARK UNBOUND:                -0.395
REMARK  2 active torsions:
REMARK  status: ('A' for Active; 'I' for Inactive)
REMARK    1  A    between atoms: C4_4  and  C7_7 
REMARK    2  A    between atoms: C5_5  and  C15_15 
ROOT
HETATM    1  N1    D T1240     -21.752   5.442  11.716  1.00 25.62    -0.194 NA
HETATM    2  C2    D T1240     -20.484   5.744  12.177  1.00 23.58     0.239 A 
HETATM    3  C3    D T1240     -22.248   4.121  11.878  1.00 22.29     0.187 A 
HETATM    4  C4    D T1240     -21.443   3.040  12.512  1.00 21.48     0.051 A 
HETATM    5  C5    D T1240     -20.093   3.525  12.978  1.00 26.18     0.065 A 
HETATM    6  N6    D T1240     -19.664   4.815  12.809  1.00 28.81    -0.219 NA
HETATM    7  N13   D T1240     -23.472   3.815  11.447  1.00 22.31    -0.127 N 
HETATM    8  N14   D T1240     -19.985   7.041  11.997  1.00 25.45    -0.060 NA
ENDROOT
BRANCH   4   9
HETATM    9  C7    D T1240     -21.919   1.657  12.660  1.00 23.16     0.000 A 
HETATM   10  C8    D T1240     -22.692   1.227  13.834  1.00 23.74     0.000 A 
HETATM   11  C9    D T1240     -23.189  -0.118  14.001  1.00 22.05     0.007 A 
HETATM   12  C10   D T1240     -22.936  -1.068  13.023  1.00 28.58     0.040 A 
HETATM   13  C11   D T1240     -22.171  -0.696  11.816  1.00 23.69     0.064 A 
HETATM   14 CL1    D T1240     -23.446  -2.631  13.144  1.00  5.79    -0.087 Cl
HETATM   15  C12   D T1240     -21.687   0.654  11.668  1.00 23.56    -0.020 A 
ENDBRANCH   4   9
BRANCH   5  16
HETATM   16  C15   D T1240     -19.151   2.568  13.668  1.00 31.62     0.046 C 
HETATM   17  C16   D T1240     -17.813   2.357  12.974  1.00 31.37     0.007 C 
ENDBRANCH   5  16
TORSDOF 2
ENDMDL
MODEL 5
REMARK VINA RESULT:    -6.212      2.519      4.069
REMARK INTER + INTRA:          -7.333
REMARK INTER:                  -6.851
REMARK INTRA:                  -0.481
REMARK UNBOUND:                -0.395
REMARK  2 active torsions:
REMARK  status: ('A' for Active; 'I' for Inactive)
REMARK    1  A    between atoms: C4_4  and  C7_7 
REMARK    2  A    between atoms: C5_5  and  C15_15 
ROOT
HETATM    1  N1    D T1240     -22.212   3.504  11.561  1.00 25.62    -0.194 NA
HETATM    2  C2    D T1240     -20.878   3.736  11.842  1.00 23.58     0.239 A 
HETATM    3  C3    D T1240     -23.084   4.614  11.392  1.00 22.29     0.187 A 
HETATM    4  C4    D T1240     -22.616   6.021  11.524  1.00 21.48     0.051 A 
HETATM    5  C5    D T1240     -21.139   6.113  11.812  1.00 26.18     0.065 A 
HETATM    6  N6    D T1240     -20.336   5.012  11.956  1.00 28.81    -0.219 NA
HETATM    7  N13   D T1240     -24.371   4.408  11.113  1.00 22.31    -0.127 N 
HETATM    8  N14   D T1240     -20.022   2.643  12.031  1.00 25.45    -0.060 NA
ENDROOT
BRANCH   4   9
HETATM    9  C7    D T1240     -23.504   7.185  11.388  1.00 23.16     0.000 A 
HETATM   10  C8    D T1240     -24.062   7.872  12.562  1.00 23.74     0.000 A 
HETATM   11  C9    D T1240     -24.922   9.027  12.465  1.00 22.05     0.007 A 
HETATM   12  C10   D T1240     -25.255   9.530  11.216  1.00 28.58     0.040 A 
HETATM   13  C11   D T1240     -24.720   8.889   9.998  1.00 23.69     0.064 A 
HETATM   14 CL1    D T1240     -26.249  10.830  11.013  1.00  5.79    -0.087 Cl
HETATM   15  C12   D T1240     -23.859   7.738  10.119  1.00 23.56    -0.020 A 
ENDBRANCH   4   9
BRANCH   5  16
HETATM   16  C15   D T1240     -20.486   7.468  11.953  1.00 31.62     0.046 C 
HETATM   17  C16   D T1240     -20.558   8.083  13.344  1.00 31.37     0.007 C 
ENDBRANCH   5  16
TORSDOF 2
ENDMDL
MODEL 6
REMARK VINA RESULT:    -6.176      4.103      6.255
REMARK INTER + INTRA:          -7.292
REMARK INTER:                  -6.742
REMARK INTRA:                  -0.551
REMARK UNBOUND:                -0.395
REMARK  2 active torsions:
REMARK  status: ('A' for Active; 'I' for Inactive)
REMARK    1  A    between atoms: C4_4  and  C7_7 
REMARK    2  A    between atoms: C5_5  and  C15_15 
ROOT
HETATM    1  N1    D T1240     -19.333   2.685  11.557  1.00 25.62    -0.194 NA
HETATM    2  C2    D T1240     -19.869   3.956  11.642  1.00 23.58     0.239 A 
HETATM    3  C3    D T1240     -20.202   1.563  11.640  1.00 22.29     0.187 A 
HETATM    4  C4    D T1240     -21.671   1.707  11.835  1.00 21.48     0.051 A 
HETATM    5  C5    D T1240     -22.107   3.149  11.892  1.00 26.18     0.065 A 
HETATM    6  N6    D T1240     -21.231   4.198  11.795  1.00 28.81    -0.219 NA
HETATM    7  N13   D T1240     -19.702   0.330  11.551  1.00 22.31    -0.127 N 
HETATM    8  N14   D T1240     -19.012   5.062  11.583  1.00 25.45    -0.060 NA
ENDROOT
BRANCH   4   9
HETATM    9  C7    D T1240     -22.587   0.563  11.960  1.00 23.16     0.000 A 
HETATM   10  C8    D T1240     -22.820  -0.103  13.250  1.00 23.74     0.000 A 
HETATM   11  C9    D T1240     -23.725  -1.216  13.410  1.00 22.05     0.007 A 
HETATM   12  C10   D T1240     -24.416  -1.701  12.310  1.00 28.58     0.040 A 
HETATM   13  C11   D T1240     -24.231  -1.069  10.988  1.00 23.69     0.064 A 
HETATM   14 CL1    D T1240     -25.450  -2.981  12.399  1.00  5.79    -0.087 Cl
HETATM   15  C12   D T1240     -23.324   0.044  10.851  1.00 23.56    -0.020 A 
ENDBRANCH   4   9
BRANCH   5  16
HETATM   16  C15   D T1240     -23.570   3.483  12.061  1.00 31.62     0.046 C 
HETATM   17  C16   D T1240     -24.347   3.674  10.766  1.00 31.37     0.007 C 
ENDBRANCH   5  16
TORSDOF 2
ENDMDL
MODEL 7
REMARK VINA RESULT:    -6.110      7.314      9.871
REMARK INTER + INTRA:          -7.219
REMARK INTER:                  -6.824
REMARK INTRA:                  -0.394
REMARK UNBOUND:                -0.395
REMARK  2 active torsions:
REMARK  status: ('A' for Active; 'I' for Inactive)
REMARK    1  A    between atoms: C4_4  and  C7_7 
REMARK    2  A    between atoms: C5_5  and  C15_15 
ROOT
HETATM    1  N1    D T1240     -24.913  -0.891   9.395  1.00 25.62    -0.194 NA
HETATM    2  C2    D T1240     -24.771   0.194  10.240  1.00 23.58     0.239 A 
HETATM    3  C3    D T1240     -24.620  -2.192   9.887  1.00 22.29     0.187 A 
HETATM    4  C4    D T1240     -24.148  -2.429  11.279  1.00 21.48     0.051 A 
HETATM    5  C5    D T1240     -24.060  -1.156  12.082  1.00 26.18     0.065 A 
HETATM    6  N6    D T1240     -24.364   0.076  11.566  1.00 28.81    -0.219 NA
HETATM    7  N13   D T1240     -24.760  -3.249   9.087  1.00 22.31    -0.127 N 
HETATM    8  N14   D T1240     -25.037   1.479   9.750  1.00 25.45    -0.060 NA
ENDROOT
BRANCH   4   9
HETATM    9  C7    D T1240     -23.805  -3.760  11.801  1.00 23.16     0.000 A 
HETATM   10  C8    D T1240     -22.411  -4.215  11.901  1.00 23.74     0.000 A 
HETATM   11  C9    D T1240     -22.040  -5.507  12.426  1.00 22.05     0.007 A 
HETATM   12  C10   D T1240     -23.026  -6.381  12.858  1.00 28.58     0.040 A 
HETATM   13  C11   D T1240     -24.446  -5.979  12.791  1.00 23.69     0.064 A 
HETATM   14 CL1    D T1240     -22.692  -7.883  13.449  1.00  5.79    -0.087 Cl
HETATM   15  C12   D T1240     -24.794  -4.681  12.267  1.00 23.56    -0.020 A 
ENDBRANCH   4   9
BRANCH   5  16
HETATM   16  C15   D T1240     -23.621  -1.211  13.526  1.00 31.62     0.046 C 
HETATM   17  C16   D T1240     -23.166   0.115  14.119  1.00 31.37     0.007 C 
ENDBRANCH   5  16
TORSDOF 2
ENDMDL
MODEL 8
REMARK VINA RESULT:    -6.095      3.652      5.947
REMARK INTER + INTRA:          -7.202
REMARK INTER:                  -6.948
REMARK INTRA:                  -0.253
REMARK UNBOUND:                -0.395
REMARK  2 active torsions:
REMARK  status: ('A' for Active; 'I' for Inactive)
REMARK    1  A    between atoms: C4_4  and  C7_7 
REMARK    2  A    between atoms: C5_5  and  C15_15 
ROOT
HETATM    1  N1    D T1240     -23.292   1.353  11.978  1.00 25.62    -0.194 NA
HETATM    2  C2    D T1240     -23.694   2.661  11.783  1.00 23.58     0.239 A 
HETATM    3  C3    D T1240     -21.903   1.066  12.080  1.00 22.29     0.187 A 
HETATM    4  C4    D T1240     -20.862   2.125  11.966  1.00 21.48     0.051 A 
HETATM    5  C5    D T1240     -21.454   3.498  11.774  1.00 26.18     0.065 A 
HETATM    6  N6    D T1240     -22.802   3.725  11.693  1.00 28.81    -0.219 NA
HETATM    7  N13   D T1240     -21.498  -0.189  12.276  1.00 22.31    -0.127 N 
HETATM    8  N14   D T1240     -25.061   2.942  11.661  1.00 25.45    -0.060 NA
ENDROOT
BRANCH   4   9
HETATM    9  C7    D T1240     -19.419   1.850  12.032  1.00 23.16     0.000 A 
HETATM   10  C8    D T1240     -18.728   1.088  10.981  1.00 23.74     0.000 A 
HETATM   11  C9    D T1240     -17.311   0.816  11.007  1.00 22.05     0.007 A 
HETATM   12  C10   D T1240     -16.543   1.282  12.063  1.00 28.58     0.040 A 
HETATM   13  C11   D T1240     -17.177   2.061  13.147  1.00 23.69     0.064 A 
HETATM   14 CL1    D T1240     -14.924   0.998  12.183  1.00  5.79    -0.087 Cl
HETATM   15  C12   D T1240     -18.594   2.323  13.099  1.00 23.56    -0.020 A 
ENDBRANCH   4   9
BRANCH   5  16
HETATM   16  C15   D T1240     -20.542   4.697  11.664  1.00 31.62     0.046 C 
HETATM   17  C16   D T1240     -20.523   5.613  12.879  1.00 31.37     0.007 C 
ENDBRANCH   5  16
TORSDOF 2
ENDMDL
MODEL 9
REMARK VINA RESULT:    -5.946      5.712      8.149
REMARK INTER + INTRA:          -7.035
REMARK INTER:                  -6.899
REMARK INTRA:                  -0.136
REMARK UNBOUND:                -0.395
REMARK  2 active torsions:
REMARK  status: ('A' for Active; 'I' for Inactive)
REMARK    1  A    between atoms: C4_4  and  C7_7 
REMARK    2  A    between atoms: C5_5  and  C15_15 
ROOT
HETATM    1  N1    D T1240     -24.727   2.468  10.080  1.00 25.62    -0.194 NA
HETATM    2  C2    D T1240     -24.230   3.307  11.060  1.00 23.58     0.239 A 
HETATM    3  C3    D T1240     -24.711   1.064  10.300  1.00 22.29     0.187 A 
HETATM    4  C4    D T1240     -24.162   0.461  11.546  1.00 21.48     0.051 A 
HETATM    5  C5    D T1240     -23.676   1.500  12.524  1.00 26.18     0.065 A 
HETATM    6  N6    D T1240     -23.722   2.845  12.270  1.00 28.81    -0.219 NA
HETATM    7  N13   D T1240     -25.193   0.241   9.369  1.00 22.31    -0.127 N 
HETATM    8  N14   D T1240     -24.224   4.689  10.834  1.00 25.45    -0.060 NA
ENDROOT
BRANCH   4   9
HETATM    9  C7    D T1240     -24.102  -0.989  11.784  1.00 23.16     0.000 A 
HETATM   10  C8    D T1240     -25.319  -1.809  11.875  1.00 23.74     0.000 A 
HETATM   11  C9    D T1240     -25.293  -3.236  12.089  1.00 22.05     0.007 A 
HETATM   12  C10   D T1240     -24.077  -3.888  12.223  1.00 28.58     0.040 A 
HETATM   13  C11   D T1240     -22.817  -3.121  12.133  1.00 23.69     0.064 A 
HETATM   14 CL1    D T1240     -23.957  -5.509  12.493  1.00  5.79    -0.087 Cl
HETATM   15  C12   D T1240     -22.866  -1.696  11.915  1.00 23.56    -0.020 A 
ENDBRANCH   4   9
BRANCH   5  16
HETATM   16  C15   D T1240     -23.109   1.067  13.856  1.00 31.62     0.046 C 
HETATM   17  C16   D T1240     -21.809   1.748  14.261  1.00 31.37     0.007 C 
ENDBRANCH   5  16
TORSDOF 2
ENDMDL
