MODEL 1
REMARK VINA RESULT:    -6.684      0.000      0.000
REMARK INTER + INTRA:          -7.936
REMARK INTER:                  -7.466
REMARK INTRA:                  -0.470
REMARK UNBOUND:                -0.470
REMARK  2 active torsions:
REMARK  status: ('A' for Active; 'I' for Inactive)
REMARK    1  A    between atoms: C4_4  and  C7_7 
REMARK    2  A    between atoms: C5_5  and  C15_15 
ROOT
HETATM    1  N1    D T1240      -9.713   2.801   0.219  1.00 25.62    -0.194 NA
HETATM    2  C2    D T1240     -10.305   1.555   0.310  1.00 23.58     0.239 A 
HETATM    3  C3    D T1240      -8.414   2.988   0.764  1.00 22.29     0.187 A 
HETATM    4  C4    D T1240      -7.673   1.891   1.447  1.00 21.48     0.051 A 
HETATM    5  C5    D T1240      -8.438   0.592   1.451  1.00 26.18     0.065 A 
HETATM    6  N6    D T1240      -9.687   0.459   0.901  1.00 28.81    -0.219 NA
HETATM    7  N13   D T1240      -7.824   4.179   0.678  1.00 22.31    -0.127 N 
HETATM    8  N14   D T1240     -11.596   1.375  -0.206  1.00 25.45    -0.060 NA
ENDROOT
BRANCH   4   9
HETATM    9  C7    D T1240      -6.343   2.068   2.050  1.00 23.16     0.000 A 
HETATM   10  C8    D T1240      -6.176   2.434   3.464  1.00 23.74     0.000 A 
HETATM   11  C9    D T1240      -4.887   2.599   4.088  1.00 22.05     0.007 A 
HETATM   12  C10   D T1240      -3.734   2.411   3.341  1.00 28.58     0.040 A 
HETATM   13  C11   D T1240      -3.834   2.033   1.917  1.00 23.69     0.064 A 
HETATM   14 CL1    D T1240      -2.221   2.599   3.970  1.00  5.79    -0.087 Cl
HETATM   15  C12   D T1240      -5.133   1.872   1.313  1.00 23.56    -0.020 A 
ENDBRANCH   4   9
BRANCH   5  16
HETATM   16  C15   D T1240      -7.825  -0.637   2.081  1.00 31.62     0.046 C 
HETATM   17  C16   D T1240      -8.026  -1.932   1.307  1.00 31.37     0.007 C 
ENDBRANCH   5  16
TORSDOF 2
ENDMDL
MODEL 2
REMARK VINA RESULT:    -6.590      1.524      3.057
REMARK INTER + INTRA:          -7.831
REMARK INTER:                  -7.255
REMARK INTRA:                  -0.575
REMARK UNBOUND:                -0.470
REMARK  2 active torsions:
REMARK  status: ('A' for Active; 'I' for Inactive)
REMARK    1  A    between atoms: C4_4  and  C7_7 
REMARK    2  A    between atoms: C5_5  and  C15_15 
ROOT
HETATM    1  N1    D T1240      -8.716  -0.130   1.871  1.00 25.62    -0.194 NA
HETATM    2  C2    D T1240      -9.210   0.637   0.833  1.00 23.58     0.239 A 
HETATM    3  C3    D T1240      -7.561   0.316   2.569  1.00 22.29     0.187 A 
HETATM    4  C4    D T1240      -6.853   1.576   2.209  1.00 21.48     0.051 A 
HETATM    5  C5    D T1240      -7.519   2.309   1.073  1.00 26.18     0.065 A 
HETATM    6  N6    D T1240      -8.640   1.842   0.438  1.00 28.81    -0.219 NA
HETATM    7  N13   D T1240      -7.076  -0.407   3.577  1.00 22.31    -0.127 N 
HETATM    8  N14   D T1240     -10.335   0.186   0.129  1.00 25.45    -0.060 NA
ENDROOT
BRANCH   4   9
HETATM    9  C7    D T1240      -5.636   2.042   2.893  1.00 23.16     0.000 A 
HETATM   10  C8    D T1240      -4.294   1.674   2.420  1.00 23.74     0.000 A 
HETATM   11  C9    D T1240      -3.082   2.127   3.057  1.00 22.05     0.007 A 
HETATM   12  C10   D T1240      -3.160   2.948   4.172  1.00 28.58     0.040 A 
HETATM   13  C11   D T1240      -4.479   3.359   4.693  1.00 23.69     0.064 A 
HETATM   14 CL1    D T1240      -1.826   3.494   4.975  1.00  5.79    -0.087 Cl
HETATM   15  C12   D T1240      -5.678   2.896   4.038  1.00 23.56    -0.020 A 
ENDBRANCH   4   9
BRANCH   5  16
HETATM   16  C15   D T1240      -6.948   3.623   0.592  1.00 31.62     0.046 C 
HETATM   17  C16   D T1240      -5.912   3.513  -0.517  1.00 31.37     0.007 C 
ENDBRANCH   5  16
TORSDOF 2
ENDMDL
MODEL 3
REMARK VINA RESULT:    -6.507      3.705      5.854
REMARK INTER + INTRA:          -7.737
REMARK INTER:                  -7.500
REMARK INTRA:                  -0.237
REMARK UNBOUND:                -0.470
REMARK  2 active torsions:
REMARK  status: ('A' for Active; 'I' for Inactive)
REMARK    1  A    between atoms: C4_4  and  C7_7 
REMARK    2  A    between atoms: C5_5  and  C15_15 
ROOT
HETATM    1  N1    D T1240      -5.555   2.765   4.203  1.00 25.62    -0.194 NA
HETATM    2  C2    D T1240      -4.949   3.585   3.270  1.00 23.58     0.239 A 
HETATM    3  C3    D T1240      -6.456   1.760   3.757  1.00 22.29     0.187 A 
HETATM    4  C4    D T1240      -6.786   1.571   2.317  1.00 21.48     0.051 A 
HETATM    5  C5    D T1240      -6.036   2.525   1.423  1.00 26.18     0.065 A 
HETATM    6  N6    D T1240      -5.167   3.471   1.901  1.00 28.81    -0.219 NA
HETATM    7  N13   D T1240      -7.042   0.955   4.642  1.00 22.31    -0.127 N 
HETATM    8  N14   D T1240      -4.078   4.590   3.711  1.00 25.45    -0.060 NA
ENDROOT
BRANCH   4   9
HETATM    9  C7    D T1240      -7.741   0.563   1.833  1.00 23.16     0.000 A 
HETATM   10  C8    D T1240      -7.438  -0.876   1.879  1.00 23.74     0.000 A 
HETATM   11  C9    D T1240      -8.359  -1.889   1.428  1.00 22.05     0.007 A 
HETATM   12  C10   D T1240      -9.594  -1.517   0.920  1.00 28.58     0.040 A 
HETATM   13  C11   D T1240      -9.962  -0.088   0.854  1.00 23.69     0.064 A 
HETATM   14 CL1    D T1240     -10.697  -2.608   0.362  1.00  5.79    -0.087 Cl
HETATM   15  C12   D T1240      -9.026   0.909   1.312  1.00 23.56    -0.020 A 
ENDBRANCH   4   9
BRANCH   5  16
HETATM   16  C15   D T1240      -6.229   2.458  -0.074  1.00 31.62     0.046 C 
HETATM   17  C16   D T1240      -5.411   3.457  -0.880  1.00 31.37     0.007 C 
ENDBRANCH   5  16
TORSDOF 2
ENDMDL
MODEL 4
REMARK VINA RESULT:    -6.499      3.423      4.685
REMARK INTER + INTRA:          -7.729
REMARK INTER:                  -7.233
REMARK INTRA:                  -0.496
REMARK UNBOUND:                -0.470
REMARK  2 active torsions:
REMARK  status: ('A' for Active; 'I' for Inactive)
REMARK    1  A    between atoms: C4_4  and  C7_7 
REMARK    2  A    between atoms: C5_5  and  C15_15 
ROOT
HETATM    1  N1    D T1240      -8.099   0.931   1.307  1.00 25.62    -0.194 NA
HETATM    2  C2    D T1240      -7.063   0.175   1.823  1.00 23.58     0.239 A 
HETATM    3  C3    D T1240      -7.823   2.236   0.817  1.00 22.29     0.187 A 
HETATM    4  C4    D T1240      -6.457   2.827   0.855  1.00 21.48     0.051 A 
HETATM    5  C5    D T1240      -5.433   1.879   1.427  1.00 26.18     0.065 A 
HETATM    6  N6    D T1240      -5.747   0.623   1.877  1.00 28.81    -0.219 NA
HETATM    7  N13   D T1240      -8.808   2.975   0.309  1.00 22.31    -0.127 N 
HETATM    8  N14   D T1240      -7.338  -1.103   2.328  1.00 25.45    -0.060 NA
ENDROOT
BRANCH   4   9
HETATM    9  C7    D T1240      -6.151   4.187   0.386  1.00 23.16     0.000 A 
HETATM   10  C8    D T1240      -5.844   4.470  -1.023  1.00 23.74     0.000 A 
HETATM   11  C9    D T1240      -5.557   5.793  -1.517  1.00 22.05     0.007 A 
HETATM   12  C10   D T1240      -5.563   6.868  -0.641  1.00 28.58     0.040 A 
HETATM   13  C11   D T1240      -5.872   6.652   0.787  1.00 23.69     0.064 A 
HETATM   14 CL1    D T1240      -5.225   8.411  -1.117  1.00  5.79    -0.087 Cl
HETATM   15  C12   D T1240      -6.158   5.320   1.258  1.00 23.56    -0.020 A 
ENDBRANCH   4   9
BRANCH   5  16
HETATM   16  C15   D T1240      -3.987   2.304   1.518  1.00 31.62     0.046 C 
HETATM   17  C16   D T1240      -3.407   2.337   2.925  1.00 31.37     0.007 C 
ENDBRANCH   5  16
TORSDOF 2
ENDMDL
MODEL 5
REMARK VINA RESULT:    -6.333      3.775      5.251
REMARK INTER + INTRA:          -7.543
REMARK INTER:                  -7.097
REMARK INTRA:                  -0.446
REMARK UNBOUND:                -0.470
REMARK  2 active torsions:
REMARK  status: ('A' for Active; 'I' for Inactive)
REMARK    1  A    between atoms: C4_4  and  C7_7 
REMARK    2  A    between atoms: C5_5  and  C15_15 
ROOT
HETATM    1  N1    D T1240      -7.382   1.250   1.958  1.00 25.62    -0.194 NA
HETATM    2  C2    D T1240      -6.464   1.081   2.977  1.00 23.58     0.239 A 
HETATM    3  C3    D T1240      -7.344   2.442   1.186  1.00 22.29     0.187 A 
HETATM    4  C4    D T1240      -6.356   3.527   1.447  1.00 21.48     0.051 A 
HETATM    5  C5    D T1240      -5.413   3.190   2.573  1.00 26.18     0.065 A 
HETATM    6  N6    D T1240      -5.484   2.020   3.283  1.00 28.81    -0.219 NA
HETATM    7  N13   D T1240      -8.215   2.618   0.194  1.00 22.31    -0.127 N 
HETATM    8  N14   D T1240      -6.516  -0.084   3.755  1.00 25.45    -0.060 NA
ENDROOT
BRANCH   4   9
HETATM    9  C7    D T1240      -6.318   4.784   0.685  1.00 23.16     0.000 A 
HETATM   10  C8    D T1240      -7.098   5.962   1.094  1.00 23.74     0.000 A 
HETATM   11  C9    D T1240      -7.069   7.213   0.379  1.00 22.05     0.007 A 
HETATM   12  C10   D T1240      -6.278   7.338  -0.754  1.00 28.58     0.040 A 
HETATM   13  C11   D T1240      -5.464   6.194  -1.213  1.00 23.69     0.064 A 
HETATM   14 CL1    D T1240      -6.202   8.724  -1.643  1.00  5.79    -0.087 Cl
HETATM   15  C12   D T1240      -5.507   4.952  -0.481  1.00 23.56    -0.020 A 
ENDBRANCH   4   9
BRANCH   5  16
HETATM   16  C15   D T1240      -4.328   4.168   2.959  1.00 31.62     0.046 C 
HETATM   17  C16   D T1240      -3.514   3.783   4.186  1.00 31.37     0.007 C 
ENDBRANCH   5  16
TORSDOF 2
ENDMDL
MODEL 6
REMARK VINA RESULT:    -6.320      2.438      3.637
REMARK INTER + INTRA:          -7.529
REMARK INTER:                  -7.161
REMARK INTRA:                  -0.368
REMARK UNBOUND:                -0.470
REMARK  2 active torsions:
REMARK  status: ('A' for Active; 'I' for Inactive)
REMARK    1  A    between atoms: C4_4  and  C7_7 
REMARK    2  A    between atoms: C5_5  and  C15_15 
ROOT
HETATM    1  N1    D T1240      -8.332  -1.935   1.586  1.00 25.62    -0.194 NA
HETATM    2  C2    D T1240      -9.600  -1.819   1.048  1.00 23.58     0.239 A 
HETATM    3  C3    D T1240      -7.542  -0.765   1.750  1.00 22.29     0.187 A 
HETATM    4  C4    D T1240      -8.027   0.584   1.346  1.00 21.48     0.051 A 
HETATM    5  C5    D T1240      -9.430   0.553   0.794  1.00 26.18     0.065 A 
HETATM    6  N6    D T1240     -10.156  -0.602   0.666  1.00 28.81    -0.219 NA
HETATM    7  N13   D T1240      -6.321  -0.858   2.275  1.00 22.31    -0.127 N 
HETATM    8  N14   D T1240     -10.371  -2.974   0.864  1.00 25.45    -0.060 NA
ENDROOT
BRANCH   4   9
HETATM    9  C7    D T1240      -7.216   1.805   1.473  1.00 23.16     0.000 A 
HETATM   10  C8    D T1240      -6.550   2.415   0.313  1.00 23.74     0.000 A 
HETATM   11  C9    D T1240      -5.763   3.620   0.401  1.00 22.05     0.007 A 
HETATM   12  C10   D T1240      -5.609   4.251   1.626  1.00 28.58     0.040 A 
HETATM   13  C11   D T1240      -6.260   3.692   2.829  1.00 23.69     0.064 A 
HETATM   14 CL1    D T1240      -4.709   5.619   1.821  1.00  5.79    -0.087 Cl
HETATM   15  C12   D T1240      -7.044   2.487   2.717  1.00 23.56    -0.020 A 
ENDBRANCH   4   9
BRANCH   5  16
HETATM   16  C15   D T1240     -10.091   1.838   0.357  1.00 31.62     0.046 C 
HETATM   17  C16   D T1240     -11.612   1.842   0.427  1.00 31.37     0.007 C 
ENDBRANCH   5  16
TORSDOF 2
ENDMDL
MODEL 7
REMARK VINA RESULT:    -6.278      4.209      6.905
REMARK INTER + INTRA:          -7.482
REMARK INTER:                  -7.041
REMARK INTRA:                  -0.441
REMARK UNBOUND:                -0.470
REMARK  2 active torsions:
REMARK  status: ('A' for Active; 'I' for Inactive)
REMARK    1  A    between atoms: C4_4  and  C7_7 
REMARK    2  A    between atoms: C5_5  and  C15_15 
ROOT
HETATM    1  N1    D T1240      -6.573  -0.355   1.925  1.00 25.62    -0.194 NA
HETATM    2  C2    D T1240      -6.344   1.008   1.906  1.00 23.58     0.239 A 
HETATM    3  C3    D T1240      -7.798  -0.856   1.410  1.00 22.29     0.187 A 
HETATM    4  C4    D T1240      -8.856   0.039   0.863  1.00 21.48     0.051 A 
HETATM    5  C5    D T1240      -8.455   1.492   0.892  1.00 26.18     0.065 A 
HETATM    6  N6    D T1240      -7.254   1.926   1.391  1.00 28.81    -0.219 NA
HETATM    7  N13   D T1240      -8.032  -2.167   1.413  1.00 22.31    -0.127 N 
HETATM    8  N14   D T1240      -5.146   1.505   2.435  1.00 25.45    -0.060 NA
ENDROOT
BRANCH   4   9
HETATM    9  C7    D T1240     -10.147  -0.451   0.356  1.00 23.16     0.000 A 
HETATM   10  C8    D T1240     -10.321  -0.867  -1.044  1.00 23.74     0.000 A 
HETATM   11  C9    D T1240     -11.567  -1.368  -1.567  1.00 22.05     0.007 A 
HETATM   12  C10   D T1240     -12.670  -1.469  -0.733  1.00 28.58     0.040 A 
HETATM   13  C11   D T1240     -12.559  -1.074   0.685  1.00 23.69     0.064 A 
HETATM   14 CL1    D T1240     -14.139  -2.009  -1.255  1.00  5.79    -0.087 Cl
HETATM   15  C12   D T1240     -11.302  -0.578   1.188  1.00 23.56    -0.020 A 
ENDBRANCH   4   9
BRANCH   5  16
HETATM   16  C15   D T1240      -9.398   2.541   0.352  1.00 31.62     0.046 C 
HETATM   17  C16   D T1240      -8.825   3.948   0.267  1.00 31.37     0.007 C 
ENDBRANCH   5  16
TORSDOF 2
ENDMDL
MODEL 8
REMARK VINA RESULT:    -6.244      6.788      7.787
REMARK INTER + INTRA:          -7.444
REMARK INTER:                  -7.007
REMARK INTRA:                  -0.437
REMARK UNBOUND:                -0.470
REMARK  2 active torsions:
REMARK  status: ('A' for Active; 'I' for Inactive)
REMARK    1  A    between atoms: C4_4  and  C7_7 
REMARK    2  A    between atoms: C5_5  and  C15_15 
ROOT
HETATM    1  N1    D T1240      -9.020   8.107   0.586  1.00 25.62    -0.194 NA
HETATM    2  C2    D T1240      -8.899   6.836   0.057  1.00 23.58     0.239 A 
HETATM    3  C3    D T1240      -7.938   9.017   0.449  1.00 22.29     0.187 A 
HETATM    4  C4    D T1240      -6.667   8.644  -0.232  1.00 21.48     0.051 A 
HETATM    5  C5    D T1240      -6.692   7.236  -0.770  1.00 26.18     0.065 A 
HETATM    6  N6    D T1240      -7.767   6.398  -0.622  1.00 28.81    -0.219 NA
HETATM    7  N13   D T1240      -8.040  10.249   0.945  1.00 22.31    -0.127 N 
HETATM    8  N14   D T1240      -9.957   5.930   0.213  1.00 25.45    -0.060 NA
ENDROOT
BRANCH   4   9
HETATM    9  C7    D T1240      -5.519   9.555  -0.357  1.00 23.16     0.000 A 
HETATM   10  C8    D T1240      -4.407   9.536   0.605  1.00 23.74     0.000 A 
HETATM   11  C9    D T1240      -3.261  10.404   0.501  1.00 22.05     0.007 A 
HETATM   12  C10   D T1240      -3.180  11.311  -0.544  1.00 28.58     0.040 A 
HETATM   13  C11   D T1240      -4.261  11.375  -1.549  1.00 23.69     0.064 A 
HETATM   14 CL1    D T1240      -1.916  12.355  -0.726  1.00  5.79    -0.087 Cl
HETATM   15  C12   D T1240      -5.397  10.495  -1.426  1.00 23.56    -0.020 A 
ENDBRANCH   4   9
BRANCH   5  16
HETATM   16  C15   D T1240      -5.493   6.696  -1.514  1.00 31.62     0.046 C 
HETATM   17  C16   D T1240      -5.433   5.180  -1.637  1.00 31.37     0.007 C 
ENDBRANCH   5  16
TORSDOF 2
ENDMDL
MODEL 9
REMARK VINA RESULT:    -6.054      3.279      4.446
REMARK INTER + INTRA:          -7.232
REMARK INTER:                  -6.800
REMARK INTRA:                  -0.432
REMARK UNBOUND:                -0.470
REMARK  2 active torsions:
REMARK  status: ('A' for Active; 'I' for Inactive)
REMARK    1  A    between atoms: C4_4  and  C7_7 
REMARK    2  A    between atoms: C5_5  and  C15_15 
ROOT
HETATM    1  N1    D T1240      -6.315   0.185   1.836  1.00 25.62    -0.194 NA
HETATM    2  C2    D T1240      -7.636  -0.198   1.698  1.00 23.58     0.239 A 
HETATM    3  C3    D T1240      -5.932   1.495   1.439  1.00 22.29     0.187 A 
HETATM    4  C4    D T1240      -6.903   2.466   0.862  1.00 21.48     0.051 A 
HETATM    5  C5    D T1240      -8.303   1.911   0.791  1.00 26.18     0.065 A 
HETATM    6  N6    D T1240      -8.625   0.643   1.198  1.00 28.81    -0.219 NA
HETATM    7  N13   D T1240      -4.666   1.884   1.572  1.00 22.31    -0.127 N 
HETATM    8  N14   D T1240      -8.010  -1.497   2.067  1.00 25.45    -0.060 NA
ENDROOT
BRANCH   4   9
HETATM    9  C7    D T1240      -6.526   3.815   0.411  1.00 23.16     0.000 A 
HETATM   10  C8    D T1240      -6.006   4.062  -0.942  1.00 23.74     0.000 A 
HETATM   11  C9    D T1240      -5.643   5.373  -1.420  1.00 22.05     0.007 A 
HETATM   12  C10   D T1240      -5.778   6.469  -0.581  1.00 28.58     0.040 A 
HETATM   13  C11   D T1240      -6.301   6.289   0.788  1.00 23.69     0.064 A 
HETATM   14 CL1    D T1240      -5.366   7.999  -1.038  1.00  5.79    -0.087 Cl
HETATM   15  C12   D T1240      -6.660   4.969   1.244  1.00 23.56    -0.020 A 
ENDBRANCH   4   9
BRANCH   5  16
HETATM   16  C15   D T1240      -9.423   2.771   0.255  1.00 31.62     0.046 C 
HETATM   17  C16   D T1240     -10.819   2.177   0.390  1.00 31.37     0.007 C 
ENDBRANCH   5  16
TORSDOF 2
ENDMDL
