MODEL 1
REMARK VINA RESULT:      -6.9      0.000      0.000
REMARK  2 active torsions:
REMARK  status: ('A' for Active; 'I' for Inactive)
REMARK    1  A    between atoms: C4_4  and  C7_7 
REMARK    2  A    between atoms: C5_5  and  C15_15 
ROOT
HETATM    1  N1    D T1240      91.710  10.189  37.896  1.00 25.62    -0.194 NA
HETATM    2  C2    D T1240      91.703   8.809  37.810  1.00 23.58     0.239 A 
HETATM    3  C3    D T1240      91.254  10.951  36.787  1.00 22.29     0.187 A 
HETATM    4  C4    D T1240      90.785  10.316  35.524  1.00 21.48     0.051 A 
HETATM    5  C5    D T1240      90.818   8.811  35.588  1.00 26.18     0.065 A 
HETATM    6  N6    D T1240      91.257   8.119  36.687  1.00 28.81    -0.219 NA
HETATM    7  N13   D T1240      91.246  12.282  36.856  1.00 22.31    -0.127 N 
HETATM    8  N14   D T1240      92.173   8.057  38.894  1.00 25.45    -0.060 NA
ENDROOT
BRANCH   4   9
HETATM    9  C7    D T1240      90.342  11.083  34.350  1.00 23.16     0.000 A 
HETATM   10  C8    D T1240      88.937  11.480  34.170  1.00 23.74     0.000 A 
HETATM   11  C9    D T1240      88.475  12.247  33.039  1.00 22.05     0.007 A 
HETATM   12  C10   D T1240      89.376  12.638  32.060  1.00 28.58     0.040 A 
HETATM   13  C11   D T1240      90.802  12.277  32.187  1.00 23.69     0.064 A 
HETATM   14 CL1    D T1240      88.928  13.496  30.725  1.00  5.79    -0.087 Cl
HETATM   15  C12   D T1240      91.243  11.513  33.327  1.00 23.56    -0.020 A 
ENDBRANCH   4   9
BRANCH   5  16
HETATM   16  C15   D T1240      90.352   8.000  34.402  1.00 31.62     0.046 C 
HETATM   17  C16   D T1240      90.416   6.490  34.582  1.00 31.37     0.007 C 
ENDBRANCH   5  16
TORSDOF 2
ENDMDL
MODEL 2
REMARK VINA RESULT:      -6.8      1.209      2.768
REMARK  2 active torsions:
REMARK  status: ('A' for Active; 'I' for Inactive)
REMARK    1  A    between atoms: C4_4  and  C7_7 
REMARK    2  A    between atoms: C5_5  and  C15_15 
ROOT
HETATM    1  N1    D T1240      91.214   8.286  36.091  1.00 25.62    -0.194 NA
HETATM    2  C2    D T1240      91.406   8.923  37.303  1.00 23.58     0.239 A 
HETATM    3  C3    D T1240      90.869   9.061  34.951  1.00 22.29     0.187 A 
HETATM    4  C4    D T1240      90.690  10.538  35.019  1.00 21.48     0.051 A 
HETATM    5  C5    D T1240      90.950  11.089  36.398  1.00 26.18     0.065 A 
HETATM    6  N6    D T1240      91.291  10.300  37.465  1.00 28.81    -0.219 NA
HETATM    7  N13   D T1240      90.689   8.465  33.773  1.00 22.31    -0.127 N 
HETATM    8  N14   D T1240      91.723   8.157  38.432  1.00 25.45    -0.060 NA
ENDROOT
BRANCH   4   9
HETATM    9  C7    D T1240      90.300  11.358  33.862  1.00 23.16     0.000 A 
HETATM   10  C8    D T1240      88.892  11.540  33.481  1.00 23.74     0.000 A 
HETATM   11  C9    D T1240      88.477  12.352  32.363  1.00 22.05     0.007 A 
HETATM   12  C10   D T1240      89.432  13.000  31.594  1.00 28.58     0.040 A 
HETATM   13  C11   D T1240      90.864  12.864  31.930  1.00 23.69     0.064 A 
HETATM   14 CL1    D T1240      89.046  13.928  30.287  1.00  5.79    -0.087 Cl
HETATM   15  C12   D T1240      91.256  12.049  33.054  1.00 23.56    -0.020 A 
ENDBRANCH   4   9
BRANCH   5  16
HETATM   16  C15   D T1240      90.838  12.574  36.644  1.00 31.62     0.046 C 
HETATM   17  C16   D T1240      89.469  13.056  37.104  1.00 31.37     0.007 C 
ENDBRANCH   5  16
TORSDOF 2
ENDMDL
MODEL 3
REMARK VINA RESULT:      -6.8      3.736      6.174
REMARK  2 active torsions:
REMARK  status: ('A' for Active; 'I' for Inactive)
REMARK    1  A    between atoms: C4_4  and  C7_7 
REMARK    2  A    between atoms: C5_5  and  C15_15 
ROOT
HETATM    1  N1    D T1240      90.787  10.792  32.471  1.00 25.62    -0.194 NA
HETATM    2  C2    D T1240      89.959  11.883  32.656  1.00 23.58     0.239 A 
HETATM    3  C3    D T1240      91.037   9.923  33.568  1.00 22.29     0.187 A 
HETATM    4  C4    D T1240      90.451  10.155  34.917  1.00 21.48     0.051 A 
HETATM    5  C5    D T1240      89.558  11.369  34.957  1.00 26.18     0.065 A 
HETATM    6  N6    D T1240      89.339  12.172  33.867  1.00 28.81    -0.219 NA
HETATM    7  N13   D T1240      91.827   8.861  33.406  1.00 22.31    -0.127 N 
HETATM    8  N14   D T1240      89.730  12.753  31.582  1.00 25.45    -0.060 NA
ENDROOT
BRANCH   4   9
HETATM    9  C7    D T1240      90.721   9.291  36.075  1.00 23.16     0.000 A 
HETATM   10  C8    D T1240      91.722   9.648  37.091  1.00 23.74     0.000 A 
HETATM   11  C9    D T1240      91.998   8.831  38.247  1.00 22.05     0.007 A 
HETATM   12  C10   D T1240      91.302   7.646  38.431  1.00 28.58     0.040 A 
HETATM   13  C11   D T1240      90.277   7.234  37.450  1.00 23.69     0.064 A 
HETATM   14 CL1    D T1240      91.570   6.641  39.711  1.00  5.79    -0.087 Cl
HETATM   15  C12   D T1240      90.016   8.068  36.303  1.00 23.56    -0.020 A 
ENDBRANCH   4   9
BRANCH   5  16
HETATM   16  C15   D T1240      88.858  11.742  36.242  1.00 31.62     0.046 C 
HETATM   17  C16   D T1240      87.648  12.651  36.082  1.00 31.37     0.007 C 
ENDBRANCH   5  16
TORSDOF 2
ENDMDL
MODEL 4
REMARK VINA RESULT:      -6.7      3.681      5.699
REMARK  2 active torsions:
REMARK  status: ('A' for Active; 'I' for Inactive)
REMARK    1  A    between atoms: C4_4  and  C7_7 
REMARK    2  A    between atoms: C5_5  and  C15_15 
ROOT
HETATM    1  N1    D T1240      88.572  12.452  33.926  1.00 25.62    -0.194 NA
HETATM    2  C2    D T1240      88.991  12.134  32.648  1.00 23.58     0.239 A 
HETATM    3  C3    D T1240      89.029  11.666  35.018  1.00 22.29     0.187 A 
HETATM    4  C4    D T1240      89.932  10.496  34.832  1.00 21.48     0.051 A 
HETATM    5  C5    D T1240      90.316  10.286  33.389  1.00 26.18     0.065 A 
HETATM    6  N6    D T1240      89.857  11.081  32.371  1.00 28.81    -0.219 NA
HETATM    7  N13   D T1240      88.642  11.963  36.258  1.00 22.31    -0.127 N 
HETATM    8  N14   D T1240      88.524  12.895  31.569  1.00 25.45    -0.060 NA
ENDROOT
BRANCH   4   9
HETATM    9  C7    D T1240      90.391   9.645  35.940  1.00 23.16     0.000 A 
HETATM   10  C8    D T1240      89.852   8.295  36.155  1.00 23.74     0.000 A 
HETATM   11  C9    D T1240      90.294   7.430  37.222  1.00 22.05     0.007 A 
HETATM   12  C10   D T1240      91.271   7.871  38.101  1.00 28.58     0.040 A 
HETATM   13  C11   D T1240      91.859   9.215  37.935  1.00 23.69     0.064 A 
HETATM   14 CL1    D T1240      91.817   6.957  39.361  1.00  5.79    -0.087 Cl
HETATM   15  C12   D T1240      91.404  10.062  36.860  1.00 23.56    -0.020 A 
ENDBRANCH   4   9
BRANCH   5  16
HETATM   16  C15   D T1240      91.249   9.158  33.019  1.00 31.62     0.046 C 
HETATM   17  C16   D T1240      92.685   9.570  32.731  1.00 31.37     0.007 C 
ENDBRANCH   5  16
TORSDOF 2
ENDMDL
MODEL 5
REMARK VINA RESULT:      -6.6      3.667      6.061
REMARK  2 active torsions:
REMARK  status: ('A' for Active; 'I' for Inactive)
REMARK    1  A    between atoms: C4_4  and  C7_7 
REMARK    2  A    between atoms: C5_5  and  C15_15 
ROOT
HETATM    1  N1    D T1240      90.747  11.676  32.293  1.00 25.62    -0.194 NA
HETATM    2  C2    D T1240      89.826  12.683  32.514  1.00 23.58     0.239 A 
HETATM    3  C3    D T1240      90.968  10.708  33.310  1.00 22.29     0.187 A 
HETATM    4  C4    D T1240      90.253  10.750  34.616  1.00 21.48     0.051 A 
HETATM    5  C5    D T1240      89.272  11.891  34.701  1.00 26.18     0.065 A 
HETATM    6  N6    D T1240      89.086  12.794  33.686  1.00 28.81    -0.219 NA
HETATM    7  N13   D T1240      91.846   9.726  33.111  1.00 22.31    -0.127 N 
HETATM    8  N14   D T1240      89.624  13.650  31.521  1.00 25.45    -0.060 NA
ENDROOT
BRANCH   4   9
HETATM    9  C7    D T1240      90.489   9.781  35.697  1.00 23.16     0.000 A 
HETATM   10  C8    D T1240      89.797   8.485  35.739  1.00 23.74     0.000 A 
HETATM   11  C9    D T1240      90.019   7.507  36.776  1.00 22.05     0.007 A 
HETATM   12  C10   D T1240      90.920   7.779  37.794  1.00 28.58     0.040 A 
HETATM   13  C11   D T1240      91.653   9.061  37.805  1.00 23.69     0.064 A 
HETATM   14 CL1    D T1240      91.217   6.727  39.029  1.00  5.79    -0.087 Cl
HETATM   15  C12   D T1240      91.417  10.023  36.757  1.00 23.56    -0.020 A 
ENDBRANCH   4   9
BRANCH   5  16
HETATM   16  C15   D T1240      88.439  12.071  35.948  1.00 31.62     0.046 C 
HETATM   17  C16   D T1240      88.528  13.446  36.595  1.00 31.37     0.007 C 
ENDBRANCH   5  16
TORSDOF 2
ENDMDL
MODEL 6
REMARK VINA RESULT:      -6.6      3.871      6.539
REMARK  2 active torsions:
REMARK  status: ('A' for Active; 'I' for Inactive)
REMARK    1  A    between atoms: C4_4  and  C7_7 
REMARK    2  A    between atoms: C5_5  and  C15_15 
ROOT
HETATM    1  N1    D T1240      89.766   9.857  33.996  1.00 25.62    -0.194 NA
HETATM    2  C2    D T1240      89.931  11.154  34.443  1.00 23.58     0.239 A 
HETATM    3  C3    D T1240      90.216   8.784  34.811  1.00 22.29     0.187 A 
HETATM    4  C4    D T1240      90.878   9.008  36.127  1.00 21.48     0.051 A 
HETATM    5  C5    D T1240      90.970  10.469  36.485  1.00 26.18     0.065 A 
HETATM    6  N6    D T1240      90.510  11.469  35.668  1.00 28.81    -0.219 NA
HETATM    7  N13   D T1240      90.057   7.526  34.400  1.00 22.31    -0.127 N 
HETATM    8  N14   D T1240      89.508  12.214  33.630  1.00 25.45    -0.060 NA
ENDROOT
BRANCH   4   9
HETATM    9  C7    D T1240      91.384   7.917  36.973  1.00 23.16     0.000 A 
HETATM   10  C8    D T1240      90.506   7.182  37.896  1.00 23.74     0.000 A 
HETATM   11  C9    D T1240      90.968   6.097  38.725  1.00 22.05     0.007 A 
HETATM   12  C10   D T1240      92.299   5.710  38.671  1.00 28.58     0.040 A 
HETATM   13  C11   D T1240      93.230   6.403  37.759  1.00 23.69     0.064 A 
HETATM   14 CL1    D T1240      92.915   4.495  39.601  1.00  5.79    -0.087 Cl
HETATM   15  C12   D T1240      92.746   7.484  36.936  1.00 23.56    -0.020 A 
ENDBRANCH   4   9
BRANCH   5  16
HETATM   16  C15   D T1240      91.591  10.880  37.798  1.00 31.62     0.046 C 
HETATM   17  C16   D T1240      91.842  12.373  37.959  1.00 31.37     0.007 C 
ENDBRANCH   5  16
TORSDOF 2
ENDMDL
MODEL 7
REMARK VINA RESULT:      -6.6      4.012      6.182
REMARK  2 active torsions:
REMARK  status: ('A' for Active; 'I' for Inactive)
REMARK    1  A    between atoms: C4_4  and  C7_7 
REMARK    2  A    between atoms: C5_5  and  C15_15 
ROOT
HETATM    1  N1    D T1240      91.202  11.738  37.055  1.00 25.62    -0.194 NA
HETATM    2  C2    D T1240      90.227  11.661  36.079  1.00 23.58     0.239 A 
HETATM    3  C3    D T1240      91.726  10.535  37.602  1.00 22.29     0.187 A 
HETATM    4  C4    D T1240      91.248   9.191  37.172  1.00 21.48     0.051 A 
HETATM    5  C5    D T1240      90.200   9.270  36.092  1.00 26.18     0.065 A 
HETATM    6  N6    D T1240      89.734  10.456  35.588  1.00 28.81    -0.219 NA
HETATM    7  N13   D T1240      92.673  10.590  38.538  1.00 22.31    -0.127 N 
HETATM    8  N14   D T1240      89.693  12.846  35.555  1.00 25.45    -0.060 NA
ENDROOT
BRANCH   4   9
HETATM    9  C7    D T1240      91.749   7.934  37.746  1.00 23.16     0.000 A 
HETATM   10  C8    D T1240      91.113   7.308  38.915  1.00 23.74     0.000 A 
HETATM   11  C9    D T1240      91.570   6.067  39.491  1.00 22.05     0.007 A 
HETATM   12  C10   D T1240      92.660   5.414  38.936  1.00 28.58     0.040 A 
HETATM   13  C11   D T1240      93.339   5.987  37.756  1.00 23.69     0.064 A 
HETATM   14 CL1    D T1240      93.262   4.005  39.545  1.00  5.79    -0.087 Cl
HETATM   15  C12   D T1240      92.864   7.228  37.196  1.00 23.56    -0.020 A 
ENDBRANCH   4   9
BRANCH   5  16
HETATM   16  C15   D T1240      89.619   7.999  35.518  1.00 31.62     0.046 C 
HETATM   17  C16   D T1240      90.376   7.416  34.333  1.00 31.37     0.007 C 
ENDBRANCH   5  16
TORSDOF 2
ENDMDL
MODEL 8
REMARK VINA RESULT:      -6.5      3.607      5.054
REMARK  2 active torsions:
REMARK  status: ('A' for Active; 'I' for Inactive)
REMARK    1  A    between atoms: C4_4  and  C7_7 
REMARK    2  A    between atoms: C5_5  and  C15_15 
ROOT
HETATM    1  N1    D T1240      90.843   9.560  34.505  1.00 25.62    -0.194 NA
HETATM    2  C2    D T1240      90.648   9.817  33.161  1.00 23.58     0.239 A 
HETATM    3  C3    D T1240      90.600  10.596  35.446  1.00 22.29     0.187 A 
HETATM    4  C4    D T1240      90.160  11.958  35.035  1.00 21.48     0.051 A 
HETATM    5  C5    D T1240      89.974  12.079  33.544  1.00 26.18     0.065 A 
HETATM    6  N6    D T1240      90.210  11.045  32.675  1.00 28.81    -0.219 NA
HETATM    7  N13   D T1240      90.774  10.364  36.747  1.00 22.31    -0.127 N 
HETATM    8  N14   D T1240      90.908   8.803  32.229  1.00 25.45    -0.060 NA
ENDROOT
BRANCH   4   9
HETATM    9  C7    D T1240      89.935  13.057  35.986  1.00 23.16     0.000 A 
HETATM   10  C8    D T1240      88.629  13.274  36.624  1.00 23.74     0.000 A 
HETATM   11  C9    D T1240      88.382  14.331  37.574  1.00 22.05     0.007 A 
HETATM   12  C10   D T1240      89.408  15.199  37.917  1.00 28.58     0.040 A 
HETATM   13  C11   D T1240      90.747  15.029  37.316  1.00 23.69     0.064 A 
HETATM   14 CL1    D T1240      89.206  16.447  38.975  1.00  5.79    -0.087 Cl
HETATM   15  C12   D T1240      90.971  13.964  36.371  1.00 23.56    -0.020 A 
ENDBRANCH   4   9
BRANCH   5  16
HETATM   16  C15   D T1240      89.505  13.386  32.951  1.00 31.62     0.046 C 
HETATM   17  C16   D T1240      89.912  13.626  31.504  1.00 31.37     0.007 C 
ENDBRANCH   5  16
TORSDOF 2
ENDMDL
MODEL 9
REMARK VINA RESULT:      -6.4      2.861      3.847
REMARK  2 active torsions:
REMARK  status: ('A' for Active; 'I' for Inactive)
REMARK    1  A    between atoms: C4_4  and  C7_7 
REMARK    2  A    between atoms: C5_5  and  C15_15 
ROOT
HETATM    1  N1    D T1240      90.061   8.336  34.081  1.00 25.62    -0.194 NA
HETATM    2  C2    D T1240      90.686   7.517  35.003  1.00 23.58     0.239 A 
HETATM    3  C3    D T1240      89.932   9.722  34.366  1.00 22.29     0.187 A 
HETATM    4  C4    D T1240      90.431  10.323  35.634  1.00 21.48     0.051 A 
HETATM    5  C5    D T1240      91.102   9.312  36.527  1.00 26.18     0.065 A 
HETATM    6  N6    D T1240      91.213   7.985  36.203  1.00 28.81    -0.219 NA
HETATM    7  N13   D T1240      89.340  10.527  33.484  1.00 22.31    -0.127 N 
HETATM    8  N14   D T1240      90.795   6.146  34.733  1.00 25.45    -0.060 NA
ENDROOT
BRANCH   4   9
HETATM    9  C7    D T1240      90.278  11.747  35.967  1.00 23.16     0.000 A 
HETATM   10  C8    D T1240      89.041  12.276  36.561  1.00 23.74     0.000 A 
HETATM   11  C9    D T1240      88.867  13.663  36.915  1.00 22.05     0.007 A 
HETATM   12  C10   D T1240      89.899  14.562  36.693  1.00 28.58     0.040 A 
HETATM   13  C11   D T1240      91.170  14.093  36.105  1.00 23.69     0.064 A 
HETATM   14 CL1    D T1240      89.776  16.168  37.046  1.00  5.79    -0.087 Cl
HETATM   15  C12   D T1240      91.323  12.701  35.761  1.00 23.56    -0.020 A 
ENDBRANCH   4   9
BRANCH   5  16
HETATM   16  C15   D T1240      91.691   9.753  37.846  1.00 31.62     0.046 C 
HETATM   17  C16   D T1240      92.807   8.870  38.387  1.00 31.37     0.007 C 
ENDBRANCH   5  16
TORSDOF 2
ENDMDL
