MODEL 1
REMARK VINA RESULT:    -6.818      0.000      0.000
REMARK INTER + INTRA:          -8.182
REMARK INTER:                  -7.615
REMARK INTRA:                  -0.567
REMARK UNBOUND:                -0.567
REMARK  2 active torsions:
REMARK  status: ('A' for Active; 'I' for Inactive)
REMARK    1  A    between atoms: C4_4  and  C7_7 
REMARK    2  A    between atoms: C5_5  and  C15_15 
ROOT
HETATM    1  N1    D T1240      -5.688   4.753   2.853  1.00 25.62    -0.194 NA
HETATM    2  C2    D T1240      -5.155   5.915   2.328  1.00 23.58     0.239 A 
HETATM    3  C3    D T1240      -4.857   3.902   3.630  1.00 22.29     0.187 A 
HETATM    4  C4    D T1240      -3.421   4.210   3.884  1.00 21.48     0.051 A 
HETATM    5  C5    D T1240      -2.992   5.514   3.264  1.00 26.18     0.065 A 
HETATM    6  N6    D T1240      -3.836   6.307   2.531  1.00 28.81    -0.219 NA
HETATM    7  N13   D T1240      -5.357   2.783   4.152  1.00 22.31    -0.127 N 
HETATM    8  N14   D T1240      -5.968   6.744   1.542  1.00 25.45    -0.060 NA
ENDROOT
BRANCH   4   9
HETATM    9  C7    D T1240      -2.532   3.329   4.655  1.00 23.16     0.000 A 
HETATM   10  C8    D T1240      -2.406   3.441   6.116  1.00 23.74     0.000 A 
HETATM   11  C9    D T1240      -1.556   2.582   6.902  1.00 22.05     0.007 A 
HETATM   12  C10   D T1240      -0.809   1.596   6.275  1.00 28.58     0.040 A 
HETATM   13  C11   D T1240      -0.896   1.427   4.810  1.00 23.69     0.064 A 
HETATM   14 CL1    D T1240       0.205   0.586   7.094  1.00  5.79    -0.087 Cl
HETATM   15  C12   D T1240      -1.755   2.296   4.045  1.00 23.56    -0.020 A 
ENDBRANCH   4   9
BRANCH   5  16
HETATM   16  C15   D T1240      -1.572   5.997   3.443  1.00 31.62     0.046 C 
HETATM   17  C16   D T1240      -0.601   5.579   2.349  1.00 31.37     0.007 C 
ENDBRANCH   5  16
TORSDOF 2
ENDMDL
MODEL 2
REMARK VINA RESULT:    -6.648      1.228      2.875
REMARK INTER + INTRA:          -7.993
REMARK INTER:                  -7.552
REMARK INTRA:                  -0.440
REMARK UNBOUND:                -0.567
REMARK  2 active torsions:
REMARK  status: ('A' for Active; 'I' for Inactive)
REMARK    1  A    between atoms: C4_4  and  C7_7 
REMARK    2  A    between atoms: C5_5  and  C15_15 
ROOT
HETATM    1  N1    D T1240      -4.244   6.804   2.864  1.00 25.62    -0.194 NA
HETATM    2  C2    D T1240      -5.325   6.260   2.198  1.00 23.58     0.239 A 
HETATM    3  C3    D T1240      -3.382   5.945   3.598  1.00 22.29     0.187 A 
HETATM    4  C4    D T1240      -3.614   4.476   3.691  1.00 21.48     0.051 A 
HETATM    5  C5    D T1240      -4.818   4.031   2.900  1.00 26.18     0.065 A 
HETATM    6  N6    D T1240      -5.613   4.898   2.198  1.00 28.81    -0.219 NA
HETATM    7  N13   D T1240      -2.329   6.451   4.238  1.00 22.31    -0.127 N 
HETATM    8  N14   D T1240      -6.189   7.108   1.493  1.00 25.45    -0.060 NA
ENDROOT
BRANCH   4   9
HETATM    9  C7    D T1240      -2.758   3.571   4.471  1.00 23.16     0.000 A 
HETATM   10  C8    D T1240      -1.599   2.892   3.872  1.00 23.74     0.000 A 
HETATM   11  C9    D T1240      -0.731   2.012   4.615  1.00 22.05     0.007 A 
HETATM   12  C10   D T1240      -0.979   1.778   5.958  1.00 28.58     0.040 A 
HETATM   13  C11   D T1240      -2.122   2.437   6.622  1.00 23.69     0.064 A 
HETATM   14 CL1    D T1240      -0.050   0.771   6.876  1.00  5.79    -0.087 Cl
HETATM   15  C12   D T1240      -2.975   3.314   5.860  1.00 23.56    -0.020 A 
ENDBRANCH   4   9
BRANCH   5  16
HETATM   16  C15   D T1240      -5.188   2.568   2.861  1.00 31.62     0.046 C 
HETATM   17  C16   D T1240      -6.329   2.211   1.920  1.00 31.37     0.007 C 
ENDBRANCH   5  16
TORSDOF 2
ENDMDL
MODEL 3
REMARK VINA RESULT:    -6.577      2.270      3.930
REMARK INTER + INTRA:          -7.913
REMARK INTER:                  -7.345
REMARK INTRA:                  -0.568
REMARK UNBOUND:                -0.567
REMARK  2 active torsions:
REMARK  status: ('A' for Active; 'I' for Inactive)
REMARK    1  A    between atoms: C4_4  and  C7_7 
REMARK    2  A    between atoms: C5_5  and  C15_15 
ROOT
HETATM    1  N1    D T1240      -5.821   4.766   1.770  1.00 25.62    -0.194 NA
HETATM    2  C2    D T1240      -6.262   3.527   2.193  1.00 23.58     0.239 A 
HETATM    3  C3    D T1240      -4.570   5.250   2.240  1.00 22.29     0.187 A 
HETATM    4  C4    D T1240      -3.723   4.474   3.188  1.00 21.48     0.051 A 
HETATM    5  C5    D T1240      -4.328   3.140   3.542  1.00 26.18     0.065 A 
HETATM    6  N6    D T1240      -5.534   2.712   3.054  1.00 28.81    -0.219 NA
HETATM    7  N13   D T1240      -4.124   6.438   1.835  1.00 22.31    -0.127 N 
HETATM    8  N14   D T1240      -7.507   3.059   1.749  1.00 25.45    -0.060 NA
ENDROOT
BRANCH   4   9
HETATM    9  C7    D T1240      -2.442   4.966   3.715  1.00 23.16     0.000 A 
HETATM   10  C8    D T1240      -1.171   4.718   3.019  1.00 23.74     0.000 A 
HETATM   11  C9    D T1240       0.099   5.202   3.501  1.00 22.05     0.007 A 
HETATM   12  C10   D T1240       0.152   5.937   4.675  1.00 28.58     0.040 A 
HETATM   13  C11   D T1240      -1.091   6.227   5.419  1.00 23.69     0.064 A 
HETATM   14 CL1    D T1240       1.563   6.509   5.308  1.00  5.79    -0.087 Cl
HETATM   15  C12   D T1240      -2.350   5.736   4.916  1.00 23.56    -0.020 A 
ENDBRANCH   4   9
BRANCH   5  16
HETATM   16  C15   D T1240      -3.591   2.208   4.475  1.00 31.62     0.046 C 
HETATM   17  C16   D T1240      -3.923   2.369   5.951  1.00 31.37     0.007 C 
ENDBRANCH   5  16
TORSDOF 2
ENDMDL
MODEL 4
REMARK VINA RESULT:    -6.562      3.103      5.182
REMARK INTER + INTRA:          -7.896
REMARK INTER:                  -7.452
REMARK INTRA:                  -0.445
REMARK UNBOUND:                -0.567
REMARK  2 active torsions:
REMARK  status: ('A' for Active; 'I' for Inactive)
REMARK    1  A    between atoms: C4_4  and  C7_7 
REMARK    2  A    between atoms: C5_5  and  C15_15 
ROOT
HETATM    1  N1    D T1240      -3.513   3.695   3.248  1.00 25.62    -0.194 NA
HETATM    2  C2    D T1240      -3.293   2.585   4.041  1.00 23.58     0.239 A 
HETATM    3  C3    D T1240      -2.593   4.777   3.305  1.00 22.29     0.187 A 
HETATM    4  C4    D T1240      -1.406   4.764   4.206  1.00 21.48     0.051 A 
HETATM    5  C5    D T1240      -1.292   3.483   4.992  1.00 26.18     0.065 A 
HETATM    6  N6    D T1240      -2.200   2.463   4.894  1.00 28.81    -0.219 NA
HETATM    7  N13   D T1240      -2.784   5.850   2.541  1.00 22.31    -0.127 N 
HETATM    8  N14   D T1240      -4.212   1.527   4.004  1.00 25.45    -0.060 NA
ENDROOT
BRANCH   4   9
HETATM    9  C7    D T1240      -0.459   5.884   4.309  1.00 23.16     0.000 A 
HETATM   10  C8    D T1240       0.713   5.991   3.427  1.00 23.74     0.000 A 
HETATM   11  C9    D T1240       1.650   7.085   3.492  1.00 22.05     0.007 A 
HETATM   12  C10   D T1240       1.461   8.096   4.422  1.00 28.58     0.040 A 
HETATM   13  C11   D T1240       0.299   8.051   5.332  1.00 23.69     0.064 A 
HETATM   14 CL1    D T1240       2.496   9.371   4.578  1.00  5.79    -0.087 Cl
HETATM   15  C12   D T1240      -0.627   6.949   5.247  1.00 23.56    -0.020 A 
ENDBRANCH   4   9
BRANCH   5  16
HETATM   16  C15   D T1240      -0.131   3.287   5.939  1.00 31.62     0.046 C 
HETATM   17  C16   D T1240      -0.265   2.113   6.897  1.00 31.37     0.007 C 
ENDBRANCH   5  16
TORSDOF 2
ENDMDL
MODEL 5
REMARK VINA RESULT:    -6.477      3.788      5.845
REMARK INTER + INTRA:          -7.801
REMARK INTER:                  -7.472
REMARK INTRA:                  -0.330
REMARK UNBOUND:                -0.567
REMARK  2 active torsions:
REMARK  status: ('A' for Active; 'I' for Inactive)
REMARK    1  A    between atoms: C4_4  and  C7_7 
REMARK    2  A    between atoms: C5_5  and  C15_15 
ROOT
HETATM    1  N1    D T1240      -2.978   2.424   5.247  1.00 25.62    -0.194 NA
HETATM    2  C2    D T1240      -1.839   2.941   4.661  1.00 23.58     0.239 A 
HETATM    3  C3    D T1240      -4.250   2.839   4.767  1.00 22.29     0.187 A 
HETATM    4  C4    D T1240      -4.399   3.829   3.664  1.00 21.48     0.051 A 
HETATM    5  C5    D T1240      -3.072   4.287   3.117  1.00 26.18     0.065 A 
HETATM    6  N6    D T1240      -1.870   3.849   3.606  1.00 28.81    -0.219 NA
HETATM    7  N13   D T1240      -5.359   2.343   5.314  1.00 22.31    -0.127 N 
HETATM    8  N14   D T1240      -0.584   2.551   5.148  1.00 25.45    -0.060 NA
ENDROOT
BRANCH   4   9
HETATM    9  C7    D T1240      -5.702   4.300   3.173  1.00 23.16     0.000 A 
HETATM   10  C8    D T1240      -6.556   3.465   2.315  1.00 23.74     0.000 A 
HETATM   11  C9    D T1240      -7.845   3.892   1.832  1.00 22.05     0.007 A 
HETATM   12  C10   D T1240      -8.326   5.146   2.177  1.00 28.58     0.040 A 
HETATM   13  C11   D T1240      -7.520   6.031   3.043  1.00 23.69     0.064 A 
HETATM   14 CL1    D T1240      -9.779   5.721   1.650  1.00  5.79    -0.087 Cl
HETATM   15  C12   D T1240      -6.235   5.582   3.517  1.00 23.56    -0.020 A 
ENDBRANCH   4   9
BRANCH   5  16
HETATM   16  C15   D T1240      -3.034   5.274   1.974  1.00 31.62     0.046 C 
HETATM   17  C16   D T1240      -1.642   5.672   1.505  1.00 31.37     0.007 C 
ENDBRANCH   5  16
TORSDOF 2
ENDMDL
MODEL 6
REMARK VINA RESULT:    -6.339      3.390      4.990
REMARK INTER + INTRA:          -7.647
REMARK INTER:                  -7.090
REMARK INTRA:                  -0.557
REMARK UNBOUND:                -0.567
REMARK  2 active torsions:
REMARK  status: ('A' for Active; 'I' for Inactive)
REMARK    1  A    between atoms: C4_4  and  C7_7 
REMARK    2  A    between atoms: C5_5  and  C15_15 
ROOT
HETATM    1  N1    D T1240      -2.017   2.303   5.028  1.00 25.62    -0.194 NA
HETATM    2  C2    D T1240      -3.144   2.393   4.233  1.00 23.58     0.239 A 
HETATM    3  C3    D T1240      -1.125   3.408   5.086  1.00 22.29     0.187 A 
HETATM    4  C4    D T1240      -1.353   4.656   4.304  1.00 21.48     0.051 A 
HETATM    5  C5    D T1240      -2.628   4.609   3.502  1.00 26.18     0.065 A 
HETATM    6  N6    D T1240      -3.462   3.523   3.487  1.00 28.81    -0.219 NA
HETATM    7  N13   D T1240      -0.039   3.343   5.855  1.00 22.31    -0.127 N 
HETATM    8  N14   D T1240      -4.013   1.295   4.157  1.00 25.45    -0.060 NA
ENDROOT
BRANCH   4   9
HETATM    9  C7    D T1240      -0.428   5.799   4.320  1.00 23.16     0.000 A 
HETATM   10  C8    D T1240      -0.509   6.847   5.348  1.00 23.74     0.000 A 
HETATM   11  C9    D T1240       0.393   7.970   5.401  1.00 22.05     0.007 A 
HETATM   12  C10   D T1240       1.393   8.092   4.448  1.00 28.58     0.040 A 
HETATM   13  C11   D T1240       1.533   7.068   3.393  1.00 23.69     0.064 A 
HETATM   14 CL1    D T1240       2.452   9.355   4.421  1.00  5.79    -0.087 Cl
HETATM   15  C12   D T1240       0.621   5.952   3.361  1.00 23.56    -0.020 A 
ENDBRANCH   4   9
BRANCH   5  16
HETATM   16  C15   D T1240      -3.030   5.802   2.667  1.00 31.62     0.046 C 
HETATM   17  C16   D T1240      -3.903   6.826   3.376  1.00 31.37     0.007 C 
ENDBRANCH   5  16
TORSDOF 2
ENDMDL
MODEL 7
REMARK VINA RESULT:    -6.203      3.574      5.114
REMARK INTER + INTRA:          -7.496
REMARK INTER:                  -7.133
REMARK INTRA:                  -0.363
REMARK UNBOUND:                -0.567
REMARK  2 active torsions:
REMARK  status: ('A' for Active; 'I' for Inactive)
REMARK    1  A    between atoms: C4_4  and  C7_7 
REMARK    2  A    between atoms: C5_5  and  C15_15 
ROOT
HETATM    1  N1    D T1240      -1.238   4.230   5.616  1.00 25.62    -0.194 NA
HETATM    2  C2    D T1240      -0.433   5.108   4.916  1.00 23.58     0.239 A 
HETATM    3  C3    D T1240      -2.503   3.874   5.076  1.00 22.29     0.187 A 
HETATM    4  C4    D T1240      -3.002   4.430   3.787  1.00 21.48     0.051 A 
HETATM    5  C5    D T1240      -2.008   5.356   3.135  1.00 26.18     0.065 A 
HETATM    6  N6    D T1240      -0.793   5.660   3.691  1.00 28.81    -0.219 NA
HETATM    7  N13   D T1240      -3.288   3.022   5.733  1.00 22.31    -0.127 N 
HETATM    8  N14   D T1240       0.806   5.478   5.458  1.00 25.45    -0.060 NA
ENDROOT
BRANCH   4   9
HETATM    9  C7    D T1240      -4.321   4.105   3.224  1.00 23.16     0.000 A 
HETATM   10  C8    D T1240      -5.445   5.050   3.288  1.00 23.74     0.000 A 
HETATM   11  C9    D T1240      -6.745   4.768   2.730  1.00 22.05     0.007 A 
HETATM   12  C10   D T1240      -6.971   3.554   2.100  1.00 28.58     0.040 A 
HETATM   13  C11   D T1240      -5.880   2.564   1.996  1.00 23.69     0.064 A 
HETATM   14 CL1    D T1240      -8.432   3.141   1.455  1.00  5.79    -0.087 Cl
HETATM   15  C12   D T1240      -4.588   2.869   2.558  1.00 23.56    -0.020 A 
ENDBRANCH   4   9
BRANCH   5  16
HETATM   16  C15   D T1240      -2.338   5.992   1.805  1.00 31.62     0.046 C 
HETATM   17  C16   D T1240      -1.199   6.019   0.797  1.00 31.37     0.007 C 
ENDBRANCH   5  16
TORSDOF 2
ENDMDL
MODEL 8
REMARK VINA RESULT:    -6.142      3.878      6.406
REMARK INTER + INTRA:          -7.427
REMARK INTER:                  -6.982
REMARK INTRA:                  -0.445
REMARK UNBOUND:                -0.567
REMARK  2 active torsions:
REMARK  status: ('A' for Active; 'I' for Inactive)
REMARK    1  A    between atoms: C4_4  and  C7_7 
REMARK    2  A    between atoms: C5_5  and  C15_15 
ROOT
HETATM    1  N1    D T1240      -1.910   5.224   2.944  1.00 25.62    -0.194 NA
HETATM    2  C2    D T1240      -1.729   4.025   3.606  1.00 23.58     0.239 A 
HETATM    3  C3    D T1240      -3.230   5.642   2.621  1.00 22.29     0.187 A 
HETATM    4  C4    D T1240      -4.427   4.820   2.954  1.00 21.48     0.051 A 
HETATM    5  C5    D T1240      -4.071   3.552   3.687  1.00 26.18     0.065 A 
HETATM    6  N6    D T1240      -2.781   3.198   3.987  1.00 28.81    -0.219 NA
HETATM    7  N13   D T1240      -3.424   6.800   1.993  1.00 22.31    -0.127 N 
HETATM    8  N14   D T1240      -0.427   3.601   3.904  1.00 25.45    -0.060 NA
ENDROOT
BRANCH   4   9
HETATM    9  C7    D T1240      -5.799   5.212   2.601  1.00 23.16     0.000 A 
HETATM   10  C8    D T1240      -6.565   6.170   3.412  1.00 23.74     0.000 A 
HETATM   11  C9    D T1240      -7.905   6.587   3.082  1.00 22.05     0.007 A 
HETATM   12  C10   D T1240      -8.525   6.074   1.953  1.00 28.58     0.040 A 
HETATM   13  C11   D T1240      -7.806   5.114   1.091  1.00 23.69     0.064 A 
HETATM   14 CL1    D T1240     -10.062   6.481   1.515  1.00  5.79    -0.087 Cl
HETATM   15  C12   D T1240      -6.466   4.713   1.439  1.00 23.56    -0.020 A 
ENDBRANCH   4   9
BRANCH   5  16
HETATM   16  C15   D T1240      -5.165   2.609   4.127  1.00 31.62     0.046 C 
HETATM   17  C16   D T1240      -5.217   2.324   5.620  1.00 31.37     0.007 C 
ENDBRANCH   5  16
TORSDOF 2
ENDMDL
MODEL 9
REMARK VINA RESULT:    -6.087      3.398      5.280
REMARK INTER + INTRA:          -7.366
REMARK INTER:                  -6.894
REMARK INTRA:                  -0.473
REMARK UNBOUND:                -0.567
REMARK  2 active torsions:
REMARK  status: ('A' for Active; 'I' for Inactive)
REMARK    1  A    between atoms: C4_4  and  C7_7 
REMARK    2  A    between atoms: C5_5  and  C15_15 
ROOT
HETATM    1  N1    D T1240      -0.725   7.036   4.963  1.00 25.62    -0.194 NA
HETATM    2  C2    D T1240       0.415   6.255   4.996  1.00 23.58     0.239 A 
HETATM    3  C3    D T1240      -1.935   6.469   4.479  1.00 22.29     0.187 A 
HETATM    4  C4    D T1240      -2.014   5.065   3.986  1.00 21.48     0.051 A 
HETATM    5  C5    D T1240      -0.698   4.339   4.100  1.00 26.18     0.065 A 
HETATM    6  N6    D T1240       0.440   4.926   4.585  1.00 28.81    -0.219 NA
HETATM    7  N13   D T1240      -3.045   7.204   4.450  1.00 22.31    -0.127 N 
HETATM    8  N14   D T1240       1.615   6.820   5.451  1.00 25.45    -0.060 NA
ENDROOT
BRANCH   4   9
HETATM    9  C7    D T1240      -3.244   4.467   3.448  1.00 23.16     0.000 A 
HETATM   10  C8    D T1240      -3.707   4.743   2.081  1.00 23.74     0.000 A 
HETATM   11  C9    D T1240      -4.900   4.158   1.519  1.00 22.05     0.007 A 
HETATM   12  C10   D T1240      -5.665   3.292   2.285  1.00 28.58     0.040 A 
HETATM   13  C11   D T1240      -5.249   2.967   3.664  1.00 23.69     0.064 A 
HETATM   14 CL1    D T1240      -7.053   2.597   1.729  1.00  5.79    -0.087 Cl
HETATM   15  C12   D T1240      -4.052   3.561   4.204  1.00 23.56    -0.020 A 
ENDBRANCH   4   9
BRANCH   5  16
HETATM   16  C15   D T1240      -0.601   2.895   3.669  1.00 31.62     0.046 C 
HETATM   17  C16   D T1240      -0.721   1.872   4.790  1.00 31.37     0.007 C 
ENDBRANCH   5  16
TORSDOF 2
ENDMDL
