MODEL 1
REMARK VINA RESULT:    -6.892      0.000      0.000
REMARK INTER + INTRA:          -8.127
REMARK INTER:                  -7.698
REMARK INTRA:                  -0.429
REMARK UNBOUND:                -0.429
REMARK  2 active torsions:
REMARK  status: ('A' for Active; 'I' for Inactive)
REMARK    1  A    between atoms: C4_4  and  C7_7 
REMARK    2  A    between atoms: C5_5  and  C15_15 
ROOT
HETATM    1  N1    D T1240      91.496  10.244  37.822  1.00 25.62    -0.194 NA
HETATM    2  C2    D T1240      91.517   8.866  37.724  1.00 23.58     0.239 A 
HETATM    3  C3    D T1240      91.078  11.009  36.700  1.00 22.29     0.187 A 
HETATM    4  C4    D T1240      90.677  10.378  35.412  1.00 21.48     0.051 A 
HETATM    5  C5    D T1240      90.734   8.872  35.465  1.00 26.18     0.065 A 
HETATM    6  N6    D T1240      91.135   8.178  36.577  1.00 28.81    -0.219 NA
HETATM    7  N13   D T1240      91.043  12.339  36.780  1.00 22.31    -0.127 N 
HETATM    8  N14   D T1240      91.951   8.112  38.822  1.00 25.45    -0.060 NA
ENDROOT
BRANCH   4   9
HETATM    9  C7    D T1240      90.273  11.147  34.226  1.00 23.16     0.000 A 
HETATM   10  C8    D T1240      88.863  11.450  33.942  1.00 23.74     0.000 A 
HETATM   11  C9    D T1240      88.437  12.217  32.797  1.00 22.05     0.007 A 
HETATM   12  C10   D T1240      89.382  12.701  31.906  1.00 28.58     0.040 A 
HETATM   13  C11   D T1240      90.816  12.438  32.139  1.00 23.69     0.064 A 
HETATM   14 CL1    D T1240      88.980  13.566  30.560  1.00  5.79    -0.087 Cl
HETATM   15  C12   D T1240      91.220  11.671  33.291  1.00 23.56    -0.020 A 
ENDBRANCH   4   9
BRANCH   5  16
HETATM   16  C15   D T1240      90.337   8.065  34.252  1.00 31.62     0.046 C 
HETATM   17  C16   D T1240      90.346   6.555  34.445  1.00 31.37     0.007 C 
ENDBRANCH   5  16
TORSDOF 2
ENDMDL
MODEL 2
REMARK VINA RESULT:    -6.808      3.731      6.187
REMARK INTER + INTRA:          -8.032
REMARK INTER:                  -7.645
REMARK INTRA:                  -0.387
REMARK UNBOUND:                -0.429
REMARK  2 active torsions:
REMARK  status: ('A' for Active; 'I' for Inactive)
REMARK    1  A    between atoms: C4_4  and  C7_7 
REMARK    2  A    between atoms: C5_5  and  C15_15 
ROOT
HETATM    1  N1    D T1240      90.915  10.836  32.466  1.00 25.62    -0.194 NA
HETATM    2  C2    D T1240      90.120  11.953  32.642  1.00 23.58     0.239 A 
HETATM    3  C3    D T1240      91.121   9.957  33.564  1.00 22.29     0.187 A 
HETATM    4  C4    D T1240      90.524  10.206  34.906  1.00 21.48     0.051 A 
HETATM    5  C5    D T1240      89.671  11.448  34.936  1.00 26.18     0.065 A 
HETATM    6  N6    D T1240      89.493  12.260  33.846  1.00 28.81    -0.219 NA
HETATM    7  N13   D T1240      91.878   8.871  33.410  1.00 22.31    -0.127 N 
HETATM    8  N14   D T1240      89.934  12.833  31.568  1.00 25.45    -0.060 NA
ENDROOT
BRANCH   4   9
HETATM    9  C7    D T1240      90.750   9.331  36.065  1.00 23.16     0.000 A 
HETATM   10  C8    D T1240      91.711   9.678  37.122  1.00 23.74     0.000 A 
HETATM   11  C9    D T1240      91.943   8.850  38.280  1.00 22.05     0.007 A 
HETATM   12  C10   D T1240      91.241   7.663  38.426  1.00 28.58     0.040 A 
HETATM   13  C11   D T1240      90.255   7.261  37.402  1.00 23.69     0.064 A 
HETATM   14 CL1    D T1240      91.460   6.646  39.705  1.00  5.79    -0.087 Cl
HETATM   15  C12   D T1240      90.038   8.106  36.254  1.00 23.56    -0.020 A 
ENDBRANCH   4   9
BRANCH   5  16
HETATM   16  C15   D T1240      88.966  11.841  36.213  1.00 31.62     0.046 C 
HETATM   17  C16   D T1240      87.656  12.593  36.026  1.00 31.37     0.007 C 
ENDBRANCH   5  16
TORSDOF 2
ENDMDL
MODEL 3
REMARK VINA RESULT:    -6.731      0.942      2.744
REMARK INTER + INTRA:          -7.946
REMARK INTER:                  -7.511
REMARK INTRA:                  -0.435
REMARK UNBOUND:                -0.429
REMARK  2 active torsions:
REMARK  status: ('A' for Active; 'I' for Inactive)
REMARK    1  A    between atoms: C4_4  and  C7_7 
REMARK    2  A    between atoms: C5_5  and  C15_15 
ROOT
HETATM    1  N1    D T1240      91.096   7.882  36.259  1.00 25.62    -0.194 NA
HETATM    2  C2    D T1240      91.403   8.499  37.456  1.00 23.58     0.239 A 
HETATM    3  C3    D T1240      90.757   8.684  35.136  1.00 22.29     0.187 A 
HETATM    4  C4    D T1240      90.704  10.171  35.208  1.00 21.48     0.051 A 
HETATM    5  C5    D T1240      91.081  10.697  36.570  1.00 26.18     0.065 A 
HETATM    6  N6    D T1240      91.411   9.881  37.620  1.00 28.81    -0.219 NA
HETATM    7  N13   D T1240      90.466   8.106  33.971  1.00 22.31    -0.127 N 
HETATM    8  N14   D T1240      91.715   7.708  38.570  1.00 25.45    -0.060 NA
ENDROOT
BRANCH   4   9
HETATM    9  C7    D T1240      90.323  11.022  34.071  1.00 23.16     0.000 A 
HETATM   10  C8    D T1240      88.918  11.349  33.785  1.00 23.74     0.000 A 
HETATM   11  C9    D T1240      88.514  12.195  32.689  1.00 22.05     0.007 A 
HETATM   12  C10   D T1240      89.475  12.735  31.848  1.00 28.58     0.040 A 
HETATM   13  C11   D T1240      90.905  12.450  32.087  1.00 23.69     0.064 A 
HETATM   14 CL1    D T1240      89.099  13.692  30.559  1.00  5.79    -0.087 Cl
HETATM   15  C12   D T1240      91.287  11.605  33.190  1.00 23.56    -0.020 A 
ENDBRANCH   4   9
BRANCH   5  16
HETATM   16  C15   D T1240      91.105  12.186  36.817  1.00 31.62     0.046 C 
HETATM   17  C16   D T1240      91.338  12.601  38.263  1.00 31.37     0.007 C 
ENDBRANCH   5  16
TORSDOF 2
ENDMDL
MODEL 4
REMARK VINA RESULT:    -6.656      3.674      5.695
REMARK INTER + INTRA:          -7.863
REMARK INTER:                  -7.477
REMARK INTRA:                  -0.386
REMARK UNBOUND:                -0.429
REMARK  2 active torsions:
REMARK  status: ('A' for Active; 'I' for Inactive)
REMARK    1  A    between atoms: C4_4  and  C7_7 
REMARK    2  A    between atoms: C5_5  and  C15_15 
ROOT
HETATM    1  N1    D T1240      88.757  12.439  33.984  1.00 25.62    -0.194 NA
HETATM    2  C2    D T1240      89.196  12.112  32.715  1.00 23.58     0.239 A 
HETATM    3  C3    D T1240      89.161  11.632  35.082  1.00 22.29     0.187 A 
HETATM    4  C4    D T1240      90.028  10.433  34.911  1.00 21.48     0.051 A 
HETATM    5  C5    D T1240      90.439  10.217  33.477  1.00 26.18     0.065 A 
HETATM    6  N6    D T1240      90.032  11.031  32.453  1.00 28.81    -0.219 NA
HETATM    7  N13   D T1240      88.754  11.937  36.314  1.00 22.31    -0.127 N 
HETATM    8  N14   D T1240      88.780  12.893  31.628  1.00 25.45    -0.060 NA
ENDROOT
BRANCH   4   9
HETATM    9  C7    D T1240      90.432   9.563  36.026  1.00 23.16     0.000 A 
HETATM   10  C8    D T1240      89.827   8.239  36.233  1.00 23.74     0.000 A 
HETATM   11  C9    D T1240      90.213   7.355  37.305  1.00 22.05     0.007 A 
HETATM   12  C10   D T1240      91.197   7.750  38.199  1.00 28.58     0.040 A 
HETATM   13  C11   D T1240      91.849   9.066  38.041  1.00 23.69     0.064 A 
HETATM   14 CL1    D T1240      91.681   6.812  39.466  1.00  5.79    -0.087 Cl
HETATM   15  C12   D T1240      91.449   9.932  36.960  1.00 23.56    -0.020 A 
ENDBRANCH   4   9
BRANCH   5  16
HETATM   16  C15   D T1240      91.342   9.059  33.123  1.00 31.62     0.046 C 
HETATM   17  C16   D T1240      92.728   9.444  32.625  1.00 31.37     0.007 C 
ENDBRANCH   5  16
TORSDOF 2
ENDMDL
MODEL 5
REMARK VINA RESULT:    -6.579      3.397      4.499
REMARK INTER + INTRA:          -7.777
REMARK INTER:                  -7.279
REMARK INTRA:                  -0.498
REMARK UNBOUND:                -0.429
REMARK  2 active torsions:
REMARK  status: ('A' for Active; 'I' for Inactive)
REMARK    1  A    between atoms: C4_4  and  C7_7 
REMARK    2  A    between atoms: C5_5  and  C15_15 
ROOT
HETATM    1  N1    D T1240      90.944   9.364  35.588  1.00 25.62    -0.194 NA
HETATM    2  C2    D T1240      90.370   9.109  34.357  1.00 23.58     0.239 A 
HETATM    3  C3    D T1240      90.692  10.610  36.222  1.00 22.29     0.187 A 
HETATM    4  C4    D T1240      89.842  11.662  35.598  1.00 21.48     0.051 A 
HETATM    5  C5    D T1240      89.273  11.232  34.270  1.00 26.18     0.065 A 
HETATM    6  N6    D T1240      89.537  10.012  33.703  1.00 28.81    -0.219 NA
HETATM    7  N13   D T1240      91.231  10.869  37.413  1.00 22.31    -0.127 N 
HETATM    8  N14   D T1240      90.636   7.889  33.721  1.00 25.45    -0.060 NA
ENDROOT
BRANCH   4   9
HETATM    9  C7    D T1240      89.593  12.972  36.217  1.00 23.16     0.000 A 
HETATM   10  C8    D T1240      88.478  13.189  37.149  1.00 23.74     0.000 A 
HETATM   11  C9    D T1240      88.218  14.457  37.786  1.00 22.05     0.007 A 
HETATM   12  C10   D T1240      89.043  15.540  37.521  1.00 28.58     0.040 A 
HETATM   13  C11   D T1240      90.186  15.385  36.598  1.00 23.69     0.064 A 
HETATM   14 CL1    D T1240      88.805  17.029  38.187  1.00  5.79    -0.087 Cl
HETATM   15  C12   D T1240      90.429  14.107  35.975  1.00 23.56    -0.020 A 
ENDBRANCH   4   9
BRANCH   5  16
HETATM   16  C15   D T1240      88.366  12.166  33.506  1.00 31.62     0.046 C 
HETATM   17  C16   D T1240      88.854  12.556  32.118  1.00 31.37     0.007 C 
ENDBRANCH   5  16
TORSDOF 2
ENDMDL
MODEL 6
REMARK VINA RESULT:    -6.560      4.176      6.419
REMARK INTER + INTRA:          -7.756
REMARK INTER:                  -7.183
REMARK INTRA:                  -0.573
REMARK UNBOUND:                -0.429
REMARK  2 active torsions:
REMARK  status: ('A' for Active; 'I' for Inactive)
REMARK    1  A    between atoms: C4_4  and  C7_7 
REMARK    2  A    between atoms: C5_5  and  C15_15 
ROOT
HETATM    1  N1    D T1240      91.440  11.457  37.202  1.00 25.62    -0.194 NA
HETATM    2  C2    D T1240      90.443  11.421  36.246  1.00 23.58     0.239 A 
HETATM    3  C3    D T1240      91.925  10.234  37.738  1.00 22.29     0.187 A 
HETATM    4  C4    D T1240      91.383   8.911  37.319  1.00 21.48     0.051 A 
HETATM    5  C5    D T1240      90.318   9.033  36.260  1.00 26.18     0.065 A 
HETATM    6  N6    D T1240      89.890  10.238  35.766  1.00 28.81    -0.219 NA
HETATM    7  N13   D T1240      92.893  10.249  38.655  1.00 22.31    -0.127 N 
HETATM    8  N14   D T1240      89.948  12.628  35.733  1.00 25.45    -0.060 NA
ENDROOT
BRANCH   4   9
HETATM    9  C7    D T1240      91.843   7.634  37.884  1.00 23.16     0.000 A 
HETATM   10  C8    D T1240      91.199   7.029  39.059  1.00 23.74     0.000 A 
HETATM   11  C9    D T1240      91.615   5.770  39.625  1.00 22.05     0.007 A 
HETATM   12  C10   D T1240      92.673   5.078  39.055  1.00 28.58     0.040 A 
HETATM   13  C11   D T1240      93.358   5.628  37.868  1.00 23.69     0.064 A 
HETATM   14 CL1    D T1240      93.228   3.644  39.653  1.00  5.79    -0.087 Cl
HETATM   15  C12   D T1240      92.923   6.887  37.317  1.00 23.56    -0.020 A 
ENDBRANCH   4   9
BRANCH   5  16
HETATM   16  C15   D T1240      89.673   7.788  35.699  1.00 31.62     0.046 C 
HETATM   17  C16   D T1240      90.367   7.189  34.484  1.00 31.37     0.007 C 
ENDBRANCH   5  16
TORSDOF 2
ENDMDL
MODEL 7
REMARK VINA RESULT:    -6.543      3.840      6.505
REMARK INTER + INTRA:          -7.737
REMARK INTER:                  -7.306
REMARK INTRA:                  -0.431
REMARK UNBOUND:                -0.429
REMARK  2 active torsions:
REMARK  status: ('A' for Active; 'I' for Inactive)
REMARK    1  A    between atoms: C4_4  and  C7_7 
REMARK    2  A    between atoms: C5_5  and  C15_15 
ROOT
HETATM    1  N1    D T1240      89.731  10.085  33.926  1.00 25.62    -0.194 NA
HETATM    2  C2    D T1240      89.855  11.370  34.419  1.00 23.58     0.239 A 
HETATM    3  C3    D T1240      90.217   8.998  34.702  1.00 22.29     0.187 A 
HETATM    4  C4    D T1240      90.874   9.196  36.024  1.00 21.48     0.051 A 
HETATM    5  C5    D T1240      90.919  10.646  36.435  1.00 26.18     0.065 A 
HETATM    6  N6    D T1240      90.426  11.659  35.654  1.00 28.81    -0.219 NA
HETATM    7  N13   D T1240      90.098   7.752  34.246  1.00 22.31    -0.127 N 
HETATM    8  N14   D T1240      89.397  12.444  33.644  1.00 25.45    -0.060 NA
ENDROOT
BRANCH   4   9
HETATM    9  C7    D T1240      91.415   8.093  36.831  1.00 23.16     0.000 A 
HETATM   10  C8    D T1240      90.568   7.313  37.745  1.00 23.74     0.000 A 
HETATM   11  C9    D T1240      91.066   6.214  38.536  1.00 22.05     0.007 A 
HETATM   12  C10   D T1240      92.403   5.858  38.451  1.00 28.58     0.040 A 
HETATM   13  C11   D T1240      93.305   6.597  37.545  1.00 23.69     0.064 A 
HETATM   14 CL1    D T1240      93.059   4.631  39.336  1.00  5.79    -0.087 Cl
HETATM   15  C12   D T1240      92.786   7.691  36.761  1.00 23.56    -0.020 A 
ENDBRANCH   4   9
BRANCH   5  16
HETATM   16  C15   D T1240      91.529  11.030  37.762  1.00 31.62     0.046 C 
HETATM   17  C16   D T1240      91.694  12.526  37.993  1.00 31.37     0.007 C 
ENDBRANCH   5  16
TORSDOF 2
ENDMDL
MODEL 8
REMARK VINA RESULT:    -6.300      3.944      6.194
REMARK INTER + INTRA:          -7.465
REMARK INTER:                  -7.050
REMARK INTRA:                  -0.415
REMARK UNBOUND:                -0.429
REMARK  2 active torsions:
REMARK  status: ('A' for Active; 'I' for Inactive)
REMARK    1  A    between atoms: C4_4  and  C7_7 
REMARK    2  A    between atoms: C5_5  and  C15_15 
ROOT
HETATM    1  N1    D T1240      88.285  12.989  31.571  1.00 25.62    -0.194 NA
HETATM    2  C2    D T1240      89.383  13.530  30.931  1.00 23.58     0.239 A 
HETATM    3  C3    D T1240      88.490  12.101  32.662  1.00 22.29     0.187 A 
HETATM    4  C4    D T1240      89.851  11.718  33.130  1.00 21.48     0.051 A 
HETATM    5  C5    D T1240      90.944  12.401  32.348  1.00 26.18     0.065 A 
HETATM    6  N6    D T1240      90.695  13.259  31.309  1.00 28.81    -0.219 NA
HETATM    7  N13   D T1240      87.442  11.577  33.296  1.00 22.31    -0.127 N 
HETATM    8  N14   D T1240      89.183  14.387  29.841  1.00 25.45    -0.060 NA
ENDROOT
BRANCH   4   9
HETATM    9  C7    D T1240      90.090  10.776  34.233  1.00 23.16     0.000 A 
HETATM   10  C8    D T1240      89.957   9.323  34.053  1.00 23.74     0.000 A 
HETATM   11  C9    D T1240      90.201   8.372  35.110  1.00 22.05     0.007 A 
HETATM   12  C10   D T1240      90.579   8.824  36.365  1.00 28.58     0.040 A 
HETATM   13  C11   D T1240      90.737  10.272  36.609  1.00 23.69     0.064 A 
HETATM   14 CL1    D T1240      90.855   7.808  37.635  1.00  5.79    -0.087 Cl
HETATM   15  C12   D T1240      90.490  11.204  35.537  1.00 23.56    -0.020 A 
ENDBRANCH   4   9
BRANCH   5  16
HETATM   16  C15   D T1240      92.389  12.148  32.704  1.00 31.62     0.046 C 
HETATM   17  C16   D T1240      93.147  13.354  33.241  1.00 31.37     0.007 C 
ENDBRANCH   5  16
TORSDOF 2
ENDMDL
MODEL 9
REMARK VINA RESULT:    -6.127      3.432      4.409
REMARK INTER + INTRA:          -7.272
REMARK INTER:                  -6.824
REMARK INTRA:                  -0.448
REMARK UNBOUND:                -0.429
REMARK  2 active torsions:
REMARK  status: ('A' for Active; 'I' for Inactive)
REMARK    1  A    between atoms: C4_4  and  C7_7 
REMARK    2  A    between atoms: C5_5  and  C15_15 
ROOT
HETATM    1  N1    D T1240      89.578   9.798  33.725  1.00 25.62    -0.194 NA
HETATM    2  C2    D T1240      90.330   8.883  34.438  1.00 23.58     0.239 A 
HETATM    3  C3    D T1240      89.368  11.093  34.270  1.00 22.29     0.187 A 
HETATM    4  C4    D T1240      89.916  11.496  35.596  1.00 21.48     0.051 A 
HETATM    5  C5    D T1240      90.726  10.402  36.242  1.00 26.18     0.065 A 
HETATM    6  N6    D T1240      90.909   9.170  35.670  1.00 28.81    -0.219 NA
HETATM    7  N13   D T1240      88.653  11.990  33.593  1.00 22.31    -0.127 N 
HETATM    8  N14   D T1240      90.518   7.599  33.912  1.00 25.45    -0.060 NA
ENDROOT
BRANCH   4   9
HETATM    9  C7    D T1240      89.684  12.817  36.198  1.00 23.16     0.000 A 
HETATM   10  C8    D T1240      88.533  13.078  37.075  1.00 23.74     0.000 A 
HETATM   11  C9    D T1240      88.288  14.357  37.694  1.00 22.05     0.007 A 
HETATM   12  C10   D T1240      89.162  15.409  37.465  1.00 28.58     0.040 A 
HETATM   13  C11   D T1240      90.342  15.210  36.599  1.00 23.69     0.064 A 
HETATM   14 CL1    D T1240      88.945  16.909  38.114  1.00  5.79    -0.087 Cl
HETATM   15  C12   D T1240      90.569  13.921  35.992  1.00 23.56    -0.020 A 
ENDBRANCH   4   9
BRANCH   5  16
HETATM   16  C15   D T1240      91.378  10.645  37.583  1.00 31.62     0.046 C 
HETATM   17  C16   D T1240      92.214   9.491  38.117  1.00 31.37     0.007 C 
ENDBRANCH   5  16
TORSDOF 2
ENDMDL
