MODEL 1
REMARK VINA RESULT:    -6.891      0.000      0.000
REMARK INTER + INTRA:          -8.268
REMARK INTER:                  -7.697
REMARK INTRA:                  -0.571
REMARK UNBOUND:                -0.571
REMARK  2 active torsions:
REMARK  status: ('A' for Active; 'I' for Inactive)
REMARK    1  A    between atoms: C4_4  and  C7_7 
REMARK    2  A    between atoms: C5_5  and  C15_15 
ROOT
HETATM    1  N1    D T1240      -8.754   2.334   0.599  1.00 25.62    -0.194 NA
HETATM    2  C2    D T1240      -8.777   3.347  -0.340  1.00 23.58     0.239 A 
HETATM    3  C3    D T1240      -7.690   2.290   1.541  1.00 22.29     0.187 A 
HETATM    4  C4    D T1240      -6.586   3.290   1.540  1.00 21.48     0.051 A 
HETATM    5  C5    D T1240      -6.758   4.340   0.472  1.00 26.18     0.065 A 
HETATM    6  N6    D T1240      -7.810   4.345  -0.407  1.00 28.81    -0.219 NA
HETATM    7  N13   D T1240      -7.657   1.325   2.460  1.00 22.31    -0.127 N 
HETATM    8  N14   D T1240      -9.813   3.378  -1.283  1.00 25.45    -0.060 NA
ENDROOT
BRANCH   4   9
HETATM    9  C7    D T1240      -5.456   3.246   2.479  1.00 23.16     0.000 A 
HETATM   10  C8    D T1240      -4.198   2.562   2.146  1.00 23.74     0.000 A 
HETATM   11  C9    D T1240      -3.065   2.517   3.039  1.00 22.05     0.007 A 
HETATM   12  C10   D T1240      -3.142   3.138   4.277  1.00 28.58     0.040 A 
HETATM   13  C11   D T1240      -4.377   3.848   4.668  1.00 23.69     0.064 A 
HETATM   14 CL1    D T1240      -1.904   3.114   5.366  1.00  5.79    -0.087 Cl
HETATM   15  C12   D T1240      -5.496   3.883   3.759  1.00 23.56    -0.020 A 
ENDBRANCH   4   9
BRANCH   5  16
HETATM   16  C15   D T1240      -5.742   5.450   0.341  1.00 31.62     0.046 C 
HETATM   17  C16   D T1240      -4.574   5.155  -0.589  1.00 31.37     0.007 C 
ENDBRANCH   5  16
TORSDOF 2
ENDMDL
MODEL 2
REMARK VINA RESULT:    -6.783      3.375      5.271
REMARK INTER + INTRA:          -8.147
REMARK INTER:                  -7.589
REMARK INTRA:                  -0.558
REMARK UNBOUND:                -0.571
REMARK  2 active torsions:
REMARK  status: ('A' for Active; 'I' for Inactive)
REMARK    1  A    between atoms: C4_4  and  C7_7 
REMARK    2  A    between atoms: C5_5  and  C15_15 
ROOT
HETATM    1  N1    D T1240      -6.889   3.418  -0.597  1.00 25.62    -0.194 NA
HETATM    2  C2    D T1240      -6.850   2.852   0.662  1.00 23.58     0.239 A 
HETATM    3  C3    D T1240      -6.387   4.736  -0.777  1.00 22.29     0.187 A 
HETATM    4  C4    D T1240      -5.838   5.538   0.351  1.00 21.48     0.051 A 
HETATM    5  C5    D T1240      -5.846   4.782   1.655  1.00 26.18     0.065 A 
HETATM    6  N6    D T1240      -6.330   3.506   1.776  1.00 28.81    -0.219 NA
HETATM    7  N13   D T1240      -6.409   5.295  -1.987  1.00 22.31    -0.127 N 
HETATM    8  N14   D T1240      -7.365   1.562   0.845  1.00 25.45    -0.060 NA
ENDROOT
BRANCH   4   9
HETATM    9  C7    D T1240      -5.346   6.915   0.199  1.00 23.16     0.000 A 
HETATM   10  C8    D T1240      -6.218   8.078   0.421  1.00 23.74     0.000 A 
HETATM   11  C9    D T1240      -5.762   9.441   0.297  1.00 22.05     0.007 A 
HETATM   12  C10   D T1240      -4.443   9.693  -0.050  1.00 28.58     0.040 A 
HETATM   13  C11   D T1240      -3.514   8.568  -0.280  1.00 23.69     0.064 A 
HETATM   14 CL1    D T1240      -3.845  11.219  -0.235  1.00  5.79    -0.087 Cl
HETATM   15  C12   D T1240      -3.991   7.214  -0.148  1.00 23.56    -0.020 A 
ENDBRANCH   4   9
BRANCH   5  16
HETATM   16  C15   D T1240      -5.300   5.434   2.904  1.00 31.62     0.046 C 
HETATM   17  C16   D T1240      -3.792   5.329   3.086  1.00 31.37     0.007 C 
ENDBRANCH   5  16
TORSDOF 2
ENDMDL
MODEL 3
REMARK VINA RESULT:    -6.775      1.180      2.876
REMARK INTER + INTRA:          -8.138
REMARK INTER:                  -7.752
REMARK INTRA:                  -0.386
REMARK UNBOUND:                -0.571
REMARK  2 active torsions:
REMARK  status: ('A' for Active; 'I' for Inactive)
REMARK    1  A    between atoms: C4_4  and  C7_7 
REMARK    2  A    between atoms: C5_5  and  C15_15 
ROOT
HETATM    1  N1    D T1240      -8.318   4.769  -0.161  1.00 25.62    -0.194 NA
HETATM    2  C2    D T1240      -8.992   3.615  -0.513  1.00 23.58     0.239 A 
HETATM    3  C3    D T1240      -7.190   4.674   0.699  1.00 22.29     0.187 A 
HETATM    4  C4    D T1240      -6.720   3.375   1.254  1.00 21.48     0.051 A 
HETATM    5  C5    D T1240      -7.542   2.208   0.769  1.00 26.18     0.065 A 
HETATM    6  N6    D T1240      -8.616   2.349  -0.072  1.00 28.81    -0.219 NA
HETATM    7  N13   D T1240      -6.523   5.776   1.041  1.00 22.31    -0.127 N 
HETATM    8  N14   D T1240     -10.117   3.709  -1.343  1.00 25.45    -0.060 NA
ENDROOT
BRANCH   4   9
HETATM    9  C7    D T1240      -5.580   3.254   2.174  1.00 23.16     0.000 A 
HETATM   10  C8    D T1240      -5.715   3.518   3.614  1.00 23.74     0.000 A 
HETATM   11  C9    D T1240      -4.621   3.392   4.545  1.00 22.05     0.007 A 
HETATM   12  C10   D T1240      -3.370   3.007   4.085  1.00 28.58     0.040 A 
HETATM   13  C11   D T1240      -3.170   2.721   2.649  1.00 23.69     0.064 A 
HETATM   14 CL1    D T1240      -2.060   2.861   5.076  1.00  5.79    -0.087 Cl
HETATM   15  C12   D T1240      -4.279   2.851   1.737  1.00 23.56    -0.020 A 
ENDBRANCH   4   9
BRANCH   5  16
HETATM   16  C15   D T1240      -7.191   0.807   1.211  1.00 31.62     0.046 C 
HETATM   17  C16   D T1240      -8.211  -0.263   0.849  1.00 31.37     0.007 C 
ENDBRANCH   5  16
TORSDOF 2
ENDMDL
MODEL 4
REMARK VINA RESULT:    -6.592      3.466      4.951
REMARK INTER + INTRA:          -7.933
REMARK INTER:                  -7.363
REMARK INTRA:                  -0.570
REMARK UNBOUND:                -0.571
REMARK  2 active torsions:
REMARK  status: ('A' for Active; 'I' for Inactive)
REMARK    1  A    between atoms: C4_4  and  C7_7 
REMARK    2  A    between atoms: C5_5  and  C15_15 
ROOT
HETATM    1  N1    D T1240      -6.050   3.463   2.468  1.00 25.62    -0.194 NA
HETATM    2  C2    D T1240      -6.615   2.740   1.435  1.00 23.58     0.239 A 
HETATM    3  C3    D T1240      -5.645   4.805   2.232  1.00 22.29     0.187 A 
HETATM    4  C4    D T1240      -5.791   5.455   0.900  1.00 21.48     0.051 A 
HETATM    5  C5    D T1240      -6.437   4.551  -0.118  1.00 26.18     0.065 A 
HETATM    6  N6    D T1240      -6.821   3.266   0.162  1.00 28.81    -0.219 NA
HETATM    7  N13   D T1240      -5.107   5.519   3.219  1.00 22.31    -0.127 N 
HETATM    8  N14   D T1240      -6.994   1.410   1.660  1.00 25.45    -0.060 NA
ENDROOT
BRANCH   4   9
HETATM    9  C7    D T1240      -5.347   6.829   0.620  1.00 23.16     0.000 A 
HETATM   10  C8    D T1240      -4.005   7.117   0.093  1.00 23.74     0.000 A 
HETATM   11  C9    D T1240      -3.546   8.451  -0.209  1.00 22.05     0.007 A 
HETATM   12  C10   D T1240      -4.391   9.531   0.001  1.00 28.58     0.040 A 
HETATM   13  C11   D T1240      -5.755   9.307   0.522  1.00 23.69     0.064 A 
HETATM   14 CL1    D T1240      -3.940  11.089  -0.295  1.00  5.79    -0.087 Cl
HETATM   15  C12   D T1240      -6.194   7.965   0.815  1.00 23.56    -0.020 A 
ENDBRANCH   4   9
BRANCH   5  16
HETATM   16  C15   D T1240      -6.686   5.056  -1.519  1.00 31.62     0.046 C 
HETATM   17  C16   D T1240      -5.538   4.851  -2.498  1.00 31.37     0.007 C 
ENDBRANCH   5  16
TORSDOF 2
ENDMDL
MODEL 5
REMARK VINA RESULT:    -6.576      2.412      4.184
REMARK INTER + INTRA:          -7.916
REMARK INTER:                  -7.379
REMARK INTRA:                  -0.537
REMARK UNBOUND:                -0.571
REMARK  2 active torsions:
REMARK  status: ('A' for Active; 'I' for Inactive)
REMARK    1  A    between atoms: C4_4  and  C7_7 
REMARK    2  A    between atoms: C5_5  and  C15_15 
ROOT
HETATM    1  N1    D T1240      -8.186   2.150  -0.191  1.00 25.62    -0.194 NA
HETATM    2  C2    D T1240      -7.738   1.262   0.768  1.00 23.58     0.239 A 
HETATM    3  C3    D T1240      -7.507   3.388  -0.355  1.00 22.29     0.187 A 
HETATM    4  C4    D T1240      -6.340   3.772   0.486  1.00 21.48     0.051 A 
HETATM    5  C5    D T1240      -5.959   2.698   1.472  1.00 26.18     0.065 A 
HETATM    6  N6    D T1240      -6.639   1.513   1.584  1.00 28.81    -0.219 NA
HETATM    7  N13   D T1240      -7.920   4.253  -1.282  1.00 22.31    -0.127 N 
HETATM    8  N14   D T1240      -8.419   0.050   0.946  1.00 25.45    -0.060 NA
ENDROOT
BRANCH   4   9
HETATM    9  C7    D T1240      -5.644   5.061   0.360  1.00 23.16     0.000 A 
HETATM   10  C8    D T1240      -4.536   5.254  -0.587  1.00 23.74     0.000 A 
HETATM   11  C9    D T1240      -3.844   6.510  -0.747  1.00 22.05     0.007 A 
HETATM   12  C10   D T1240      -4.221   7.602   0.021  1.00 28.58     0.040 A 
HETATM   13  C11   D T1240      -5.331   7.475   0.987  1.00 23.69     0.064 A 
HETATM   14 CL1    D T1240      -3.469   9.066  -0.081  1.00  5.79    -0.087 Cl
HETATM   15  C12   D T1240      -6.010   6.211   1.127  1.00 23.56    -0.020 A 
ENDBRANCH   4   9
BRANCH   5  16
HETATM   16  C15   D T1240      -4.779   2.907   2.391  1.00 31.62     0.046 C 
HETATM   17  C16   D T1240      -3.417   2.628   1.773  1.00 31.37     0.007 C 
ENDBRANCH   5  16
TORSDOF 2
ENDMDL
MODEL 6
REMARK VINA RESULT:    -6.182      3.890      6.124
REMARK INTER + INTRA:          -7.476
REMARK INTER:                  -7.081
REMARK INTRA:                  -0.395
REMARK UNBOUND:                -0.571
REMARK  2 active torsions:
REMARK  status: ('A' for Active; 'I' for Inactive)
REMARK    1  A    between atoms: C4_4  and  C7_7 
REMARK    2  A    between atoms: C5_5  and  C15_15 
ROOT
HETATM    1  N1    D T1240      -5.911   2.340   2.506  1.00 25.62    -0.194 NA
HETATM    2  C2    D T1240      -5.140   3.224   1.777  1.00 23.58     0.239 A 
HETATM    3  C3    D T1240      -7.232   2.052   2.067  1.00 22.29     0.187 A 
HETATM    4  C4    D T1240      -7.823   2.686   0.856  1.00 21.48     0.051 A 
HETATM    5  C5    D T1240      -6.858   3.611   0.159  1.00 26.18     0.065 A 
HETATM    6  N6    D T1240      -5.588   3.847   0.616  1.00 28.81    -0.219 NA
HETATM    7  N13   D T1240      -7.987   1.194   2.753  1.00 22.31    -0.127 N 
HETATM    8  N14   D T1240      -3.846   3.526   2.221  1.00 25.45    -0.060 NA
ENDROOT
BRANCH   4   9
HETATM    9  C7    D T1240      -9.198   2.433   0.401  1.00 23.16     0.000 A 
HETATM   10  C8    D T1240     -10.294   3.371   0.689  1.00 23.74     0.000 A 
HETATM   11  C9    D T1240     -11.649   3.160   0.241  1.00 22.05     0.007 A 
HETATM   12  C10   D T1240     -11.960   2.026  -0.494  1.00 28.58     0.040 A 
HETATM   13  C11   D T1240     -10.902   1.049  -0.822  1.00 23.69     0.064 A 
HETATM   14 CL1    D T1240     -13.487   1.697  -1.024  1.00  5.79    -0.087 Cl
HETATM   15  C12   D T1240      -9.554   1.281  -0.367  1.00 23.56    -0.020 A 
ENDBRANCH   4   9
BRANCH   5  16
HETATM   16  C15   D T1240      -7.281   4.323  -1.104  1.00 31.62     0.046 C 
HETATM   17  C16   D T1240      -6.298   5.362  -1.625  1.00 31.37     0.007 C 
ENDBRANCH   5  16
TORSDOF 2
ENDMDL
MODEL 7
REMARK VINA RESULT:    -6.182      3.931      6.517
REMARK INTER + INTRA:          -7.476
REMARK INTER:                  -7.064
REMARK INTRA:                  -0.412
REMARK UNBOUND:                -0.571
REMARK  2 active torsions:
REMARK  status: ('A' for Active; 'I' for Inactive)
REMARK    1  A    between atoms: C4_4  and  C7_7 
REMARK    2  A    between atoms: C5_5  and  C15_15 
ROOT
HETATM    1  N1    D T1240      -5.663   4.228   0.046  1.00 25.62    -0.194 NA
HETATM    2  C2    D T1240      -5.092   3.551   1.106  1.00 23.58     0.239 A 
HETATM    3  C3    D T1240      -7.027   3.986  -0.274  1.00 22.29     0.187 A 
HETATM    4  C4    D T1240      -7.859   3.010   0.483  1.00 21.48     0.051 A 
HETATM    5  C5    D T1240      -7.105   2.365   1.618  1.00 26.18     0.065 A 
HETATM    6  N6    D T1240      -5.792   2.642   1.894  1.00 28.81    -0.219 NA
HETATM    7  N13   D T1240      -7.596   4.637  -1.288  1.00 22.31    -0.127 N 
HETATM    8  N14   D T1240      -3.742   3.772   1.408  1.00 25.45    -0.060 NA
ENDROOT
BRANCH   4   9
HETATM    9  C7    D T1240      -9.261   2.715   0.151  1.00 23.16     0.000 A 
HETATM   10  C8    D T1240      -9.639   1.515  -0.611  1.00 23.74     0.000 A 
HETATM   11  C9    D T1240     -11.006   1.188  -0.938  1.00 22.05     0.007 A 
HETATM   12  C10   D T1240     -12.029   2.030  -0.529  1.00 28.58     0.040 A 
HETATM   13  C11   D T1240     -11.715   3.248   0.246  1.00 23.69     0.064 A 
HETATM   14 CL1    D T1240     -13.615   1.744  -0.879  1.00  5.79    -0.087 Cl
HETATM   15  C12   D T1240     -10.342   3.554   0.564  1.00 23.56    -0.020 A 
ENDBRANCH   4   9
BRANCH   5  16
HETATM   16  C15   D T1240      -7.803   1.366   2.510  1.00 31.62     0.046 C 
HETATM   17  C16   D T1240      -7.552   1.540   4.001  1.00 31.37     0.007 C 
ENDBRANCH   5  16
TORSDOF 2
ENDMDL
MODEL 8
REMARK VINA RESULT:    -5.961      3.785      6.068
REMARK INTER + INTRA:          -7.229
REMARK INTER:                  -6.728
REMARK INTRA:                  -0.501
REMARK UNBOUND:                -0.571
REMARK  2 active torsions:
REMARK  status: ('A' for Active; 'I' for Inactive)
REMARK    1  A    between atoms: C4_4  and  C7_7 
REMARK    2  A    between atoms: C5_5  and  C15_15 
ROOT
HETATM    1  N1    D T1240      -2.310   2.590   3.547  1.00 25.62    -0.194 NA
HETATM    2  C2    D T1240      -2.478   3.010   4.852  1.00 23.58     0.239 A 
HETATM    3  C3    D T1240      -3.394   2.718   2.636  1.00 22.29     0.187 A 
HETATM    4  C4    D T1240      -4.714   3.274   3.044  1.00 21.48     0.051 A 
HETATM    5  C5    D T1240      -4.738   3.703   4.489  1.00 26.18     0.065 A 
HETATM    6  N6    D T1240      -3.661   3.569   5.326  1.00 28.81    -0.219 NA
HETATM    7  N13   D T1240      -3.247   2.327   1.370  1.00 22.31    -0.127 N 
HETATM    8  N14   D T1240      -1.419   2.862   5.757  1.00 25.45    -0.060 NA
ENDROOT
BRANCH   4   9
HETATM    9  C7    D T1240      -5.861   3.385   2.131  1.00 23.16     0.000 A 
HETATM   10  C8    D T1240      -6.167   4.635   1.420  1.00 23.74     0.000 A 
HETATM   11  C9    D T1240      -7.273   4.771   0.505  1.00 22.05     0.007 A 
HETATM   12  C10   D T1240      -8.106   3.687   0.270  1.00 28.58     0.040 A 
HETATM   13  C11   D T1240      -7.848   2.400   0.948  1.00 23.69     0.064 A 
HETATM   14 CL1    D T1240      -9.406   3.762  -0.742  1.00  5.79    -0.087 Cl
HETATM   15  C12   D T1240      -6.734   2.286   1.857  1.00 23.56    -0.020 A 
ENDBRANCH   4   9
BRANCH   5  16
HETATM   16  C15   D T1240      -5.992   4.314   5.069  1.00 31.62     0.046 C 
HETATM   17  C16   D T1240      -5.920   5.810   5.341  1.00 31.37     0.007 C 
ENDBRANCH   5  16
TORSDOF 2
ENDMDL
MODEL 9
REMARK VINA RESULT:    -5.911      3.392      5.620
REMARK INTER + INTRA:          -7.173
REMARK INTER:                  -6.954
REMARK INTRA:                  -0.218
REMARK UNBOUND:                -0.571
REMARK  2 active torsions:
REMARK  status: ('A' for Active; 'I' for Inactive)
REMARK    1  A    between atoms: C4_4  and  C7_7 
REMARK    2  A    between atoms: C5_5  and  C15_15 
ROOT
HETATM    1  N1    D T1240      -5.629   6.116  -0.143  1.00 25.62    -0.194 NA
HETATM    2  C2    D T1240      -4.910   6.245   1.030  1.00 23.58     0.239 A 
HETATM    3  C3    D T1240      -6.555   5.045  -0.271  1.00 22.29     0.187 A 
HETATM    4  C4    D T1240      -6.764   4.043   0.810  1.00 21.48     0.051 A 
HETATM    5  C5    D T1240      -5.925   4.324   2.030  1.00 26.18     0.065 A 
HETATM    6  N6    D T1240      -5.053   5.379   2.109  1.00 28.81    -0.219 NA
HETATM    7  N13   D T1240      -7.264   4.912  -1.391  1.00 22.31    -0.127 N 
HETATM    8  N14   D T1240      -3.981   7.287   1.148  1.00 25.45    -0.060 NA
ENDROOT
BRANCH   4   9
HETATM    9  C7    D T1240      -7.689   2.906   0.689  1.00 23.16     0.000 A 
HETATM   10  C8    D T1240      -9.147   3.093   0.656  1.00 23.74     0.000 A 
HETATM   11  C9    D T1240     -10.080   2.001   0.521  1.00 22.05     0.007 A 
HETATM   12  C10   D T1240      -9.604   0.703   0.419  1.00 28.58     0.040 A 
HETATM   13  C11   D T1240      -8.149   0.448   0.438  1.00 23.69     0.064 A 
HETATM   14 CL1    D T1240     -10.600  -0.605   0.285  1.00  5.79    -0.087 Cl
HETATM   15  C12   D T1240      -7.235   1.555   0.571  1.00 23.56    -0.020 A 
ENDBRANCH   4   9
BRANCH   5  16
HETATM   16  C15   D T1240      -6.028   3.421   3.236  1.00 31.62     0.046 C 
HETATM   17  C16   D T1240      -5.597   4.046   4.555  1.00 31.37     0.007 C 
ENDBRANCH   5  16
TORSDOF 2
ENDMDL
