MODEL 1
REMARK VINA RESULT:    -6.722      0.000      0.000
REMARK INTER + INTRA:          -8.073
REMARK INTER:                  -7.508
REMARK INTRA:                  -0.565
REMARK UNBOUND:                -0.565
REMARK  2 active torsions:
REMARK  status: ('A' for Active; 'I' for Inactive)
REMARK    1  A    between atoms: C4_4  and  C7_7 
REMARK    2  A    between atoms: C5_5  and  C15_15 
ROOT
HETATM    1  N1    D T 302      -8.335   1.143   1.586  1.00 23.04    -0.194 NA
HETATM    2  C2    D T 302      -8.733   2.184   0.707  1.00 19.75     0.239 A 
HETATM    3  C3    D T 302      -7.149   1.279   2.318  1.00 20.04     0.187 A 
HETATM    4  C4    D T 302      -6.278   2.511   2.182  1.00 18.39     0.051 A 
HETATM    5  C5    D T 302      -6.831   3.556   1.210  1.00 33.99     0.065 A 
HETATM    6  N6    D T 302      -7.996   3.372   0.519  1.00 32.76    -0.219 NA
HETATM    7  N13   D T 302      -6.744   0.308   3.165  1.00 22.47    -0.127 N 
HETATM    8  N14   D T 302      -9.913   2.058  -0.035  1.00 19.91    -0.060 NA
ENDROOT
BRANCH   4   9
HETATM    9  C7    D T 302      -5.035   2.706   2.928  1.00 36.09     0.000 A 
HETATM   10  C8    D T 302      -5.067   3.417   4.241  1.00 33.93     0.000 A 
HETATM   11  C9    D T 302      -3.884   3.641   5.033  1.00 52.13     0.007 A 
HETATM   12  C10   D T 302      -2.640   3.172   4.564  1.00 28.66     0.040 A 
HETATM   13  C11   D T 302      -2.570   2.468   3.280  1.00 35.34     0.064 A 
HETATM   14 CL1    D T 302      -1.224   3.362   5.360  1.00 15.88    -0.087 Cl
HETATM   15  C12   D T 302      -3.760   2.251   2.494  1.00 17.91    -0.020 A 
ENDBRANCH   4   9
BRANCH   5  16
HETATM   16  C15   D T 302      -6.084   4.847   0.984  1.00 42.82     0.046 C 
HETATM   17  C16   D T 302      -4.966   4.859  -0.031  1.00 44.85     0.007 C 
ENDBRANCH   5  16
TORSDOF 2
ENDMDL
MODEL 2
REMARK VINA RESULT:    -6.711      1.687      3.077
REMARK INTER + INTRA:          -8.060
REMARK INTER:                  -7.593
REMARK INTRA:                  -0.467
REMARK UNBOUND:                -0.565
REMARK  2 active torsions:
REMARK  status: ('A' for Active; 'I' for Inactive)
REMARK    1  A    between atoms: C4_4  and  C7_7 
REMARK    2  A    between atoms: C5_5  and  C15_15 
ROOT
HETATM    1  N1    D T 302      -9.281   4.379   0.225  1.00 23.04    -0.194 NA
HETATM    2  C2    D T 302     -10.062   3.197   0.144  1.00 19.75     0.239 A 
HETATM    3  C3    D T 302      -8.013   4.326   0.816  1.00 20.04     0.187 A 
HETATM    4  C4    D T 302      -7.463   3.031   1.381  1.00 18.39     0.051 A 
HETATM    5  C5    D T 302      -8.405   1.836   1.218  1.00 33.99     0.065 A 
HETATM    6  N6    D T 302      -9.635   1.943   0.632  1.00 32.76    -0.219 NA
HETATM    7  N13   D T 302      -7.244   5.432   0.905  1.00 22.47    -0.127 N 
HETATM    8  N14   D T 302     -11.333   3.238  -0.438  1.00 19.91    -0.060 NA
ENDROOT
BRANCH   4   9
HETATM    9  C7    D T 302      -6.143   2.919   2.001  1.00 36.09     0.000 A 
HETATM   10  C8    D T 302      -5.999   3.136   3.472  1.00 33.93     0.000 A 
HETATM   11  C9    D T 302      -4.732   3.038   4.151  1.00 52.13     0.007 A 
HETATM   12  C10   D T 302      -3.574   2.723   3.412  1.00 28.66     0.040 A 
HETATM   13  C11   D T 302      -3.677   2.503   1.966  1.00 35.34     0.064 A 
HETATM   14 CL1    D T 302      -2.078   2.586   4.058  1.00 15.88    -0.087 Cl
HETATM   15  C12   D T 302      -4.950   2.605   1.295  1.00 17.91    -0.020 A 
ENDBRANCH   4   9
BRANCH   5  16
HETATM   16  C15   D T 302      -7.986   0.473   1.713  1.00 42.82     0.046 C 
HETATM   17  C16   D T 302      -8.449  -0.742   0.944  1.00 44.85     0.007 C 
ENDBRANCH   5  16
TORSDOF 2
ENDMDL
MODEL 3
REMARK VINA RESULT:    -6.480      2.563      4.584
REMARK INTER + INTRA:          -7.802
REMARK INTER:                  -7.311
REMARK INTRA:                  -0.491
REMARK UNBOUND:                -0.565
REMARK  2 active torsions:
REMARK  status: ('A' for Active; 'I' for Inactive)
REMARK    1  A    between atoms: C4_4  and  C7_7 
REMARK    2  A    between atoms: C5_5  and  C15_15 
ROOT
HETATM    1  N1    D T 302      -7.939   2.142   1.214  1.00 23.04    -0.194 NA
HETATM    2  C2    D T 302      -7.028   1.160   1.683  1.00 19.75     0.239 A 
HETATM    3  C3    D T 302      -7.466   3.421   0.898  1.00 20.04     0.187 A 
HETATM    4  C4    D T 302      -6.003   3.781   1.059  1.00 18.39     0.051 A 
HETATM    5  C5    D T 302      -5.134   2.626   1.563  1.00 33.99     0.065 A 
HETATM    6  N6    D T 302      -5.647   1.394   1.857  1.00 32.76    -0.219 NA
HETATM    7  N13   D T 302      -8.306   4.377   0.446  1.00 22.47    -0.127 N 
HETATM    8  N14   D T 302      -7.488  -0.121   2.007  1.00 19.91    -0.060 NA
ENDROOT
BRANCH   4   9
HETATM    9  C7    D T 302      -5.457   5.099   0.738  1.00 36.09     0.000 A 
HETATM   10  C8    D T 302      -4.937   5.367  -0.637  1.00 33.93     0.000 A 
HETATM   11  C9    D T 302      -4.390   6.643  -1.026  1.00 52.13     0.007 A 
HETATM   12  C10   D T 302      -4.340   7.689  -0.083  1.00 28.66     0.040 A 
HETATM   13  C11   D T 302      -4.842   7.463   1.276  1.00 35.34     0.064 A 
HETATM   14 CL1    D T 302      -3.742   9.180  -0.393  1.00 15.88    -0.087 Cl
HETATM   15  C12   D T 302      -5.386   6.182   1.656  1.00 17.91    -0.020 A 
ENDBRANCH   4   9
BRANCH   5  16
HETATM   16  C15   D T 302      -3.651   2.826   1.754  1.00 42.82     0.046 C 
HETATM   17  C16   D T 302      -3.051   2.495   3.100  1.00 44.85     0.007 C 
ENDBRANCH   5  16
TORSDOF 2
ENDMDL
MODEL 4
REMARK VINA RESULT:    -6.292      4.601      7.200
REMARK INTER + INTRA:          -7.593
REMARK INTER:                  -7.146
REMARK INTRA:                  -0.446
REMARK UNBOUND:                -0.565
REMARK  2 active torsions:
REMARK  status: ('A' for Active; 'I' for Inactive)
REMARK    1  A    between atoms: C4_4  and  C7_7 
REMARK    2  A    between atoms: C5_5  and  C15_15 
ROOT
HETATM    1  N1    D T 302      -6.794   0.720   1.577  1.00 23.04    -0.194 NA
HETATM    2  C2    D T 302      -6.412   2.082   1.694  1.00 19.75     0.239 A 
HETATM    3  C3    D T 302      -8.032   0.400   1.008  1.00 20.04     0.187 A 
HETATM    4  C4    D T 302      -8.979   1.482   0.527  1.00 18.39     0.051 A 
HETATM    5  C5    D T 302      -8.437   2.902   0.705  1.00 33.99     0.065 A 
HETATM    6  N6    D T 302      -7.219   3.159   1.267  1.00 32.76    -0.219 NA
HETATM    7  N13   D T 302      -8.423  -0.886   0.879  1.00 22.47    -0.127 N 
HETATM    8  N14   D T 302      -5.179   2.416   2.265  1.00 19.91    -0.060 NA
ENDROOT
BRANCH   4   9
HETATM    9  C7    D T 302     -10.280   1.202  -0.080  1.00 36.09     0.000 A 
HETATM   10  C8    D T 302     -10.371   0.957  -1.550  1.00 33.93     0.000 A 
HETATM   11  C9    D T 302     -11.617   0.670  -2.215  1.00 52.13     0.007 A 
HETATM   12  C10   D T 302     -12.806   0.614  -1.460  1.00 28.66     0.040 A 
HETATM   13  C11   D T 302     -12.755   0.848  -0.013  1.00 35.34     0.064 A 
HETATM   14 CL1    D T 302     -14.283   0.303  -2.089  1.00 15.88    -0.087 Cl
HETATM   15  C12   D T 302     -11.503   1.135   0.642  1.00 17.91    -0.020 A 
ENDBRANCH   4   9
BRANCH   5  16
HETATM   16  C15   D T 302      -9.259   4.084   0.253  1.00 42.82     0.046 C 
HETATM   17  C16   D T 302      -8.641   5.460   0.339  1.00 44.85     0.007 C 
ENDBRANCH   5  16
TORSDOF 2
ENDMDL
MODEL 5
REMARK VINA RESULT:    -6.230      3.639      5.885
REMARK INTER + INTRA:          -7.523
REMARK INTER:                  -7.187
REMARK INTRA:                  -0.336
REMARK UNBOUND:                -0.565
REMARK  2 active torsions:
REMARK  status: ('A' for Active; 'I' for Inactive)
REMARK    1  A    between atoms: C4_4  and  C7_7 
REMARK    2  A    between atoms: C5_5  and  C15_15 
ROOT
HETATM    1  N1    D T 302      -5.201   1.947   3.641  1.00 23.04    -0.194 NA
HETATM    2  C2    D T 302      -4.148   2.708   3.070  1.00 19.75     0.239 A 
HETATM    3  C3    D T 302      -6.420   1.843   2.961  1.00 20.04     0.187 A 
HETATM    4  C4    D T 302      -6.640   2.537   1.631  1.00 18.39     0.051 A 
HETATM    5  C5    D T 302      -5.421   3.313   1.129  1.00 33.99     0.065 A 
HETATM    6  N6    D T 302      -4.252   3.382   1.834  1.00 32.76    -0.219 NA
HETATM    7  N13   D T 302      -7.441   1.124   3.475  1.00 22.47    -0.127 N 
HETATM    8  N14   D T 302      -2.926   2.825   3.742  1.00 19.91    -0.060 NA
ENDROOT
BRANCH   4   9
HETATM    9  C7    D T 302      -7.891   2.454   0.877  1.00 36.09     0.000 A 
HETATM   10  C8    D T 302      -8.223   1.202   0.135  1.00 33.93     0.000 A 
HETATM   11  C9    D T 302      -9.438   1.048  -0.625  1.00 52.13     0.007 A 
HETATM   12  C10   D T 302     -10.361   2.112  -0.676  1.00 28.66     0.040 A 
HETATM   13  C11   D T 302     -10.069   3.357   0.042  1.00 35.34     0.064 A 
HETATM   14 CL1    D T 302     -11.771   2.069  -1.502  1.00 15.88    -0.087 Cl
HETATM   15  C12   D T 302      -8.849   3.502   0.798  1.00 17.91    -0.020 A 
ENDBRANCH   4   9
BRANCH   5  16
HETATM   16  C15   D T 302      -5.481   4.040  -0.192  1.00 42.82     0.046 C 
HETATM   17  C16   D T 302      -4.452   5.111  -0.467  1.00 44.85     0.007 C 
ENDBRANCH   5  16
TORSDOF 2
ENDMDL
MODEL 6
REMARK VINA RESULT:    -6.147      3.050      4.056
REMARK INTER + INTRA:          -7.430
REMARK INTER:                  -7.036
REMARK INTRA:                  -0.395
REMARK UNBOUND:                -0.565
REMARK  2 active torsions:
REMARK  status: ('A' for Active; 'I' for Inactive)
REMARK    1  A    between atoms: C4_4  and  C7_7 
REMARK    2  A    between atoms: C5_5  and  C15_15 
ROOT
HETATM    1  N1    D T 302      -7.110   0.403   1.428  1.00 23.04    -0.194 NA
HETATM    2  C2    D T 302      -8.477   0.373   1.049  1.00 19.75     0.239 A 
HETATM    3  C3    D T 302      -6.420   1.621   1.415  1.00 20.04     0.187 A 
HETATM    4  C4    D T 302      -7.104   2.907   0.993  1.00 18.39     0.051 A 
HETATM    5  C5    D T 302      -8.577   2.731   0.620  1.00 33.99     0.065 A 
HETATM    6  N6    D T 302      -9.203   1.516   0.650  1.00 32.76    -0.219 NA
HETATM    7  N13   D T 302      -5.120   1.684   1.773  1.00 22.47    -0.127 N 
HETATM    8  N14   D T 302      -9.177  -0.839   1.052  1.00 19.91    -0.060 NA
ENDROOT
BRANCH   4   9
HETATM    9  C7    D T 302      -6.431   4.206   0.968  1.00 36.09     0.000 A 
HETATM   10  C8    D T 302      -5.565   4.566  -0.194  1.00 33.93     0.000 A 
HETATM   11  C9    D T 302      -4.876   5.828  -0.288  1.00 52.13     0.007 A 
HETATM   12  C10   D T 302      -5.018   6.772   0.750  1.00 28.66     0.040 A 
HETATM   13  C11   D T 302      -5.861   6.453   1.906  1.00 35.34     0.064 A 
HETATM   14 CL1    D T 302      -4.290   8.236   0.768  1.00 15.88    -0.087 Cl
HETATM   15  C12   D T 302      -6.545   5.186   1.991  1.00 17.91    -0.020 A 
ENDBRANCH   4   9
BRANCH   5  16
HETATM   16  C15   D T 302      -9.397   3.925   0.198  1.00 42.82     0.046 C 
HETATM   17  C16   D T 302     -10.902   3.822   0.269  1.00 44.85     0.007 C 
ENDBRANCH   5  16
TORSDOF 2
ENDMDL
MODEL 7
REMARK VINA RESULT:    -6.090      4.770      7.571
REMARK INTER + INTRA:          -7.367
REMARK INTER:                  -6.799
REMARK INTRA:                  -0.568
REMARK UNBOUND:                -0.565
REMARK  2 active torsions:
REMARK  status: ('A' for Active; 'I' for Inactive)
REMARK    1  A    between atoms: C4_4  and  C7_7 
REMARK    2  A    between atoms: C5_5  and  C15_15 
ROOT
HETATM    1  N1    D T 302      -7.884   4.732   0.901  1.00 23.04    -0.194 NA
HETATM    2  C2    D T 302      -6.742   3.899   1.037  1.00 19.75     0.239 A 
HETATM    3  C3    D T 302      -9.101   4.168   0.499  1.00 20.04     0.187 A 
HETATM    4  C4    D T 302      -9.218   2.688   0.194  1.00 18.39     0.051 A 
HETATM    5  C5    D T 302      -7.916   1.910   0.390  1.00 33.99     0.065 A 
HETATM    6  N6    D T 302      -6.753   2.511   0.786  1.00 32.76    -0.219 NA
HETATM    7  N13   D T 302     -10.206   4.932   0.364  1.00 22.47    -0.127 N 
HETATM    8  N14   D T 302      -5.519   4.451   1.433  1.00 19.91    -0.060 NA
ENDROOT
BRANCH   4   9
HETATM    9  C7    D T 302     -10.466   2.048  -0.223  1.00 36.09     0.000 A 
HETATM   10  C8    D T 302     -10.767   1.897  -1.678  1.00 33.93     0.000 A 
HETATM   11  C9    D T 302     -11.973   1.274  -2.162  1.00 52.13     0.007 A 
HETATM   12  C10   D T 302     -12.915   0.780  -1.237  1.00 28.66     0.040 A 
HETATM   13  C11   D T 302     -12.653   0.911   0.200  1.00 35.34     0.064 A 
HETATM   14 CL1    D T 302     -14.321   0.057  -1.651  1.00 15.88    -0.087 Cl
HETATM   15  C12   D T 302     -11.444   1.538   0.674  1.00 17.91    -0.020 A 
ENDBRANCH   4   9
BRANCH   5  16
HETATM   16  C15   D T 302      -7.881   0.422   0.145  1.00 42.82     0.046 C 
HETATM   17  C16   D T 302      -8.309  -0.499   1.264  1.00 44.85     0.007 C 
ENDBRANCH   5  16
TORSDOF 2
ENDMDL
MODEL 8
REMARK VINA RESULT:    -6.004      2.894      4.482
REMARK INTER + INTRA:          -7.270
REMARK INTER:                  -6.820
REMARK INTRA:                  -0.450
REMARK UNBOUND:                -0.565
REMARK  2 active torsions:
REMARK  status: ('A' for Active; 'I' for Inactive)
REMARK    1  A    between atoms: C4_4  and  C7_7 
REMARK    2  A    between atoms: C5_5  and  C15_15 
ROOT
HETATM    1  N1    D T 302      -5.681   1.400   1.908  1.00 23.04    -0.194 NA
HETATM    2  C2    D T 302      -7.071   1.192   1.705  1.00 19.75     0.239 A 
HETATM    3  C3    D T 302      -5.124   2.648   1.610  1.00 20.04     0.187 A 
HETATM    4  C4    D T 302      -5.973   3.778   1.063  1.00 18.39     0.051 A 
HETATM    5  C5    D T 302      -7.452   3.420   0.903  1.00 33.99     0.065 A 
HETATM    6  N6    D T 302      -7.945   2.182   1.209  1.00 32.76    -0.219 NA
HETATM    7  N13   D T 302      -3.806   2.880   1.796  1.00 22.47    -0.127 N 
HETATM    8  N14   D T 302      -7.640  -0.053   1.993  1.00 19.91    -0.060 NA
ENDROOT
BRANCH   4   9
HETATM    9  C7    D T 302      -5.441   5.103   0.742  1.00 36.09     0.000 A 
HETATM   10  C8    D T 302      -4.925   5.377  -0.633  1.00 33.93     0.000 A 
HETATM   11  C9    D T 302      -4.392   6.658  -1.022  1.00 52.13     0.007 A 
HETATM   12  C10   D T 302      -4.351   7.705  -0.078  1.00 28.66     0.040 A 
HETATM   13  C11   D T 302      -4.849   7.473   1.281  1.00 35.34     0.064 A 
HETATM   14 CL1    D T 302      -3.769   9.201  -0.388  1.00 15.88    -0.087 Cl
HETATM   15  C12   D T 302      -5.380   6.186   1.660  1.00 17.91    -0.020 A 
ENDBRANCH   4   9
BRANCH   5  16
HETATM   16  C15   D T 302      -8.426   4.450   0.388  1.00 42.82     0.046 C 
HETATM   17  C16   D T 302      -9.883   4.066   0.280  1.00 44.85     0.007 C 
ENDBRANCH   5  16
TORSDOF 2
ENDMDL
MODEL 9
REMARK VINA RESULT:    -5.775      6.060      7.852
REMARK INTER + INTRA:          -7.015
REMARK INTER:                  -6.583
REMARK INTRA:                  -0.432
REMARK UNBOUND:                -0.565
REMARK  2 active torsions:
REMARK  status: ('A' for Active; 'I' for Inactive)
REMARK    1  A    between atoms: C4_4  and  C7_7 
REMARK    2  A    between atoms: C5_5  and  C15_15 
ROOT
HETATM    1  N1    D T 302      -7.870   9.478   1.181  1.00 23.04    -0.194 NA
HETATM    2  C2    D T 302      -7.897   8.242   0.483  1.00 19.75     0.239 A 
HETATM    3  C3    D T 302      -6.679  10.211   1.234  1.00 20.04     0.187 A 
HETATM    4  C4    D T 302      -5.414   9.704   0.570  1.00 18.39     0.051 A 
HETATM    5  C5    D T 302      -5.588   8.366  -0.152  1.00 33.99     0.065 A 
HETATM    6  N6    D T 302      -6.776   7.691  -0.173  1.00 32.76    -0.219 NA
HETATM    7  N13   D T 302      -6.621  11.392   1.886  1.00 22.47    -0.127 N 
HETATM    8  N14   D T 302      -9.080   7.498   0.427  1.00 19.91    -0.060 NA
ENDROOT
BRANCH   4   9
HETATM    9  C7    D T 302      -4.146  10.433   0.591  1.00 36.09     0.000 A 
HETATM   10  C8    D T 302      -3.104  10.072   1.598  1.00 33.93     0.000 A 
HETATM   11  C9    D T 302      -1.831  10.743   1.674  1.00 52.13     0.007 A 
HETATM   12  C10   D T 302      -1.542  11.782   0.766  1.00 28.66     0.040 A 
HETATM   13  C11   D T 302      -2.541  12.163  -0.238  1.00 35.34     0.064 A 
HETATM   14 CL1    D T 302      -0.141  12.625   0.746  1.00 15.88    -0.087 Cl
HETATM   15  C12   D T 302      -3.813  11.485  -0.305  1.00 17.91    -0.020 A 
ENDBRANCH   4   9
BRANCH   5  16
HETATM   16  C15   D T 302      -4.421   7.744  -0.878  1.00 42.82     0.046 C 
HETATM   17  C16   D T 302      -4.413   6.245  -1.069  1.00 44.85     0.007 C 
ENDBRANCH   5  16
TORSDOF 2
ENDMDL
