MODEL 1
REMARK VINA RESULT:    -7.029      0.000      0.000
REMARK INTER + INTRA:          -8.344
REMARK INTER:                  -7.851
REMARK INTRA:                  -0.494
REMARK UNBOUND:                -0.494
REMARK  2 active torsions:
REMARK  status: ('A' for Active; 'I' for Inactive)
REMARK    1  A    between atoms: C4_4  and  C7_7 
REMARK    2  A    between atoms: C5_5  and  C15_15 
ROOT
HETATM    1  N1    D T 302     -22.285   9.622  13.067  1.00 23.04    -0.194 NA
HETATM    2  C2    D T 302     -23.422   9.660  12.217  1.00 19.75     0.239 A 
HETATM    3  C3    D T 302     -21.411   8.533  12.997  1.00 20.04     0.187 A 
HETATM    4  C4    D T 302     -21.659   7.387  12.037  1.00 18.39     0.051 A 
HETATM    5  C5    D T 302     -22.911   7.562  11.175  1.00 33.99     0.065 A 
HETATM    6  N6    D T 302     -23.734   8.647  11.285  1.00 32.76    -0.219 NA
HETATM    7  N13   D T 302     -20.318   8.470  13.788  1.00 22.47    -0.127 N 
HETATM    8  N14   D T 302     -24.308  10.740  12.283  1.00 19.91    -0.060 NA
ENDROOT
BRANCH   4   9
HETATM    9  C7    D T 302     -20.772   6.230  11.919  1.00 36.09     0.000 A 
HETATM   10  C8    D T 302     -21.147   4.943  12.579  1.00 33.93     0.000 A 
HETATM   11  C9    D T 302     -20.324   3.761  12.501  1.00 52.13     0.007 A 
HETATM   12  C10   D T 302     -19.118   3.806  11.776  1.00 28.66     0.040 A 
HETATM   13  C11   D T 302     -18.717   5.051  11.114  1.00 35.34     0.064 A 
HETATM   14 CL1    D T 302     -18.094   2.541  11.613  1.00 15.88    -0.087 Cl
HETATM   15  C12   D T 302     -19.547   6.229  11.198  1.00 17.91    -0.020 A 
ENDBRANCH   4   9
BRANCH   5  16
HETATM   16  C15   D T 302     -23.279   6.509  10.158  1.00 42.82     0.046 C 
HETATM   17  C16   D T 302     -24.399   5.551  10.494  1.00 44.85     0.007 C 
ENDBRANCH   5  16
TORSDOF 2
ENDMDL
MODEL 2
REMARK VINA RESULT:    -6.814      4.263      6.347
REMARK INTER + INTRA:          -8.104
REMARK INTER:                  -7.733
REMARK INTRA:                  -0.370
REMARK UNBOUND:                -0.494
REMARK  2 active torsions:
REMARK  status: ('A' for Active; 'I' for Inactive)
REMARK    1  A    between atoms: C4_4  and  C7_7 
REMARK    2  A    between atoms: C5_5  and  C15_15 
ROOT
HETATM    1  N1    D T 302     -18.474   2.367  10.848  1.00 23.04    -0.194 NA
HETATM    2  C2    D T 302     -19.077   1.299  11.566  1.00 19.75     0.239 A 
HETATM    3  C3    D T 302     -18.925   3.674  11.055  1.00 20.04     0.187 A 
HETATM    4  C4    D T 302     -20.053   3.973  12.023  1.00 18.39     0.051 A 
HETATM    5  C5    D T 302     -20.602   2.734  12.734  1.00 33.99     0.065 A 
HETATM    6  N6    D T 302     -20.125   1.476  12.494  1.00 32.76    -0.219 NA
HETATM    7  N13   D T 302     -18.370   4.712  10.392  1.00 22.47    -0.127 N 
HETATM    8  N14   D T 302     -18.639  -0.013  11.362  1.00 19.91    -0.060 NA
ENDROOT
BRANCH   4   9
HETATM    9  C7    D T 302     -20.556   5.321  12.281  1.00 36.09     0.000 A 
HETATM   10  C8    D T 302     -19.791   6.235  13.181  1.00 33.93     0.000 A 
HETATM   11  C9    D T 302     -20.225   7.578  13.477  1.00 52.13     0.007 A 
HETATM   12  C10   D T 302     -21.415   8.062  12.899  1.00 28.66     0.040 A 
HETATM   13  C11   D T 302     -22.193   7.195  12.009  1.00 35.34     0.064 A 
HETATM   14 CL1    D T 302     -22.019   9.561  13.154  1.00 15.88    -0.087 Cl
HETATM   15  C12   D T 302     -21.751   5.851  11.721  1.00 17.91    -0.020 A 
ENDBRANCH   4   9
BRANCH   5  16
HETATM   16  C15   D T 302     -21.716   2.875  13.742  1.00 42.82     0.046 C 
HETATM   17  C16   D T 302     -22.069   1.676  14.591  1.00 44.85     0.007 C 
ENDBRANCH   5  16
TORSDOF 2
ENDMDL
MODEL 3
REMARK VINA RESULT:    -6.731      2.456      3.965
REMARK INTER + INTRA:          -8.012
REMARK INTER:                  -7.502
REMARK INTRA:                  -0.510
REMARK UNBOUND:                -0.494
REMARK  2 active torsions:
REMARK  status: ('A' for Active; 'I' for Inactive)
REMARK    1  A    between atoms: C4_4  and  C7_7 
REMARK    2  A    between atoms: C5_5  and  C15_15 
ROOT
HETATM    1  N1    D T 302     -23.843   4.480  11.254  1.00 23.04    -0.194 NA
HETATM    2  C2    D T 302     -23.762   5.898  11.230  1.00 19.75     0.239 A 
HETATM    3  C3    D T 302     -22.703   3.732  11.566  1.00 20.04     0.187 A 
HETATM    4  C4    D T 302     -21.379   4.406  11.870  1.00 18.39     0.051 A 
HETATM    5  C5    D T 302     -21.438   5.935  11.819  1.00 33.99     0.065 A 
HETATM    6  N6    D T 302     -22.580   6.617  11.506  1.00 32.76    -0.219 NA
HETATM    7  N13   D T 302     -22.747   2.383  11.602  1.00 22.47    -0.127 N 
HETATM    8  N14   D T 302     -24.893   6.656  10.912  1.00 19.91    -0.060 NA
ENDROOT
BRANCH   4   9
HETATM    9  C7    D T 302     -20.161   3.672  12.209  1.00 36.09     0.000 A 
HETATM   10  C8    D T 302     -19.214   3.273  11.124  1.00 33.93     0.000 A 
HETATM   11  C9    D T 302     -17.993   2.552  11.385  1.00 52.13     0.007 A 
HETATM   12  C10   D T 302     -17.666   2.205  12.710  1.00 28.66     0.040 A 
HETATM   13  C11   D T 302     -18.569   2.580  13.801  1.00 35.34     0.064 A 
HETATM   14 CL1    D T 302     -16.316   1.387  13.141  1.00 15.88    -0.087 Cl
HETATM   15  C12   D T 302     -19.790   3.301  13.530  1.00 17.91    -0.020 A 
ENDBRANCH   4   9
BRANCH   5  16
HETATM   16  C15   D T 302     -20.201   6.746  12.117  1.00 42.82     0.046 C 
HETATM   17  C16   D T 302     -20.231   7.687  13.299  1.00 44.85     0.007 C 
ENDBRANCH   5  16
TORSDOF 2
ENDMDL
MODEL 4
REMARK VINA RESULT:    -6.662      3.577      5.658
REMARK INTER + INTRA:          -7.935
REMARK INTER:                  -7.475
REMARK INTRA:                  -0.459
REMARK UNBOUND:                -0.494
REMARK  2 active torsions:
REMARK  status: ('A' for Active; 'I' for Inactive)
REMARK    1  A    between atoms: C4_4  and  C7_7 
REMARK    2  A    between atoms: C5_5  and  C15_15 
ROOT
HETATM    1  N1    D T 302     -19.802   6.409  13.330  1.00 23.04    -0.194 NA
HETATM    2  C2    D T 302     -20.113   5.149  12.754  1.00 19.75     0.239 A 
HETATM    3  C3    D T 302     -20.717   7.461  13.216  1.00 20.04     0.187 A 
HETATM    4  C4    D T 302     -22.029   7.285  12.480  1.00 18.39     0.051 A 
HETATM    5  C5    D T 302     -22.240   5.877  11.918  1.00 33.99     0.065 A 
HETATM    6  N6    D T 302     -21.311   4.884  12.057  1.00 32.76    -0.219 NA
HETATM    7  N13   D T 302     -20.453   8.671  13.757  1.00 22.47    -0.127 N 
HETATM    8  N14   D T 302     -19.204   4.092  12.856  1.00 19.91    -0.060 NA
ENDROOT
BRANCH   4   9
HETATM    9  C7    D T 302     -23.022   8.349  12.338  1.00 36.09     0.000 A 
HETATM   10  C8    D T 302     -24.101   8.493  13.361  1.00 33.93     0.000 A 
HETATM   11  C9    D T 302     -25.110   9.521  13.288  1.00 52.13     0.007 A 
HETATM   12  C10   D T 302     -25.088  10.434  12.215  1.00 28.66     0.040 A 
HETATM   13  C11   D T 302     -24.044  10.325  11.192  1.00 35.34     0.064 A 
HETATM   14 CL1    D T 302     -26.173  11.642  12.013  1.00 15.88    -0.087 Cl
HETATM   15  C12   D T 302     -23.039   9.292  11.273  1.00 17.91    -0.020 A 
ENDBRANCH   4   9
BRANCH   5  16
HETATM   16  C15   D T 302     -23.509   5.544  11.175  1.00 42.82     0.046 C 
HETATM   17  C16   D T 302     -23.969   4.104  11.153  1.00 44.85     0.007 C 
ENDBRANCH   5  16
TORSDOF 2
ENDMDL
MODEL 5
REMARK VINA RESULT:    -6.445      2.208      3.392
REMARK INTER + INTRA:          -7.693
REMARK INTER:                  -7.127
REMARK INTRA:                  -0.565
REMARK UNBOUND:                -0.494
REMARK  2 active torsions:
REMARK  status: ('A' for Active; 'I' for Inactive)
REMARK    1  A    between atoms: C4_4  and  C7_7 
REMARK    2  A    between atoms: C5_5  and  C15_15 
ROOT
HETATM    1  N1    D T 302     -22.408   6.793  11.527  1.00 23.04    -0.194 NA
HETATM    2  C2    D T 302     -23.613   6.076  11.299  1.00 19.75     0.239 A 
HETATM    3  C3    D T 302     -21.237   6.089  11.825  1.00 20.04     0.187 A 
HETATM    4  C4    D T 302     -21.230   4.577  11.921  1.00 18.39     0.051 A 
HETATM    5  C5    D T 302     -22.591   3.934  11.643  1.00 33.99     0.065 A 
HETATM    6  N6    D T 302     -23.707   4.669  11.357  1.00 32.76    -0.219 NA
HETATM    7  N13   D T 302     -20.074   6.741  12.042  1.00 22.47    -0.127 N 
HETATM    8  N14   D T 302     -24.792   6.768  11.007  1.00 19.91    -0.060 NA
ENDROOT
BRANCH   4   9
HETATM    9  C7    D T 302     -20.032   3.794  12.222  1.00 36.09     0.000 A 
HETATM   10  C8    D T 302     -19.183   3.285  11.104  1.00 33.93     0.000 A 
HETATM   11  C9    D T 302     -17.986   2.511  11.327  1.00 52.13     0.007 A 
HETATM   12  C10   D T 302     -17.590   2.218  12.646  1.00 28.66     0.040 A 
HETATM   13  C11   D T 302     -18.397   2.702  13.770  1.00 35.34     0.064 A 
HETATM   14 CL1    D T 302     -16.259   1.349  13.036  1.00 15.88    -0.087 Cl
HETATM   15  C12   D T 302     -19.594   3.474  13.537  1.00 17.91    -0.020 A 
ENDBRANCH   4   9
BRANCH   5  16
HETATM   16  C15   D T 302     -22.738   2.433  11.684  1.00 42.82     0.046 C 
HETATM   17  C16   D T 302     -23.183   1.793  12.979  1.00 44.85     0.007 C 
ENDBRANCH   5  16
TORSDOF 2
ENDMDL
MODEL 6
REMARK VINA RESULT:    -6.342      4.891      6.809
REMARK INTER + INTRA:          -7.577
REMARK INTER:                  -7.194
REMARK INTRA:                  -0.383
REMARK UNBOUND:                -0.494
REMARK  2 active torsions:
REMARK  status: ('A' for Active; 'I' for Inactive)
REMARK    1  A    between atoms: C4_4  and  C7_7 
REMARK    2  A    between atoms: C5_5  and  C15_15 
ROOT
HETATM    1  N1    D T 302     -21.835   4.397  11.957  1.00 23.04    -0.194 NA
HETATM    2  C2    D T 302     -20.418   4.303  11.991  1.00 19.75     0.239 A 
HETATM    3  C3    D T 302     -22.601   3.228  11.994  1.00 20.04     0.187 A 
HETATM    4  C4    D T 302     -21.949   1.861  12.057  1.00 18.39     0.051 A 
HETATM    5  C5    D T 302     -20.420   1.907  12.098  1.00 33.99     0.065 A 
HETATM    6  N6    D T 302     -19.718   3.079  12.059  1.00 32.76    -0.219 NA
HETATM    7  N13   D T 302     -23.951   3.283  11.968  1.00 22.47    -0.127 N 
HETATM    8  N14   D T 302     -19.640   5.464  11.948  1.00 19.91    -0.060 NA
ENDROOT
BRANCH   4   9
HETATM    9  C7    D T 302     -22.704   0.610  12.104  1.00 36.09     0.000 A 
HETATM   10  C8    D T 302     -22.896  -0.087  13.411  1.00 33.93     0.000 A 
HETATM   11  C9    D T 302     -23.632  -1.322  13.534  1.00 52.13     0.007 A 
HETATM   12  C10   D T 302     -24.201  -1.903  12.383  1.00 28.66     0.040 A 
HETATM   13  C11   D T 302     -24.036  -1.246  11.083  1.00 35.34     0.064 A 
HETATM   14 CL1    D T 302     -25.055  -3.298  12.384  1.00 15.88    -0.087 Cl
HETATM   15  C12   D T 302     -23.296  -0.012  10.971  1.00 17.91    -0.020 A 
ENDBRANCH   4   9
BRANCH   5  16
HETATM   16  C15   D T 302     -19.629   0.625  12.181  1.00 42.82     0.046 C 
HETATM   17  C16   D T 302     -18.275   0.575  11.511  1.00 44.85     0.007 C 
ENDBRANCH   5  16
TORSDOF 2
ENDMDL
MODEL 7
REMARK VINA RESULT:    -6.067      8.542     10.275
REMARK INTER + INTRA:          -7.270
REMARK INTER:                  -6.882
REMARK INTRA:                  -0.388
REMARK UNBOUND:                -0.494
REMARK  2 active torsions:
REMARK  status: ('A' for Active; 'I' for Inactive)
REMARK    1  A    between atoms: C4_4  and  C7_7 
REMARK    2  A    between atoms: C5_5  and  C15_15 
ROOT
HETATM    1  N1    D T 302     -24.604  -0.693   9.669  1.00 23.04    -0.194 NA
HETATM    2  C2    D T 302     -24.448   0.373  10.594  1.00 19.75     0.239 A 
HETATM    3  C3    D T 302     -24.345  -2.004  10.081  1.00 20.04     0.187 A 
HETATM    4  C4    D T 302     -23.891  -2.309  11.495  1.00 18.39     0.051 A 
HETATM    5  C5    D T 302     -23.775  -1.070  12.387  1.00 33.99     0.065 A 
HETATM    6  N6    D T 302     -24.039   0.191  11.932  1.00 32.76    -0.219 NA
HETATM    7  N13   D T 302     -24.489  -3.041   9.227  1.00 22.47    -0.127 N 
HETATM    8  N14   D T 302     -24.697   1.688  10.192  1.00 19.91    -0.060 NA
ENDROOT
BRANCH   4   9
HETATM    9  C7    D T 302     -23.615  -3.661  11.978  1.00 36.09     0.000 A 
HETATM   10  C8    D T 302     -22.201  -4.130  12.089  1.00 33.93     0.000 A 
HETATM   11  C9    D T 302     -21.854  -5.448  12.561  1.00 52.13     0.007 A 
HETATM   12  C10   D T 302     -22.878  -6.338  12.939  1.00 28.66     0.040 A 
HETATM   13  C11   D T 302     -24.278  -5.912  12.845  1.00 35.34     0.064 A 
HETATM   14 CL1    D T 302     -22.621  -7.858  13.487  1.00 15.88    -0.087 Cl
HETATM   15  C12   D T 302     -24.616  -4.592  12.370  1.00 17.91    -0.020 A 
ENDBRANCH   4   9
BRANCH   5  16
HETATM   16  C15   D T 302     -23.350  -1.217  13.828  1.00 42.82     0.046 C 
HETATM   17  C16   D T 302     -22.830   0.006  14.548  1.00 44.85     0.007 C 
ENDBRANCH   5  16
TORSDOF 2
ENDMDL
MODEL 8
REMARK VINA RESULT:    -5.987      5.131      6.614
REMARK INTER + INTRA:          -7.180
REMARK INTER:                  -6.695
REMARK INTRA:                  -0.485
REMARK UNBOUND:                -0.494
REMARK  2 active torsions:
REMARK  status: ('A' for Active; 'I' for Inactive)
REMARK    1  A    between atoms: C4_4  and  C7_7 
REMARK    2  A    between atoms: C5_5  and  C15_15 
ROOT
HETATM    1  N1    D T 302     -19.626   2.923  12.148  1.00 23.04    -0.194 NA
HETATM    2  C2    D T 302     -20.355   4.134  12.009  1.00 19.75     0.239 A 
HETATM    3  C3    D T 302     -20.318   1.710  12.231  1.00 20.04     0.187 A 
HETATM    4  C4    D T 302     -21.832   1.665  12.187  1.00 18.39     0.051 A 
HETATM    5  C5    D T 302     -22.488   3.039  12.026  1.00 33.99     0.065 A 
HETATM    6  N6    D T 302     -21.763   4.195  11.950  1.00 32.76    -0.219 NA
HETATM    7  N13   D T 302     -19.654   0.541  12.358  1.00 22.47    -0.127 N 
HETATM    8  N14   D T 302     -19.674   5.353  11.932  1.00 19.91    -0.060 NA
ENDROOT
BRANCH   4   9
HETATM    9  C7    D T 302     -22.603   0.425  12.264  1.00 36.09     0.000 A 
HETATM   10  C8    D T 302     -23.153  -0.180  11.013  1.00 33.93     0.000 A 
HETATM   11  C9    D T 302     -23.919  -1.403  11.012  1.00 52.13     0.007 A 
HETATM   12  C10   D T 302     -24.163  -2.065  12.231  1.00 28.66     0.040 A 
HETATM   13  C11   D T 302     -23.637  -1.503  13.479  1.00 35.34     0.064 A 
HETATM   14 CL1    D T 302     -25.016  -3.454  12.369  1.00 15.88    -0.087 Cl
HETATM   15  C12   D T 302     -22.874  -0.278  13.470  1.00 17.91    -0.020 A 
ENDBRANCH   4   9
BRANCH   5  16
HETATM   16  C15   D T 302     -23.990   3.152  11.949  1.00 42.82     0.046 C 
HETATM   17  C16   D T 302     -24.635   3.193  10.582  1.00 44.85     0.007 C 
ENDBRANCH   5  16
TORSDOF 2
ENDMDL
MODEL 9
REMARK VINA RESULT:    -5.744      3.772      5.699
REMARK INTER + INTRA:          -6.910
REMARK INTER:                  -6.832
REMARK INTRA:                  -0.078
REMARK UNBOUND:                -0.494
REMARK  2 active torsions:
REMARK  status: ('A' for Active; 'I' for Inactive)
REMARK    1  A    between atoms: C4_4  and  C7_7 
REMARK    2  A    between atoms: C5_5  and  C15_15 
ROOT
HETATM    1  N1    D T 302     -19.335   4.190  12.732  1.00 23.04    -0.194 NA
HETATM    2  C2    D T 302     -19.991   2.951  12.503  1.00 19.75     0.239 A 
HETATM    3  C3    D T 302     -20.050   5.383  12.588  1.00 20.04     0.187 A 
HETATM    4  C4    D T 302     -21.509   5.381  12.180  1.00 18.39     0.051 A 
HETATM    5  C5    D T 302     -22.092   3.980  11.975  1.00 33.99     0.065 A 
HETATM    6  N6    D T 302     -21.348   2.845  12.129  1.00 32.76    -0.219 NA
HETATM    7  N13   D T 302     -19.456   6.577  12.804  1.00 22.47    -0.127 N 
HETATM    8  N14   D T 302     -19.286   1.752  12.638  1.00 19.91    -0.060 NA
ENDROOT
BRANCH   4   9
HETATM    9  C7    D T 302     -22.303   6.599  12.021  1.00 36.09     0.000 A 
HETATM   10  C8    D T 302     -22.884   6.932  10.686  1.00 33.93     0.000 A 
HETATM   11  C9    D T 302     -23.680   8.113  10.458  1.00 52.13     0.007 A 
HETATM   12  C10   D T 302     -23.929   8.995  11.527  1.00 28.66     0.040 A 
HETATM   13  C11   D T 302     -23.376   8.701  12.853  1.00 35.34     0.064 A 
HETATM   14 CL1    D T 302     -24.811  10.367  11.402  1.00 15.88    -0.087 Cl
HETATM   15  C12   D T 302     -22.580   7.517  13.071  1.00 17.91    -0.020 A 
ENDBRANCH   4   9
BRANCH   5  16
HETATM   16  C15   D T 302     -23.540   3.817  11.584  1.00 42.82     0.046 C 
HETATM   17  C16   D T 302     -23.964   2.518  10.938  1.00 44.85     0.007 C 
ENDBRANCH   5  16
TORSDOF 2
ENDMDL
