MODEL 1
REMARK VINA RESULT:      -6.9      0.000      0.000
REMARK  2 active torsions:
REMARK  status: ('A' for Active; 'I' for Inactive)
REMARK    1  A    between atoms: C4_4  and  C7_7 
REMARK    2  A    between atoms: C5_5  and  C15_15 
ROOT
HETATM    1  N1    D T 302      31.171  -0.157  16.468  1.00 23.04    -0.194 NA
HETATM    2  C2    D T 302      31.190  -1.574  16.383  1.00 19.75     0.239 A 
HETATM    3  C3    D T 302      30.699   0.590  15.382  1.00 20.04     0.187 A 
HETATM    4  C4    D T 302      30.218  -0.085  14.113  1.00 18.39     0.051 A 
HETATM    5  C5    D T 302      30.285  -1.614  14.162  1.00 33.99     0.065 A 
HETATM    6  N6    D T 302      30.756  -2.294  15.249  1.00 32.76    -0.219 NA
HETATM    7  N13   D T 302      30.664   1.939  15.433  1.00 22.47    -0.127 N 
HETATM    8  N14   D T 302      31.665  -2.331  17.459  1.00 19.91    -0.060 NA
ENDROOT
BRANCH   4   9
HETATM    9  C7    D T 302      29.710   0.648  12.954  1.00 36.09     0.000 A 
HETATM   10  C8    D T 302      30.650   1.048  11.865  1.00 33.93     0.000 A 
HETATM   11  C9    D T 302      30.220   1.768  10.692  1.00 52.13     0.007 A 
HETATM   12  C10   D T 302      28.861   2.114  10.555  1.00 28.66     0.040 A 
HETATM   13  C11   D T 302      27.908   1.738  11.603  1.00 35.34     0.064 A 
HETATM   14 CL1    D T 302      28.244   2.932   9.279  1.00 15.88    -0.087 Cl
HETATM   15  C12   D T 302      28.349   1.018  12.774  1.00 17.91    -0.020 A 
ENDBRANCH   4   9
BRANCH   5  16
HETATM   16  C15   D T 302      29.822  -2.427  12.978  1.00 42.82     0.046 C 
HETATM   17  C16   D T 302      29.941  -3.931  13.054  1.00 44.85     0.007 C 
ENDBRANCH   5  16
TORSDOF 2
ENDMDL
MODEL 2
REMARK VINA RESULT:      -6.8      1.191      2.789
REMARK  2 active torsions:
REMARK  status: ('A' for Active; 'I' for Inactive)
REMARK    1  A    between atoms: C4_4  and  C7_7 
REMARK    2  A    between atoms: C5_5  and  C15_15 
ROOT
HETATM    1  N1    D T 302      30.714  -2.257  14.619  1.00 23.04    -0.194 NA
HETATM    2  C2    D T 302      30.931  -1.591  15.854  1.00 19.75     0.239 A 
HETATM    3  C3    D T 302      30.317  -1.518  13.499  1.00 20.04     0.187 A 
HETATM    4  C4    D T 302      30.102  -0.019  13.583  1.00 18.39     0.051 A 
HETATM    5  C5    D T 302      30.379   0.569  14.968  1.00 33.99     0.065 A 
HETATM    6  N6    D T 302      30.765  -0.200  16.029  1.00 32.76    -0.219 NA
HETATM    7  N13   D T 302      30.108  -2.121  12.309  1.00 22.47    -0.127 N 
HETATM    8  N14   D T 302      31.322  -2.320  16.981  1.00 19.91    -0.060 NA
ENDROOT
BRANCH   4   9
HETATM    9  C7    D T 302      29.694   0.800  12.442  1.00 36.09     0.000 A 
HETATM   10  C8    D T 302      30.732   1.502  11.629  1.00 33.93     0.000 A 
HETATM   11  C9    D T 302      30.403   2.322  10.490  1.00 52.13     0.007 A 
HETATM   12  C10   D T 302      29.053   2.475  10.116  1.00 28.66     0.040 A 
HETATM   13  C11   D T 302      28.006   1.801  10.889  1.00 35.34     0.064 A 
HETATM   14 CL1    D T 302      28.546   3.379   8.850  1.00 15.88    -0.087 Cl
HETATM   15  C12   D T 302      28.346   0.983  12.029  1.00 17.91    -0.020 A 
ENDBRANCH   4   9
BRANCH   5  16
HETATM   16  C15   D T 302      30.226   2.052  15.202  1.00 42.82     0.046 C 
HETATM   17  C16   D T 302      28.877   2.572  15.640  1.00 44.85     0.007 C 
ENDBRANCH   5  16
TORSDOF 2
ENDMDL
MODEL 3
REMARK VINA RESULT:      -6.7      3.711      6.083
REMARK  2 active torsions:
REMARK  status: ('A' for Active; 'I' for Inactive)
REMARK    1  A    between atoms: C4_4  and  C7_7 
REMARK    2  A    between atoms: C5_5  and  C15_15 
ROOT
HETATM    1  N1    D T 302      30.300   0.477  10.917  1.00 23.04    -0.194 NA
HETATM    2  C2    D T 302      29.432   1.585  11.104  1.00 19.75     0.239 A 
HETATM    3  C3    D T 302      30.549  -0.389  11.987  1.00 20.04     0.187 A 
HETATM    4  C4    D T 302      29.918  -0.161  13.347  1.00 18.39     0.051 A 
HETATM    5  C5    D T 302      29.000   1.062  13.405  1.00 33.99     0.065 A 
HETATM    6  N6    D T 302      28.792   1.877  12.327  1.00 32.76    -0.219 NA
HETATM    7  N13   D T 302      31.366  -1.455  11.840  1.00 22.47    -0.127 N 
HETATM    8  N14   D T 302      29.181   2.462  10.044  1.00 19.91    -0.060 NA
ENDROOT
BRANCH   4   9
HETATM    9  C7    D T 302      30.140  -1.039  14.495  1.00 36.09     0.000 A 
HETATM   10  C8    D T 302      31.103  -0.630  15.561  1.00 33.93     0.000 A 
HETATM   11  C9    D T 302      31.368  -1.443  16.722  1.00 52.13     0.007 A 
HETATM   12  C10   D T 302      30.699  -2.674  16.870  1.00 28.66     0.040 A 
HETATM   13  C11   D T 302      29.746  -3.109  15.845  1.00 35.34     0.064 A 
HETATM   14 CL1    D T 302      30.912  -3.690  18.135  1.00 15.88    -0.087 Cl
HETATM   15  C12   D T 302      29.488  -2.288  14.686  1.00 17.91    -0.020 A 
ENDBRANCH   4   9
BRANCH   5  16
HETATM   16  C15   D T 302      28.285   1.408  14.688  1.00 42.82     0.046 C 
HETATM   17  C16   D T 302      26.978   2.162  14.598  1.00 44.85     0.007 C 
ENDBRANCH   5  16
TORSDOF 2
ENDMDL
MODEL 4
REMARK VINA RESULT:      -6.6      3.713      6.112
REMARK  2 active torsions:
REMARK  status: ('A' for Active; 'I' for Inactive)
REMARK    1  A    between atoms: C4_4  and  C7_7 
REMARK    2  A    between atoms: C5_5  and  C15_15 
ROOT
HETATM    1  N1    D T 302      29.876   1.039  10.587  1.00 23.04    -0.194 NA
HETATM    2  C2    D T 302      28.797   1.948  10.745  1.00 19.75     0.239 A 
HETATM    3  C3    D T 302      30.267   0.241  11.668  1.00 20.04     0.187 A 
HETATM    4  C4    D T 302      29.567   0.338  13.009  1.00 18.39     0.051 A 
HETATM    5  C5    D T 302      28.419   1.350  13.037  1.00 33.99     0.065 A 
HETATM    6  N6    D T 302      28.079   2.105  11.950  1.00 32.76    -0.219 NA
HETATM    7  N13   D T 302      31.286  -0.637  11.548  1.00 22.47    -0.127 N 
HETATM    8  N14   D T 302      28.402   2.755   9.674  1.00 19.91    -0.060 NA
ENDROOT
BRANCH   4   9
HETATM    9  C7    D T 302      29.932  -0.476  14.168  1.00 36.09     0.000 A 
HETATM   10  C8    D T 302      29.421  -1.876  14.275  1.00 33.93     0.000 A 
HETATM   11  C9    D T 302      29.743  -2.738  15.385  1.00 52.13     0.007 A 
HETATM   12  C10   D T 302      30.572  -2.254  16.417  1.00 28.66     0.040 A 
HETATM   13  C11   D T 302      31.093  -0.885  16.346  1.00 35.34     0.064 A 
HETATM   14 CL1    D T 302      31.009  -3.125  17.732  1.00 15.88    -0.087 Cl
HETATM   15  C12   D T 302      30.764  -0.030  15.231  1.00 17.91    -0.020 A 
ENDBRANCH   4   9
BRANCH   5  16
HETATM   16  C15   D T 302      27.615   1.544  14.299  1.00 42.82     0.046 C 
HETATM   17  C16   D T 302      27.925   2.741  15.167  1.00 44.85     0.007 C 
ENDBRANCH   5  16
TORSDOF 2
ENDMDL
MODEL 5
REMARK VINA RESULT:      -6.6      3.687      5.743
REMARK  2 active torsions:
REMARK  status: ('A' for Active; 'I' for Inactive)
REMARK    1  A    between atoms: C4_4  and  C7_7 
REMARK    2  A    between atoms: C5_5  and  C15_15 
ROOT
HETATM    1  N1    D T 302      28.113   1.981  12.459  1.00 23.04    -0.194 NA
HETATM    2  C2    D T 302      28.605   1.656  11.167  1.00 19.75     0.239 A 
HETATM    3  C3    D T 302      28.514   1.215  13.559  1.00 20.04     0.187 A 
HETATM    4  C4    D T 302      29.456   0.038  13.396  1.00 18.39     0.051 A 
HETATM    5  C5    D T 302      29.915  -0.193  11.955  1.00 33.99     0.065 A 
HETATM    6  N6    D T 302      29.491   0.586  10.915  1.00 32.76    -0.219 NA
HETATM    7  N13   D T 302      28.068   1.501  14.801  1.00 22.47    -0.127 N 
HETATM    8  N14   D T 302      28.206   2.409  10.058  1.00 19.91    -0.060 NA
ENDROOT
BRANCH   4   9
HETATM    9  C7    D T 302      29.911  -0.789  14.514  1.00 36.09     0.000 A 
HETATM   10  C8    D T 302      29.343  -2.158  14.697  1.00 33.93     0.000 A 
HETATM   11  C9    D T 302      29.747  -3.030  15.772  1.00 52.13     0.007 A 
HETATM   12  C10   D T 302      30.716  -2.586  16.693  1.00 28.66     0.040 A 
HETATM   13  C11   D T 302      31.297  -1.248  16.546  1.00 35.34     0.064 A 
HETATM   14 CL1    D T 302      31.258  -3.472  17.958  1.00 15.88    -0.087 Cl
HETATM   15  C12   D T 302      30.885  -0.383  15.467  1.00 17.91    -0.020 A 
ENDBRANCH   4   9
BRANCH   5  16
HETATM   16  C15   D T 302      30.870  -1.317  11.638  1.00 42.82     0.046 C 
HETATM   17  C16   D T 302      32.259  -0.963  11.160  1.00 44.85     0.007 C 
ENDBRANCH   5  16
TORSDOF 2
ENDMDL
MODEL 6
REMARK VINA RESULT:      -6.6      3.410      4.653
REMARK  2 active torsions:
REMARK  status: ('A' for Active; 'I' for Inactive)
REMARK    1  A    between atoms: C4_4  and  C7_7 
REMARK    2  A    between atoms: C5_5  and  C15_15 
ROOT
HETATM    1  N1    D T 302      30.373  -1.044  14.118  1.00 23.04    -0.194 NA
HETATM    2  C2    D T 302      29.771  -1.328  12.864  1.00 19.75     0.239 A 
HETATM    3  C3    D T 302      30.151   0.199  14.722  1.00 20.04     0.187 A 
HETATM    4  C4    D T 302      29.288   1.253  14.056  1.00 18.39     0.051 A 
HETATM    5  C5    D T 302      28.696   0.811  12.716  1.00 33.99     0.065 A 
HETATM    6  N6    D T 302      28.945  -0.416  12.171  1.00 32.76    -0.219 NA
HETATM    7  N13   D T 302      30.706   0.498  15.916  1.00 22.47    -0.127 N 
HETATM    8  N14   D T 302      29.990  -2.564  12.248  1.00 19.91    -0.060 NA
ENDROOT
BRANCH   4   9
HETATM    9  C7    D T 302      29.020   2.564  14.647  1.00 36.09     0.000 A 
HETATM   10  C8    D T 302      27.842   2.739  15.549  1.00 33.93     0.000 A 
HETATM   11  C9    D T 302      27.519   3.999  16.169  1.00 52.13     0.007 A 
HETATM   12  C10   D T 302      28.339   5.119  15.925  1.00 28.66     0.040 A 
HETATM   13  C11   D T 302      29.504   4.986  15.046  1.00 35.34     0.064 A 
HETATM   14 CL1    D T 302      28.082   6.604  16.562  1.00 15.88    -0.087 Cl
HETATM   15  C12   D T 302      29.818   3.720  14.429  1.00 17.91    -0.020 A 
ENDBRANCH   4   9
BRANCH   5  16
HETATM   16  C15   D T 302      27.799   1.747  11.943  1.00 42.82     0.046 C 
HETATM   17  C16   D T 302      28.199   2.121  10.535  1.00 44.85     0.007 C 
ENDBRANCH   5  16
TORSDOF 2
ENDMDL
MODEL 7
REMARK VINA RESULT:      -6.6      4.001      6.777
REMARK  2 active torsions:
REMARK  status: ('A' for Active; 'I' for Inactive)
REMARK    1  A    between atoms: C4_4  and  C7_7 
REMARK    2  A    between atoms: C5_5  and  C15_15 
ROOT
HETATM    1  N1    D T 302      29.279  -1.164  12.474  1.00 23.04    -0.194 NA
HETATM    2  C2    D T 302      29.384   0.190  12.889  1.00 19.75     0.239 A 
HETATM    3  C3    D T 302      29.761  -2.178  13.308  1.00 20.04     0.187 A 
HETATM    4  C4    D T 302      30.404  -1.858  14.643  1.00 18.39     0.051 A 
HETATM    5  C5    D T 302      30.444  -0.363  14.969  1.00 33.99     0.065 A 
HETATM    6  N6    D T 302      29.958   0.587  14.116  1.00 32.76    -0.219 NA
HETATM    7  N13   D T 302      29.671  -3.476  12.944  1.00 22.47    -0.127 N 
HETATM    8  N14   D T 302      28.912   1.213  12.061  1.00 19.91    -0.060 NA
ENDROOT
BRANCH   4   9
HETATM    9  C7    D T 302      30.918  -2.881  15.554  1.00 36.09     0.000 A 
HETATM   10  C8    D T 302      30.003  -3.498  16.561  1.00 33.93     0.000 A 
HETATM   11  C9    D T 302      30.438  -4.514  17.487  1.00 52.13     0.007 A 
HETATM   12  C10   D T 302      31.777  -4.952  17.453  1.00 28.66     0.040 A 
HETATM   13  C11   D T 302      32.704  -4.369  16.478  1.00 35.34     0.064 A 
HETATM   14 CL1    D T 302      32.398  -6.091  18.449  1.00 15.88    -0.087 Cl
HETATM   15  C12   D T 302      32.259  -3.353  15.556  1.00 17.91    -0.020 A 
ENDBRANCH   4   9
BRANCH   5  16
HETATM   16  C15   D T 302      31.038   0.108  16.273  1.00 42.82     0.046 C 
HETATM   17  C16   D T 302      31.077   1.595  16.545  1.00 44.85     0.007 C 
ENDBRANCH   5  16
TORSDOF 2
ENDMDL
MODEL 8
REMARK VINA RESULT:      -6.5      3.622      5.249
REMARK  2 active torsions:
REMARK  status: ('A' for Active; 'I' for Inactive)
REMARK    1  A    between atoms: C4_4  and  C7_7 
REMARK    2  A    between atoms: C5_5  and  C15_15 
ROOT
HETATM    1  N1    D T 302      30.230  -0.804  12.994  1.00 23.04    -0.194 NA
HETATM    2  C2    D T 302      30.054  -0.520  11.614  1.00 19.75     0.239 A 
HETATM    3  C3    D T 302      30.012   0.206  13.937  1.00 20.04     0.187 A 
HETATM    4  C4    D T 302      29.601   1.602  13.513  1.00 18.39     0.051 A 
HETATM    5  C5    D T 302      29.439   1.766  12.000  1.00 33.99     0.065 A 
HETATM    6  N6    D T 302      29.665   0.745  11.121  1.00 32.76    -0.219 NA
HETATM    7  N13   D T 302      30.166  -0.034  15.257  1.00 22.47    -0.127 N 
HETATM    8  N14   D T 302      30.275  -1.519  10.661  1.00 19.91    -0.060 NA
ENDROOT
BRANCH   4   9
HETATM    9  C7    D T 302      29.354   2.690  14.458  1.00 36.09     0.000 A 
HETATM   10  C8    D T 302      27.980   2.891  15.010  1.00 33.93     0.000 A 
HETATM   11  C9    D T 302      27.665   3.939  15.948  1.00 52.13     0.007 A 
HETATM   12  C10   D T 302      28.683   4.816  16.371  1.00 28.66     0.040 A 
HETATM   13  C11   D T 302      30.044   4.650  15.852  1.00 35.34     0.064 A 
HETATM   14 CL1    D T 302      28.458   6.046  17.426  1.00 15.88    -0.087 Cl
HETATM   15  C12   D T 302      30.349   3.598  14.913  1.00 17.91    -0.020 A 
ENDBRANCH   4   9
BRANCH   5  16
HETATM   16  C15   D T 302      29.015   3.096  11.427  1.00 42.82     0.046 C 
HETATM   17  C16   D T 302      29.323   3.381   9.975  1.00 44.85     0.007 C 
ENDBRANCH   5  16
TORSDOF 2
ENDMDL
MODEL 9
REMARK VINA RESULT:      -6.4      3.769      5.300
REMARK  2 active torsions:
REMARK  status: ('A' for Active; 'I' for Inactive)
REMARK    1  A    between atoms: C4_4  and  C7_7 
REMARK    2  A    between atoms: C5_5  and  C15_15 
ROOT
HETATM    1  N1    D T 302      30.368  -0.555  13.230  1.00 23.04    -0.194 NA
HETATM    2  C2    D T 302      30.244  -0.232  11.853  1.00 19.75     0.239 A 
HETATM    3  C3    D T 302      30.097   0.425  14.192  1.00 20.04     0.187 A 
HETATM    4  C4    D T 302      29.684   1.827  13.791  1.00 18.39     0.051 A 
HETATM    5  C5    D T 302      29.581   2.033  12.278  1.00 33.99     0.065 A 
HETATM    6  N6    D T 302      29.859   1.041  11.381  1.00 32.76    -0.219 NA
HETATM    7  N13   D T 302      30.200   0.148  15.510  1.00 22.47    -0.127 N 
HETATM    8  N14   D T 302      30.519  -1.200  10.881  1.00 19.91    -0.060 NA
ENDROOT
BRANCH   4   9
HETATM    9  C7    D T 302      29.383   2.884  14.756  1.00 36.09     0.000 A 
HETATM   10  C8    D T 302      30.499   3.675  15.356  1.00 33.93     0.000 A 
HETATM   11  C9    D T 302      30.277   4.733  16.309  1.00 52.13     0.007 A 
HETATM   12  C10   D T 302      28.959   5.046  16.700  1.00 28.66     0.040 A 
HETATM   13  C11   D T 302      27.837   4.292  16.132  1.00 35.34     0.064 A 
HETATM   14 CL1    D T 302      28.571   6.217  17.773  1.00 15.88    -0.087 Cl
HETATM   15  C12   D T 302      28.071   3.233  15.179  1.00 17.91    -0.020 A 
ENDBRANCH   4   9
BRANCH   5  16
HETATM   16  C15   D T 302      29.162   3.374  11.727  1.00 42.82     0.046 C 
HETATM   17  C16   D T 302      30.154   4.513  11.783  1.00 44.85     0.007 C 
ENDBRANCH   5  16
TORSDOF 2
ENDMDL
