MODEL 1
REMARK VINA RESULT:    -6.933      0.000      0.000
REMARK INTER + INTRA:          -8.321
REMARK INTER:                  -7.743
REMARK INTRA:                  -0.578
REMARK UNBOUND:                -0.578
REMARK  2 active torsions:
REMARK  status: ('A' for Active; 'I' for Inactive)
REMARK    1  A    between atoms: C4_4  and  C7_7 
REMARK    2  A    between atoms: C5_5  and  C15_15 
ROOT
HETATM    1  N1    D T 302      -8.874   2.290   0.735  1.00 23.04    -0.194 NA
HETATM    2  C2    D T 302      -8.911   3.315  -0.247  1.00 19.75     0.239 A 
HETATM    3  C3    D T 302      -7.792   2.223   1.619  1.00 20.04     0.187 A 
HETATM    4  C4    D T 302      -6.651   3.218   1.542  1.00 18.39     0.051 A 
HETATM    5  C5    D T 302      -6.823   4.273   0.447  1.00 33.99     0.065 A 
HETATM    6  N6    D T 302      -7.902   4.292  -0.392  1.00 32.76    -0.219 NA
HETATM    7  N13   D T 302      -7.730   1.262   2.566  1.00 22.47    -0.127 N 
HETATM    8  N14   D T 302      -9.984   3.390  -1.141  1.00 19.91    -0.060 NA
ENDROOT
BRANCH   4   9
HETATM    9  C7    D T 302      -5.502   3.196   2.446  1.00 36.09     0.000 A 
HETATM   10  C8    D T 302      -5.559   3.956   3.730  1.00 33.93     0.000 A 
HETATM   11  C9    D T 302      -4.467   3.976   4.672  1.00 52.13     0.007 A 
HETATM   12  C10   D T 302      -3.292   3.254   4.380  1.00 28.66     0.040 A 
HETATM   13  C11   D T 302      -3.199   2.496   3.129  1.00 35.34     0.064 A 
HETATM   14 CL1    D T 302      -1.981   3.196   5.358  1.00 15.88    -0.087 Cl
HETATM   15  C12   D T 302      -4.298   2.483   2.194  1.00 17.91    -0.020 A 
ENDBRANCH   4   9
BRANCH   5  16
HETATM   16  C15   D T 302      -5.777   5.344   0.261  1.00 42.82     0.046 C 
HETATM   17  C16   D T 302      -4.620   5.059  -0.669  1.00 44.85     0.007 C 
ENDBRANCH   5  16
TORSDOF 2
ENDMDL
MODEL 2
REMARK VINA RESULT:    -6.787      3.347      5.135
REMARK INTER + INTRA:          -8.158
REMARK INTER:                  -7.590
REMARK INTRA:                  -0.568
REMARK UNBOUND:                -0.578
REMARK  2 active torsions:
REMARK  status: ('A' for Active; 'I' for Inactive)
REMARK    1  A    between atoms: C4_4  and  C7_7 
REMARK    2  A    between atoms: C5_5  and  C15_15 
ROOT
HETATM    1  N1    D T 302      -6.995   3.371  -0.382  1.00 23.04    -0.194 NA
HETATM    2  C2    D T 302      -6.890   2.811   0.918  1.00 19.75     0.239 A 
HETATM    3  C3    D T 302      -6.526   4.670  -0.611  1.00 20.04     0.187 A 
HETATM    4  C4    D T 302      -5.917   5.493   0.506  1.00 18.39     0.051 A 
HETATM    5  C5    D T 302      -5.857   4.765   1.851  1.00 33.99     0.065 A 
HETATM    6  N6    D T 302      -6.332   3.495   2.019  1.00 32.76    -0.219 NA
HETATM    7  N13   D T 302      -6.608   5.229  -1.838  1.00 22.47    -0.127 N 
HETATM    8  N14   D T 302      -7.361   1.516   1.161  1.00 19.91    -0.060 NA
ENDROOT
BRANCH   4   9
HETATM    9  C7    D T 302      -5.405   6.850   0.318  1.00 36.09     0.000 A 
HETATM   10  C8    D T 302      -6.301   8.018   0.572  1.00 33.93     0.000 A 
HETATM   11  C9    D T 302      -5.863   9.383   0.412  1.00 52.13     0.007 A 
HETATM   12  C10   D T 302      -4.541   9.639  -0.002  1.00 28.66     0.040 A 
HETATM   13  C11   D T 302      -3.633   8.519  -0.260  1.00 35.34     0.064 A 
HETATM   14 CL1    D T 302      -3.921  11.137  -0.226  1.00 15.88    -0.087 Cl
HETATM   15  C12   D T 302      -4.080   7.157  -0.097  1.00 17.91    -0.020 A 
ENDBRANCH   4   9
BRANCH   5  16
HETATM   16  C15   D T 302      -5.259   5.451   3.054  1.00 42.82     0.046 C 
HETATM   17  C16   D T 302      -3.760   5.391   3.239  1.00 44.85     0.007 C 
ENDBRANCH   5  16
TORSDOF 2
ENDMDL
MODEL 3
REMARK VINA RESULT:    -6.709      1.282      2.923
REMARK INTER + INTRA:          -8.071
REMARK INTER:                  -7.631
REMARK INTRA:                  -0.439
REMARK UNBOUND:                -0.578
REMARK  2 active torsions:
REMARK  status: ('A' for Active; 'I' for Inactive)
REMARK    1  A    between atoms: C4_4  and  C7_7 
REMARK    2  A    between atoms: C5_5  and  C15_15 
ROOT
HETATM    1  N1    D T 302      -8.467   4.857  -0.100  1.00 23.04    -0.194 NA
HETATM    2  C2    D T 302      -9.224   3.697  -0.411  1.00 19.75     0.239 A 
HETATM    3  C3    D T 302      -7.342   4.745   0.725  1.00 20.04     0.187 A 
HETATM    4  C4    D T 302      -6.923   3.407   1.303  1.00 18.39     0.051 A 
HETATM    5  C5    D T 302      -7.820   2.241   0.880  1.00 33.99     0.065 A 
HETATM    6  N6    D T 302      -8.908   2.408   0.072  1.00 32.76    -0.219 NA
HETATM    7  N13   D T 302      -6.600   5.829   1.035  1.00 22.47    -0.127 N 
HETATM    8  N14   D T 302     -10.353   3.797  -1.229  1.00 19.91    -0.060 NA
ENDROOT
BRANCH   4   9
HETATM    9  C7    D T 302      -5.753   3.235   2.163  1.00 36.09     0.000 A 
HETATM   10  C8    D T 302      -4.440   2.861   1.557  1.00 33.93     0.000 A 
HETATM   11  C9    D T 302      -3.245   2.679   2.343  1.00 52.13     0.007 A 
HETATM   12  C10   D T 302      -3.304   2.856   3.740  1.00 28.66     0.040 A 
HETATM   13  C11   D T 302      -4.575   3.224   4.371  1.00 35.34     0.064 A 
HETATM   14 CL1    D T 302      -2.025   2.676   4.745  1.00 15.88    -0.087 Cl
HETATM   15  C12   D T 302      -5.765   3.403   3.576  1.00 17.91    -0.020 A 
ENDBRANCH   4   9
BRANCH   5  16
HETATM   16  C15   D T 302      -7.516   0.844   1.361  1.00 42.82     0.046 C 
HETATM   17  C16   D T 302      -8.329  -0.299   0.798  1.00 44.85     0.007 C 
ENDBRANCH   5  16
TORSDOF 2
ENDMDL
MODEL 4
REMARK VINA RESULT:    -6.587      3.481      5.034
REMARK INTER + INTRA:          -7.934
REMARK INTER:                  -7.354
REMARK INTRA:                  -0.580
REMARK UNBOUND:                -0.578
REMARK  2 active torsions:
REMARK  status: ('A' for Active; 'I' for Inactive)
REMARK    1  A    between atoms: C4_4  and  C7_7 
REMARK    2  A    between atoms: C5_5  and  C15_15 
ROOT
HETATM    1  N1    D T 302      -6.147   3.448   2.439  1.00 23.04    -0.194 NA
HETATM    2  C2    D T 302      -6.686   2.714   1.350  1.00 19.75     0.239 A 
HETATM    3  C3    D T 302      -5.738   4.772   2.240  1.00 20.04     0.187 A 
HETATM    4  C4    D T 302      -5.851   5.433   0.880  1.00 18.39     0.051 A 
HETATM    5  C5    D T 302      -6.458   4.532  -0.198  1.00 33.99     0.065 A 
HETATM    6  N6    D T 302      -6.839   3.244   0.051  1.00 32.76    -0.219 NA
HETATM    7  N13   D T 302      -5.225   5.499   3.256  1.00 22.47    -0.127 N 
HETATM    8  N14   D T 302      -7.092   1.388   1.534  1.00 19.91    -0.060 NA
ENDROOT
BRANCH   4   9
HETATM    9  C7    D T 302      -5.446   6.814   0.622  1.00 36.09     0.000 A 
HETATM   10  C8    D T 302      -4.061   7.099   0.140  1.00 33.93     0.000 A 
HETATM   11  C9    D T 302      -3.595   8.434  -0.140  1.00 52.13     0.007 A 
HETATM   12  C10   D T 302      -4.469   9.524   0.045  1.00 28.66     0.040 A 
HETATM   13  C11   D T 302      -5.836   9.284   0.517  1.00 35.34     0.064 A 
HETATM   14 CL1    D T 302      -4.065  11.086  -0.230  1.00 15.88    -0.087 Cl
HETATM   15  C12   D T 302      -6.293   7.944   0.794  1.00 17.91    -0.020 A 
ENDBRANCH   4   9
BRANCH   5  16
HETATM   16  C15   D T 302      -6.651   5.058  -1.599  1.00 42.82     0.046 C 
HETATM   17  C16   D T 302      -5.522   4.887  -2.589  1.00 44.85     0.007 C 
ENDBRANCH   5  16
TORSDOF 2
ENDMDL
MODEL 5
REMARK VINA RESULT:    -6.577      2.292      4.232
REMARK INTER + INTRA:          -7.924
REMARK INTER:                  -7.351
REMARK INTRA:                  -0.572
REMARK UNBOUND:                -0.578
REMARK  2 active torsions:
REMARK  status: ('A' for Active; 'I' for Inactive)
REMARK    1  A    between atoms: C4_4  and  C7_7 
REMARK    2  A    between atoms: C5_5  and  C15_15 
ROOT
HETATM    1  N1    D T 302      -8.363   1.956  -0.174  1.00 23.04    -0.194 NA
HETATM    2  C2    D T 302      -7.865   0.947   0.692  1.00 19.75     0.239 A 
HETATM    3  C3    D T 302      -7.714   3.195  -0.231  1.00 20.04     0.187 A 
HETATM    4  C4    D T 302      -6.494   3.483   0.622  1.00 18.39     0.051 A 
HETATM    5  C5    D T 302      -6.060   2.306   1.499  1.00 33.99     0.065 A 
HETATM    6  N6    D T 302      -6.732   1.117   1.517  1.00 32.76    -0.219 NA
HETATM    7  N13   D T 302      -8.161   4.173  -1.048  1.00 22.47    -0.127 N 
HETATM    8  N14   D T 302      -8.508  -0.293   0.763  1.00 19.91    -0.060 NA
ENDROOT
BRANCH   4   9
HETATM    9  C7    D T 302      -5.776   4.756   0.594  1.00 36.09     0.000 A 
HETATM   10  C8    D T 302      -4.695   4.971  -0.414  1.00 33.93     0.000 A 
HETATM   11  C9    D T 302      -3.949   6.202  -0.503  1.00 52.13     0.007 A 
HETATM   12  C10   D T 302      -4.241   7.252   0.390  1.00 28.66     0.040 A 
HETATM   13  C11   D T 302      -5.296   7.078   1.393  1.00 35.34     0.064 A 
HETATM   14 CL1    D T 302      -3.468   8.694   0.399  1.00 15.88    -0.087 Cl
HETATM   15  C12   D T 302      -6.036   5.843   1.474  1.00 17.91    -0.020 A 
ENDBRANCH   4   9
BRANCH   5  16
HETATM   16  C15   D T 302      -4.850   2.437   2.390  1.00 42.82     0.046 C 
HETATM   17  C16   D T 302      -5.053   2.926   3.805  1.00 44.85     0.007 C 
ENDBRANCH   5  16
TORSDOF 2
ENDMDL
MODEL 6
REMARK VINA RESULT:    -6.555      3.616      5.225
REMARK INTER + INTRA:          -7.899
REMARK INTER:                  -7.552
REMARK INTRA:                  -0.347
REMARK UNBOUND:                -0.578
REMARK  2 active torsions:
REMARK  status: ('A' for Active; 'I' for Inactive)
REMARK    1  A    between atoms: C4_4  and  C7_7 
REMARK    2  A    between atoms: C5_5  and  C15_15 
ROOT
HETATM    1  N1    D T 302      -5.000   4.203   3.340  1.00 23.04    -0.194 NA
HETATM    2  C2    D T 302      -4.545   5.086   2.326  1.00 19.75     0.239 A 
HETATM    3  C3    D T 302      -5.970   3.242   3.031  1.00 20.04     0.187 A 
HETATM    4  C4    D T 302      -6.552   3.135   1.635  1.00 18.39     0.051 A 
HETATM    5  C5    D T 302      -5.966   4.140   0.641  1.00 33.99     0.065 A 
HETATM    6  N6    D T 302      -5.020   5.058   0.997  1.00 32.76    -0.219 NA
HETATM    7  N13   D T 302      -6.420   2.385   3.972  1.00 22.47    -0.127 N 
HETATM    8  N14   D T 302      -3.580   6.055   2.623  1.00 19.91    -0.060 NA
ENDROOT
BRANCH   4   9
HETATM    9  C7    D T 302      -7.561   2.146   1.259  1.00 36.09     0.000 A 
HETATM   10  C8    D T 302      -8.981   2.572   1.079  1.00 33.93     0.000 A 
HETATM   11  C9    D T 302     -10.027   1.653   0.705  1.00 52.13     0.007 A 
HETATM   12  C10   D T 302      -9.712   0.295   0.498  1.00 28.66     0.040 A 
HETATM   13  C11   D T 302      -8.329  -0.161   0.665  1.00 35.34     0.064 A 
HETATM   14 CL1    D T 302     -10.802  -0.850   0.076  1.00 15.88    -0.087 Cl
HETATM   15  C12   D T 302      -7.289   0.767   1.040  1.00 17.91    -0.020 A 
ENDBRANCH   4   9
BRANCH   5  16
HETATM   16  C15   D T 302      -6.434   4.141  -0.794  1.00 42.82     0.046 C 
HETATM   17  C16   D T 302      -5.448   4.540  -1.867  1.00 44.85     0.007 C 
ENDBRANCH   5  16
TORSDOF 2
ENDMDL
MODEL 7
REMARK VINA RESULT:    -6.172      3.914      6.063
REMARK INTER + INTRA:          -7.472
REMARK INTER:                  -7.019
REMARK INTRA:                  -0.453
REMARK UNBOUND:                -0.578
REMARK  2 active torsions:
REMARK  status: ('A' for Active; 'I' for Inactive)
REMARK    1  A    between atoms: C4_4  and  C7_7 
REMARK    2  A    between atoms: C5_5  and  C15_15 
ROOT
HETATM    1  N1    D T 302      -6.090   2.259   2.413  1.00 23.04    -0.194 NA
HETATM    2  C2    D T 302      -5.346   3.277   1.761  1.00 19.75     0.239 A 
HETATM    3  C3    D T 302      -7.377   1.949   1.958  1.00 20.04     0.187 A 
HETATM    4  C4    D T 302      -7.996   2.689   0.789  1.00 18.39     0.051 A 
HETATM    5  C5    D T 302      -7.082   3.753   0.175  1.00 33.99     0.065 A 
HETATM    6  N6    D T 302      -5.832   4.015   0.661  1.00 32.76    -0.219 NA
HETATM    7  N13   D T 302      -8.109   0.983   2.554  1.00 22.47    -0.127 N 
HETATM    8  N14   D T 302      -4.062   3.600   2.210  1.00 19.91    -0.060 NA
ENDROOT
BRANCH   4   9
HETATM    9  C7    D T 302      -9.332   2.400   0.271  1.00 36.09     0.000 A 
HETATM   10  C8    D T 302     -10.505   3.173   0.780  1.00 33.93     0.000 A 
HETATM   11  C9    D T 302     -11.849   2.945   0.311  1.00 52.13     0.007 A 
HETATM   12  C10   D T 302     -12.081   1.956  -0.665  1.00 28.66     0.040 A 
HETATM   13  C11   D T 302     -10.955   1.177  -1.189  1.00 35.34     0.064 A 
HETATM   14 CL1    D T 302     -13.555   1.594  -1.277  1.00 15.88    -0.087 Cl
HETATM   15  C12   D T 302      -9.614   1.413  -0.714  1.00 17.91    -0.020 A 
ENDBRANCH   4   9
BRANCH   5  16
HETATM   16  C15   D T 302      -7.554   4.559  -1.010  1.00 42.82     0.046 C 
HETATM   17  C16   D T 302      -6.521   5.304  -1.824  1.00 44.85     0.007 C 
ENDBRANCH   5  16
TORSDOF 2
ENDMDL
MODEL 8
REMARK VINA RESULT:    -6.058      3.925      6.452
REMARK INTER + INTRA:          -7.344
REMARK INTER:                  -6.977
REMARK INTRA:                  -0.367
REMARK UNBOUND:                -0.578
REMARK  2 active torsions:
REMARK  status: ('A' for Active; 'I' for Inactive)
REMARK    1  A    between atoms: C4_4  and  C7_7 
REMARK    2  A    between atoms: C5_5  and  C15_15 
ROOT
HETATM    1  N1    D T 302      -5.537   4.516  -0.014  1.00 23.04    -0.194 NA
HETATM    2  C2    D T 302      -4.960   3.842   1.093  1.00 19.75     0.239 A 
HETATM    3  C3    D T 302      -6.853   4.223  -0.388  1.00 20.04     0.187 A 
HETATM    4  C4    D T 302      -7.671   3.190   0.361  1.00 18.39     0.051 A 
HETATM    5  C5    D T 302      -6.931   2.548   1.537  1.00 33.99     0.065 A 
HETATM    6  N6    D T 302      -5.643   2.871   1.858  1.00 32.76    -0.219 NA
HETATM    7  N13   D T 302      -7.432   4.851  -1.435  1.00 22.47    -0.127 N 
HETATM    8  N14   D T 302      -3.643   4.121   1.473  1.00 19.91    -0.060 NA
ENDROOT
BRANCH   4   9
HETATM    9  C7    D T 302      -9.051   2.853   0.016  1.00 36.09     0.000 A 
HETATM   10  C8    D T 302     -10.156   3.781   0.402  1.00 33.93     0.000 A 
HETATM   11  C9    D T 302     -11.539   3.515   0.090  1.00 52.13     0.007 A 
HETATM   12  C10   D T 302     -11.876   2.337  -0.605  1.00 28.66     0.040 A 
HETATM   13  C11   D T 302     -10.818   1.402  -1.001  1.00 35.34     0.064 A 
HETATM   14 CL1    D T 302     -13.403   1.914  -1.015  1.00 15.88    -0.087 Cl
HETATM   15  C12   D T 302      -9.438   1.677  -0.684  1.00 17.91    -0.020 A 
ENDBRANCH   4   9
BRANCH   5  16
HETATM   16  C15   D T 302      -7.624   1.514   2.390  1.00 42.82     0.046 C 
HETATM   17  C16   D T 302      -7.329   1.497   3.872  1.00 44.85     0.007 C 
ENDBRANCH   5  16
TORSDOF 2
ENDMDL
MODEL 9
REMARK VINA RESULT:    -5.898      3.395      5.577
REMARK INTER + INTRA:          -7.165
REMARK INTER:                  -6.918
REMARK INTRA:                  -0.248
REMARK UNBOUND:                -0.578
REMARK  2 active torsions:
REMARK  status: ('A' for Active; 'I' for Inactive)
REMARK    1  A    between atoms: C4_4  and  C7_7 
REMARK    2  A    between atoms: C5_5  and  C15_15 
ROOT
HETATM    1  N1    D T 302      -5.652   5.969  -0.182  1.00 23.04    -0.194 NA
HETATM    2  C2    D T 302      -4.920   6.072   1.030  1.00 19.75     0.239 A 
HETATM    3  C3    D T 302      -6.563   4.919  -0.348  1.00 20.04     0.187 A 
HETATM    4  C4    D T 302      -6.774   3.883   0.739  1.00 18.39     0.051 A 
HETATM    5  C5    D T 302      -5.930   4.120   1.993  1.00 33.99     0.065 A 
HETATM    6  N6    D T 302      -5.054   5.163   2.102  1.00 32.76    -0.219 NA
HETATM    7  N13   D T 302      -7.277   4.796  -1.488  1.00 22.47    -0.127 N 
HETATM    8  N14   D T 302      -4.002   7.113   1.206  1.00 19.91    -0.060 NA
ENDROOT
BRANCH   4   9
HETATM    9  C7    D T 302      -7.718   2.773   0.618  1.00 36.09     0.000 A 
HETATM   10  C8    D T 302      -9.186   3.045   0.651  1.00 33.93     0.000 A 
HETATM   11  C9    D T 302     -10.173   2.001   0.532  1.00 52.13     0.007 A 
HETATM   12  C10   D T 302      -9.750   0.665   0.381  1.00 28.66     0.040 A 
HETATM   13  C11   D T 302      -8.317   0.359   0.344  1.00 35.34     0.064 A 
HETATM   14 CL1    D T 302     -10.765  -0.611   0.241  1.00 15.88    -0.087 Cl
HETATM   15  C12   D T 302      -7.337   1.411   0.463  1.00 17.91    -0.020 A 
ENDBRANCH   4   9
BRANCH   5  16
HETATM   16  C15   D T 302      -6.047   3.182   3.169  1.00 42.82     0.046 C 
HETATM   17  C16   D T 302      -5.556   3.660   4.516  1.00 44.85     0.007 C 
ENDBRANCH   5  16
TORSDOF 2
ENDMDL
