MODEL 1
REMARK VINA RESULT:    -6.736      0.000      0.000
REMARK INTER + INTRA:          -7.985
REMARK INTER:                  -7.523
REMARK INTRA:                  -0.462
REMARK UNBOUND:                -0.462
REMARK  2 active torsions:
REMARK  status: ('A' for Active; 'I' for Inactive)
REMARK    1  A    between atoms: C4_4  and  C7_7 
REMARK    2  A    between atoms: C5_5  and  C15_15 
ROOT
HETATM    1  N1    D T 302      -9.826   2.788   0.218  1.00 23.04    -0.194 NA
HETATM    2  C2    D T 302     -10.399   1.489   0.261  1.00 19.75     0.239 A 
HETATM    3  C3    D T 302      -8.551   2.993   0.756  1.00 20.04     0.187 A 
HETATM    4  C4    D T 302      -7.775   1.858   1.394  1.00 18.39     0.051 A 
HETATM    5  C5    D T 302      -8.506   0.514   1.363  1.00 33.99     0.065 A 
HETATM    6  N6    D T 302      -9.753   0.369   0.825  1.00 32.76    -0.219 NA
HETATM    7  N13   D T 302      -7.975   4.215   0.727  1.00 22.47    -0.127 N 
HETATM    8  N14   D T 302     -11.676   1.272  -0.268  1.00 19.91    -0.060 NA
ENDROOT
BRANCH   4   9
HETATM    9  C7    D T 302      -6.438   2.018   1.964  1.00 36.09     0.000 A 
HETATM   10  C8    D T 302      -6.290   2.388   3.404  1.00 33.93     0.000 A 
HETATM   11  C9    D T 302      -5.004   2.559   4.034  1.00 52.13     0.007 A 
HETATM   12  C10   D T 302      -3.832   2.372   3.276  1.00 28.66     0.040 A 
HETATM   13  C11   D T 302      -3.938   2.007   1.859  1.00 35.34     0.064 A 
HETATM   14 CL1    D T 302      -2.315   2.538   3.867  1.00 15.88    -0.087 Cl
HETATM   15  C12   D T 302      -5.229   1.840   1.236  1.00 17.91    -0.020 A 
ENDBRANCH   4   9
BRANCH   5  16
HETATM   16  C15   D T 302      -7.850  -0.714   1.945  1.00 42.82     0.046 C 
HETATM   17  C16   D T 302      -8.245  -2.064   1.392  1.00 44.85     0.007 C 
ENDBRANCH   5  16
TORSDOF 2
ENDMDL
MODEL 2
REMARK VINA RESULT:    -6.582      1.637      2.964
REMARK INTER + INTRA:          -7.813
REMARK INTER:                  -7.238
REMARK INTRA:                  -0.575
REMARK UNBOUND:                -0.462
REMARK  2 active torsions:
REMARK  status: ('A' for Active; 'I' for Inactive)
REMARK    1  A    between atoms: C4_4  and  C7_7 
REMARK    2  A    between atoms: C5_5  and  C15_15 
ROOT
HETATM    1  N1    D T 302      -8.616  -0.051   2.004  1.00 23.04    -0.194 NA
HETATM    2  C2    D T 302      -9.105   0.704   0.905  1.00 19.75     0.239 A 
HETATM    3  C3    D T 302      -7.451   0.365   2.658  1.00 20.04     0.187 A 
HETATM    4  C4    D T 302      -6.695   1.600   2.207  1.00 18.39     0.051 A 
HETATM    5  C5    D T 302      -7.337   2.320   1.019  1.00 33.99     0.065 A 
HETATM    6  N6    D T 302      -8.477   1.869   0.417  1.00 32.76    -0.219 NA
HETATM    7  N13   D T 302      -6.962  -0.326   3.710  1.00 22.47    -0.127 N 
HETATM    8  N14   D T 302     -10.265   0.294   0.239  1.00 19.91    -0.060 NA
ENDROOT
BRANCH   4   9
HETATM    9  C7    D T 302      -5.477   2.080   2.859  1.00 36.09     0.000 A 
HETATM   10  C8    D T 302      -5.582   3.012   4.023  1.00 33.93     0.000 A 
HETATM   11  C9    D T 302      -4.426   3.521   4.717  1.00 52.13     0.007 A 
HETATM   12  C10   D T 302      -3.139   3.134   4.293  1.00 28.66     0.040 A 
HETATM   13  C11   D T 302      -2.996   2.221   3.154  1.00 35.34     0.064 A 
HETATM   14 CL1    D T 302      -1.748   3.643   4.989  1.00 15.88    -0.087 Cl
HETATM   15  C12   D T 302      -4.159   1.717   2.465  1.00 17.91    -0.020 A 
ENDBRANCH   4   9
BRANCH   5  16
HETATM   16  C15   D T 302      -6.708   3.576   0.469  1.00 42.82     0.046 C 
HETATM   17  C16   D T 302      -5.674   3.438  -0.624  1.00 44.85     0.007 C 
ENDBRANCH   5  16
TORSDOF 2
ENDMDL
MODEL 3
REMARK VINA RESULT:    -6.517      3.388      4.625
REMARK INTER + INTRA:          -7.741
REMARK INTER:                  -7.235
REMARK INTRA:                  -0.506
REMARK UNBOUND:                -0.462
REMARK  2 active torsions:
REMARK  status: ('A' for Active; 'I' for Inactive)
REMARK    1  A    between atoms: C4_4  and  C7_7 
REMARK    2  A    between atoms: C5_5  and  C15_15 
ROOT
HETATM    1  N1    D T 302      -8.309   0.941   1.198  1.00 23.04    -0.194 NA
HETATM    2  C2    D T 302      -7.253   0.131   1.694  1.00 19.75     0.239 A 
HETATM    3  C3    D T 302      -8.034   2.247   0.777  1.00 20.04     0.187 A 
HETATM    4  C4    D T 302      -6.631   2.817   0.850  1.00 18.39     0.051 A 
HETATM    5  C5    D T 302      -5.591   1.835   1.395  1.00 33.99     0.065 A 
HETATM    6  N6    D T 302      -5.915   0.569   1.793  1.00 32.76    -0.219 NA
HETATM    7  N13   D T 302      -9.014   3.041   0.294  1.00 22.47    -0.127 N 
HETATM    8  N14   D T 302      -7.517  -1.173   2.124  1.00 19.91    -0.060 NA
ENDROOT
BRANCH   4   9
HETATM    9  C7    D T 302      -6.289   4.171   0.417  1.00 36.09     0.000 A 
HETATM   10  C8    D T 302      -5.899   4.414  -1.005  1.00 33.93     0.000 A 
HETATM   11  C9    D T 302      -5.554   5.723  -1.502  1.00 52.13     0.007 A 
HETATM   12  C10   D T 302      -5.582   6.825  -0.626  1.00 28.66     0.040 A 
HETATM   13  C11   D T 302      -5.961   6.626   0.777  1.00 35.34     0.064 A 
HETATM   14 CL1    D T 302      -5.210   8.358  -1.061  1.00 15.88    -0.087 Cl
HETATM   15  C12   D T 302      -6.304   5.312   1.266  1.00 17.91    -0.020 A 
ENDBRANCH   4   9
BRANCH   5  16
HETATM   16  C15   D T 302      -4.146   2.253   1.510  1.00 42.82     0.046 C 
HETATM   17  C16   D T 302      -3.509   2.251   2.880  1.00 44.85     0.007 C 
ENDBRANCH   5  16
TORSDOF 2
ENDMDL
MODEL 4
REMARK VINA RESULT:    -6.445      0.944      2.711
REMARK INTER + INTRA:          -7.660
REMARK INTER:                  -7.091
REMARK INTRA:                  -0.570
REMARK UNBOUND:                -0.462
REMARK  2 active torsions:
REMARK  status: ('A' for Active; 'I' for Inactive)
REMARK    1  A    between atoms: C4_4  and  C7_7 
REMARK    2  A    between atoms: C5_5  and  C15_15 
ROOT
HETATM    1  N1    D T 302      -9.694   0.161   0.982  1.00 23.04    -0.194 NA
HETATM    2  C2    D T 302     -10.326   1.259   0.340  1.00 19.75     0.239 A 
HETATM    3  C3    D T 302      -8.426   0.335   1.548  1.00 20.04     0.187 A 
HETATM    4  C4    D T 302      -7.710   1.669   1.479  1.00 18.39     0.051 A 
HETATM    5  C5    D T 302      -8.509   2.764   0.768  1.00 33.99     0.065 A 
HETATM    6  N6    D T 302      -9.745   2.540   0.231  1.00 32.76    -0.219 NA
HETATM    7  N13   D T 302      -7.799  -0.687   2.171  1.00 22.47    -0.127 N 
HETATM    8  N14   D T 302     -11.590   1.096  -0.236  1.00 19.91    -0.060 NA
ENDROOT
BRANCH   4   9
HETATM    9  C7    D T 302      -6.389   1.905   2.060  1.00 36.09     0.000 A 
HETATM   10  C8    D T 302      -6.277   2.351   3.482  1.00 33.93     0.000 A 
HETATM   11  C9    D T 302      -5.009   2.598   4.121  1.00 52.13     0.007 A 
HETATM   12  C10   D T 302      -3.819   2.414   3.390  1.00 28.66     0.040 A 
HETATM   13  C11   D T 302      -3.889   1.976   1.992  1.00 35.34     0.064 A 
HETATM   14 CL1    D T 302      -2.319   2.663   3.994  1.00 15.88    -0.087 Cl
HETATM   15  C12   D T 302      -5.163   1.733   1.360  1.00 17.91    -0.020 A 
ENDBRANCH   4   9
BRANCH   5  16
HETATM   16  C15   D T 302      -7.934   4.153   0.637  1.00 42.82     0.046 C 
HETATM   17  C16   D T 302      -7.003   4.435  -0.520  1.00 44.85     0.007 C 
ENDBRANCH   5  16
TORSDOF 2
ENDMDL
MODEL 5
REMARK VINA RESULT:    -6.376      3.726      5.352
REMARK INTER + INTRA:          -7.583
REMARK INTER:                  -7.139
REMARK INTRA:                  -0.444
REMARK UNBOUND:                -0.462
REMARK  2 active torsions:
REMARK  status: ('A' for Active; 'I' for Inactive)
REMARK    1  A    between atoms: C4_4  and  C7_7 
REMARK    2  A    between atoms: C5_5  and  C15_15 
ROOT
HETATM    1  N1    D T 302      -7.434   1.093   1.949  1.00 23.04    -0.194 NA
HETATM    2  C2    D T 302      -6.449   0.897   2.953  1.00 19.75     0.239 A 
HETATM    3  C3    D T 302      -7.465   2.302   1.246  1.00 20.04     0.187 A 
HETATM    4  C4    D T 302      -6.475   3.411   1.544  1.00 18.39     0.051 A 
HETATM    5  C5    D T 302      -5.466   3.062   2.640  1.00 33.99     0.065 A 
HETATM    6  N6    D T 302      -5.480   1.864   3.297  1.00 32.76    -0.219 NA
HETATM    7  N13   D T 302      -8.386   2.519   0.281  1.00 22.47    -0.127 N 
HETATM    8  N14   D T 302      -6.411  -0.305   3.668  1.00 19.91    -0.060 NA
ENDROOT
BRANCH   4   9
HETATM    9  C7    D T 302      -6.462   4.689   0.834  1.00 36.09     0.000 A 
HETATM   10  C8    D T 302      -5.603   4.851  -0.378  1.00 33.93     0.000 A 
HETATM   11  C9    D T 302      -5.543   6.080  -1.129  1.00 52.13     0.007 A 
HETATM   12  C10   D T 302      -6.320   7.181  -0.717  1.00 28.66     0.040 A 
HETATM   13  C11   D T 302      -7.176   7.060   0.468  1.00 35.34     0.064 A 
HETATM   14 CL1    D T 302      -6.340   8.630  -1.477  1.00 15.88    -0.087 Cl
HETATM   15  C12   D T 302      -7.228   5.826   1.214  1.00 17.91    -0.020 A 
ENDBRANCH   4   9
BRANCH   5  16
HETATM   16  C15   D T 302      -4.406   4.060   3.034  1.00 42.82     0.046 C 
HETATM   17  C16   D T 302      -3.494   3.715   4.189  1.00 44.85     0.007 C 
ENDBRANCH   5  16
TORSDOF 2
ENDMDL
MODEL 6
REMARK VINA RESULT:    -6.281      4.213      6.942
REMARK INTER + INTRA:          -7.477
REMARK INTER:                  -7.046
REMARK INTRA:                  -0.431
REMARK UNBOUND:                -0.462
REMARK  2 active torsions:
REMARK  status: ('A' for Active; 'I' for Inactive)
REMARK    1  A    between atoms: C4_4  and  C7_7 
REMARK    2  A    between atoms: C5_5  and  C15_15 
ROOT
HETATM    1  N1    D T 302      -6.741  -0.335   1.776  1.00 23.04    -0.194 NA
HETATM    2  C2    D T 302      -6.541   1.069   1.709  1.00 19.75     0.239 A 
HETATM    3  C3    D T 302      -7.953  -0.877   1.334  1.00 20.04     0.187 A 
HETATM    4  C4    D T 302      -9.060   0.007   0.794  1.00 18.39     0.051 A 
HETATM    5  C5    D T 302      -8.706   1.496   0.770  1.00 33.99     0.065 A 
HETATM    6  N6    D T 302      -7.506   1.973   1.216  1.00 32.76    -0.219 NA
HETATM    7  N13   D T 302      -8.174  -2.209   1.379  1.00 22.47    -0.127 N 
HETATM    8  N14   D T 302      -5.337   1.624   2.154  1.00 19.91    -0.060 NA
ENDROOT
BRANCH   4   9
HETATM    9  C7    D T 302     -10.341  -0.509   0.314  1.00 36.09     0.000 A 
HETATM   10  C8    D T 302     -10.458  -0.996  -1.094  1.00 33.93     0.000 A 
HETATM   11  C9    D T 302     -11.687  -1.522  -1.634  1.00 52.13     0.007 A 
HETATM   12  C10   D T 302     -12.830  -1.587  -0.814  1.00 28.66     0.040 A 
HETATM   13  C11   D T 302     -12.754  -1.119   0.574  1.00 35.34     0.064 A 
HETATM   14 CL1    D T 302     -14.285  -2.157  -1.304  1.00 15.88    -0.087 Cl
HETATM   15  C12   D T 302     -11.520  -0.593   1.105  1.00 17.91    -0.020 A 
ENDBRANCH   4   9
BRANCH   5  16
HETATM   16  C15   D T 302      -9.702   2.499   0.242  1.00 42.82     0.046 C 
HETATM   17  C16   D T 302      -9.310   3.958   0.234  1.00 44.85     0.007 C 
ENDBRANCH   5  16
TORSDOF 2
ENDMDL
MODEL 7
REMARK VINA RESULT:    -6.267      6.878      7.915
REMARK INTER + INTRA:          -7.461
REMARK INTER:                  -7.007
REMARK INTRA:                  -0.454
REMARK UNBOUND:                -0.462
REMARK  2 active torsions:
REMARK  status: ('A' for Active; 'I' for Inactive)
REMARK    1  A    between atoms: C4_4  and  C7_7 
REMARK    2  A    between atoms: C5_5  and  C15_15 
ROOT
HETATM    1  N1    D T 302      -8.994   8.274   0.671  1.00 23.04    -0.194 NA
HETATM    2  C2    D T 302      -8.900   6.977   0.100  1.00 19.75     0.239 A 
HETATM    3  C3    D T 302      -7.919   9.160   0.543  1.00 20.04     0.187 A 
HETATM    4  C4    D T 302      -6.651   8.758  -0.185  1.00 18.39     0.051 A 
HETATM    5  C5    D T 302      -6.689   7.338  -0.757  1.00 33.99     0.065 A 
HETATM    6  N6    D T 302      -7.767   6.513  -0.601  1.00 32.76    -0.219 NA
HETATM    7  N13   D T 302      -7.978  10.403   1.069  1.00 22.47    -0.127 N 
HETATM    8  N14   D T 302      -9.965   6.080   0.228  1.00 19.91    -0.060 NA
ENDROOT
BRANCH   4   9
HETATM    9  C7    D T 302      -5.503   9.647  -0.353  1.00 36.09     0.000 A 
HETATM   10  C8    D T 302      -4.385   9.603   0.638  1.00 33.93     0.000 A 
HETATM   11  C9    D T 302      -3.221  10.447   0.534  1.00 52.13     0.007 A 
HETATM   12  C10   D T 302      -3.118  11.353  -0.540  1.00 28.66     0.040 A 
HETATM   13  C11   D T 302      -4.195  11.424  -1.533  1.00 35.34     0.064 A 
HETATM   14 CL1    D T 302      -1.854  12.367  -0.772  1.00 15.88    -0.087 Cl
HETATM   15  C12   D T 302      -5.357  10.577  -1.420  1.00 17.91    -0.020 A 
ENDBRANCH   4   9
BRANCH   5  16
HETATM   16  C15   D T 302      -5.506   6.802  -1.523  1.00 42.82     0.046 C 
HETATM   17  C16   D T 302      -5.340   5.304  -1.625  1.00 44.85     0.007 C 
ENDBRANCH   5  16
TORSDOF 2
ENDMDL
MODEL 8
REMARK VINA RESULT:    -6.090      3.672      6.040
REMARK INTER + INTRA:          -7.264
REMARK INTER:                  -6.880
REMARK INTRA:                  -0.384
REMARK UNBOUND:                -0.462
REMARK  2 active torsions:
REMARK  status: ('A' for Active; 'I' for Inactive)
REMARK    1  A    between atoms: C4_4  and  C7_7 
REMARK    2  A    between atoms: C5_5  and  C15_15 
ROOT
HETATM    1  N1    D T 302      -5.413   2.169   3.971  1.00 23.04    -0.194 NA
HETATM    2  C2    D T 302      -4.742   3.199   3.261  1.00 19.75     0.239 A 
HETATM    3  C3    D T 302      -6.430   1.448   3.336  1.00 20.04     0.187 A 
HETATM    4  C4    D T 302      -6.837   1.753   1.908  1.00 18.39     0.051 A 
HETATM    5  C5    D T 302      -6.026   2.878   1.261  1.00 33.99     0.065 A 
HETATM    6  N6    D T 302      -5.042   3.552   1.928  1.00 32.76    -0.219 NA
HETATM    7  N13   D T 302      -7.085   0.458   3.982  1.00 22.47    -0.127 N 
HETATM    8  N14   D T 302      -3.728   3.932   3.886  1.00 19.91    -0.060 NA
ENDROOT
BRANCH   4   9
HETATM    9  C7    D T 302      -7.887   1.025   1.197  1.00 36.09     0.000 A 
HETATM   10  C8    D T 302      -7.594  -0.325   0.628  1.00 33.93     0.000 A 
HETATM   11  C9    D T 302      -8.581  -1.101  -0.080  1.00 52.13     0.007 A 
HETATM   12  C10   D T 302      -9.879  -0.579  -0.249  1.00 28.66     0.040 A 
HETATM   13  C11   D T 302     -10.205   0.743   0.296  1.00 35.34     0.064 A 
HETATM   14 CL1    D T 302     -11.088  -1.353  -1.034  1.00 15.88    -0.087 Cl
HETATM   15  C12   D T 302      -9.209   1.513   1.002  1.00 17.91    -0.020 A 
ENDBRANCH   4   9
BRANCH   5  16
HETATM   16  C15   D T 302      -6.304   3.283  -0.166  1.00 42.82     0.046 C 
HETATM   17  C16   D T 302      -5.156   3.810  -0.996  1.00 44.85     0.007 C 
ENDBRANCH   5  16
TORSDOF 2
ENDMDL
MODEL 9
REMARK VINA RESULT:    -5.754      3.701      5.005
REMARK INTER + INTRA:          -6.889
REMARK INTER:                  -6.608
REMARK INTRA:                  -0.281
REMARK UNBOUND:                -0.462
REMARK  2 active torsions:
REMARK  status: ('A' for Active; 'I' for Inactive)
REMARK    1  A    between atoms: C4_4  and  C7_7 
REMARK    2  A    between atoms: C5_5  and  C15_15 
ROOT
HETATM    1  N1    D T 302      -5.609   1.348   1.975  1.00 23.04    -0.194 NA
HETATM    2  C2    D T 302      -6.805   0.596   1.828  1.00 19.75     0.239 A 
HETATM    3  C3    D T 302      -5.578   2.679   1.545  1.00 20.04     0.187 A 
HETATM    4  C4    D T 302      -6.794   3.330   0.914  1.00 18.39     0.051 A 
HETATM    5  C5    D T 302      -8.014   2.409   0.826  1.00 33.99     0.065 A 
HETATM    6  N6    D T 302      -7.989   1.115   1.262  1.00 32.76    -0.219 NA
HETATM    7  N13   D T 302      -4.459   3.423   1.675  1.00 22.47    -0.127 N 
HETATM    8  N14   D T 302      -6.847  -0.738   2.248  1.00 19.91    -0.060 NA
ENDROOT
BRANCH   4   9
HETATM    9  C7    D T 302      -6.816   4.718   0.455  1.00 36.09     0.000 A 
HETATM   10  C8    D T 302      -6.091   5.091  -0.798  1.00 33.93     0.000 A 
HETATM   11  C9    D T 302      -6.074   6.438  -1.313  1.00 52.13     0.007 A 
HETATM   12  C10   D T 302      -6.762   7.452  -0.619  1.00 28.66     0.040 A 
HETATM   13  C11   D T 302      -7.485   7.124   0.614  1.00 35.34     0.064 A 
HETATM   14 CL1    D T 302      -6.817   9.018  -1.093  1.00 15.88    -0.087 Cl
HETATM   15  C12   D T 302      -7.496   5.774   1.122  1.00 17.91    -0.020 A 
ENDBRANCH   4   9
BRANCH   5  16
HETATM   16  C15   D T 302      -9.305   2.923   0.238  1.00 42.82     0.046 C 
HETATM   17  C16   D T 302     -10.521   2.029   0.296  1.00 44.85     0.007 C 
ENDBRANCH   5  16
TORSDOF 2
ENDMDL
