MODEL 1
REMARK VINA RESULT:    -6.778      0.000      0.000
REMARK INTER + INTRA:          -8.138
REMARK INTER:                  -7.570
REMARK INTRA:                  -0.568
REMARK UNBOUND:                -0.568
REMARK  2 active torsions:
REMARK  status: ('A' for Active; 'I' for Inactive)
REMARK    1  A    between atoms: C4_4  and  C7_7 
REMARK    2  A    between atoms: C5_5  and  C15_15 
ROOT
HETATM    1  N1    D T 302      -6.134   5.962   1.688  1.00 23.04    -0.194 NA
HETATM    2  C2    D T 302      -5.500   7.091   1.107  1.00 19.75     0.239 A 
HETATM    3  C3    D T 302      -5.401   5.123   2.535  1.00 20.04     0.187 A 
HETATM    4  C4    D T 302      -3.939   5.391   2.835  1.00 18.39     0.051 A 
HETATM    5  C5    D T 302      -3.388   6.644   2.151  1.00 33.99     0.065 A 
HETATM    6  N6    D T 302      -4.149   7.430   1.332  1.00 32.76    -0.219 NA
HETATM    7  N13   D T 302      -5.976   4.043   3.107  1.00 22.47    -0.127 N 
HETATM    8  N14   D T 302      -6.220   7.934   0.254  1.00 19.91    -0.060 NA
ENDROOT
BRANCH   4   9
HETATM    9  C7    D T 302      -3.132   4.549   3.717  1.00 36.09     0.000 A 
HETATM   10  C8    D T 302      -3.139   4.804   5.189  1.00 33.93     0.000 A 
HETATM   11  C9    D T 302      -2.372   4.013   6.118  1.00 52.13     0.007 A 
HETATM   12  C10   D T 302      -1.579   2.954   5.633  1.00 28.66     0.040 A 
HETATM   13  C11   D T 302      -1.547   2.673   4.195  1.00 35.34     0.064 A 
HETATM   14 CL1    D T 302      -0.660   1.985   6.578  1.00 15.88    -0.087 Cl
HETATM   15  C12   D T 302      -2.318   3.471   3.273  1.00 17.91    -0.020 A 
ENDBRANCH   4   9
BRANCH   5  16
HETATM   16  C15   D T 302      -1.951   7.052   2.371  1.00 42.82     0.046 C 
HETATM   17  C16   D T 302      -0.905   6.528   1.414  1.00 44.85     0.007 C 
ENDBRANCH   5  16
TORSDOF 2
ENDMDL
MODEL 2
REMARK VINA RESULT:    -6.660      1.221      2.860
REMARK INTER + INTRA:          -8.006
REMARK INTER:                  -7.573
REMARK INTRA:                  -0.433
REMARK UNBOUND:                -0.568
REMARK  2 active torsions:
REMARK  status: ('A' for Active; 'I' for Inactive)
REMARK    1  A    between atoms: C4_4  and  C7_7 
REMARK    2  A    between atoms: C5_5  and  C15_15 
ROOT
HETATM    1  N1    D T 302      -4.333   7.993   1.984  1.00 23.04    -0.194 NA
HETATM    2  C2    D T 302      -5.385   7.465   1.190  1.00 19.75     0.239 A 
HETATM    3  C3    D T 302      -3.578   7.130   2.785  1.00 20.04     0.187 A 
HETATM    4  C4    D T 302      -3.868   5.642   2.830  1.00 18.39     0.051 A 
HETATM    5  C5    D T 302      -5.020   5.209   1.920  1.00 33.99     0.065 A 
HETATM    6  N6    D T 302      -5.727   6.096   1.156  1.00 32.76    -0.219 NA
HETATM    7  N13   D T 302      -2.568   7.600   3.549  1.00 22.47    -0.127 N 
HETATM    8  N14   D T 302      -6.151   8.318   0.389  1.00 19.91    -0.060 NA
ENDROOT
BRANCH   4   9
HETATM    9  C7    D T 302      -3.106   4.697   3.645  1.00 36.09     0.000 A 
HETATM   10  C8    D T 302      -1.950   3.969   3.041  1.00 33.93     0.000 A 
HETATM   11  C9    D T 302      -1.150   3.028   3.784  1.00 52.13     0.007 A 
HETATM   12  C10   D T 302      -1.460   2.775   5.136  1.00 28.66     0.040 A 
HETATM   13  C11   D T 302      -2.588   3.471   5.764  1.00 35.34     0.064 A 
HETATM   14 CL1    D T 302      -0.638   1.729   6.088  1.00 15.88    -0.087 Cl
HETATM   15  C12   D T 302      -3.382   4.411   5.011  1.00 17.91    -0.020 A 
ENDBRANCH   4   9
BRANCH   5  16
HETATM   16  C15   D T 302      -5.415   3.755   1.843  1.00 42.82     0.046 C 
HETATM   17  C16   D T 302      -6.606   3.381   0.992  1.00 44.85     0.007 C 
ENDBRANCH   5  16
TORSDOF 2
ENDMDL
MODEL 3
REMARK VINA RESULT:    -6.562      3.182      5.100
REMARK INTER + INTRA:          -7.897
REMARK INTER:                  -7.315
REMARK INTRA:                  -0.582
REMARK UNBOUND:                -0.568
REMARK  2 active torsions:
REMARK  status: ('A' for Active; 'I' for Inactive)
REMARK    1  A    between atoms: C4_4  and  C7_7 
REMARK    2  A    between atoms: C5_5  and  C15_15 
ROOT
HETATM    1  N1    D T 302      -3.999   6.048   1.215  1.00 23.04    -0.194 NA
HETATM    2  C2    D T 302      -4.270   5.041   2.179  1.00 19.75     0.239 A 
HETATM    3  C3    D T 302      -2.973   6.969   1.455  1.00 20.04     0.187 A 
HETATM    4  C4    D T 302      -2.153   6.919   2.729  1.00 18.39     0.051 A 
HETATM    5  C5    D T 302      -2.545   5.780   3.673  1.00 33.99     0.065 A 
HETATM    6  N6    D T 302      -3.557   4.906   3.389  1.00 32.76    -0.219 NA
HETATM    7  N13   D T 302      -2.687   7.937   0.557  1.00 22.47    -0.127 N 
HETATM    8  N14   D T 302      -5.296   4.118   1.953  1.00 19.91    -0.060 NA
ENDROOT
BRANCH   4   9
HETATM    9  C7    D T 302      -1.067   7.854   3.025  1.00 36.09     0.000 A 
HETATM   10  C8    D T 302       0.324   7.530   2.587  1.00 33.93     0.000 A 
HETATM   11  C9    D T 302       1.441   8.404   2.840  1.00 52.13     0.007 A 
HETATM   12  C10   D T 302       1.228   9.617   3.525  1.00 28.66     0.040 A 
HETATM   13  C11   D T 302      -0.125   9.970   3.969  1.00 35.34     0.064 A 
HETATM   14 CL1    D T 302       2.407  10.695   3.878  1.00 15.88    -0.087 Cl
HETATM   15  C12   D T 302      -1.236   9.087   3.712  1.00 17.91    -0.020 A 
ENDBRANCH   4   9
BRANCH   5  16
HETATM   16  C15   D T 302      -1.805   5.590   4.973  1.00 42.82     0.046 C 
HETATM   17  C16   D T 302      -0.575   4.712   4.975  1.00 44.85     0.007 C 
ENDBRANCH   5  16
TORSDOF 2
ENDMDL
MODEL 4
REMARK VINA RESULT:    -6.458      2.216      4.029
REMARK INTER + INTRA:          -7.782
REMARK INTER:                  -7.204
REMARK INTRA:                  -0.577
REMARK UNBOUND:                -0.568
REMARK  2 active torsions:
REMARK  status: ('A' for Active; 'I' for Inactive)
REMARK    1  A    between atoms: C4_4  and  C7_7 
REMARK    2  A    between atoms: C5_5  and  C15_15 
ROOT
HETATM    1  N1    D T 302      -5.692   5.730   0.879  1.00 23.04    -0.194 NA
HETATM    2  C2    D T 302      -6.077   4.468   1.404  1.00 19.75     0.239 A 
HETATM    3  C3    D T 302      -4.535   6.351   1.363  1.00 20.04     0.187 A 
HETATM    4  C4    D T 302      -3.691   5.706   2.446  1.00 18.39     0.051 A 
HETATM    5  C5    D T 302      -4.216   4.347   2.912  1.00 33.99     0.065 A 
HETATM    6  N6    D T 302      -5.354   3.785   2.404  1.00 32.76    -0.219 NA
HETATM    7  N13   D T 302      -4.139   7.549   0.882  1.00 22.47    -0.127 N 
HETATM    8  N14   D T 302      -7.235   3.841   0.932  1.00 19.91    -0.060 NA
ENDROOT
BRANCH   4   9
HETATM    9  C7    D T 302      -2.471   6.310   2.981  1.00 36.09     0.000 A 
HETATM   10  C8    D T 302      -1.157   6.013   2.336  1.00 33.93     0.000 A 
HETATM   11  C9    D T 302       0.084   6.575   2.806  1.00 52.13     0.007 A 
HETATM   12  C10   D T 302       0.072   7.441   3.917  1.00 28.66     0.040 A 
HETATM   13  C11   D T 302      -1.199   7.757   4.577  1.00 35.34     0.064 A 
HETATM   14 CL1    D T 302       1.408   8.141   4.552  1.00 15.88    -0.087 Cl
HETATM   15  C12   D T 302      -2.435   7.189   4.099  1.00 17.91    -0.020 A 
ENDBRANCH   4   9
BRANCH   5  16
HETATM   16  C15   D T 302      -3.471   3.574   3.972  1.00 42.82     0.046 C 
HETATM   17  C16   D T 302      -3.801   3.846   5.421  1.00 44.85     0.007 C 
ENDBRANCH   5  16
TORSDOF 2
ENDMDL
MODEL 5
REMARK VINA RESULT:    -6.458      3.769      5.798
REMARK INTER + INTRA:          -7.781
REMARK INTER:                  -7.320
REMARK INTRA:                  -0.460
REMARK UNBOUND:                -0.568
REMARK  2 active torsions:
REMARK  status: ('A' for Active; 'I' for Inactive)
REMARK    1  A    between atoms: C4_4  and  C7_7 
REMARK    2  A    between atoms: C5_5  and  C15_15 
ROOT
HETATM    1  N1    D T 302      -3.456   3.716   4.362  1.00 23.04    -0.194 NA
HETATM    2  C2    D T 302      -2.266   4.182   3.741  1.00 19.75     0.239 A 
HETATM    3  C3    D T 302      -4.696   4.135   3.869  1.00 20.04     0.187 A 
HETATM    4  C4    D T 302      -4.795   5.086   2.692  1.00 18.39     0.051 A 
HETATM    5  C5    D T 302      -3.439   5.499   2.116  1.00 33.99     0.065 A 
HETATM    6  N6    D T 302      -2.254   5.059   2.637  1.00 32.76    -0.219 NA
HETATM    7  N13   D T 302      -5.846   3.707   4.434  1.00 22.47    -0.127 N 
HETATM    8  N14   D T 302      -1.020   3.774   4.228  1.00 19.91    -0.060 NA
ENDROOT
BRANCH   4   9
HETATM    9  C7    D T 302      -6.066   5.549   2.136  1.00 36.09     0.000 A 
HETATM   10  C8    D T 302      -6.871   4.631   1.274  1.00 33.93     0.000 A 
HETATM   11  C9    D T 302      -8.134   5.017   0.696  1.00 52.13     0.007 A 
HETATM   12  C10   D T 302      -8.641   6.308   0.945  1.00 28.66     0.040 A 
HETATM   13  C11   D T 302      -7.880   7.236   1.787  1.00 35.34     0.064 A 
HETATM   14 CL1    D T 302     -10.056   6.871   0.348  1.00 15.88    -0.087 Cl
HETATM   15  C12   D T 302      -6.617   6.840   2.360  1.00 17.91    -0.020 A 
ENDBRANCH   4   9
BRANCH   5  16
HETATM   16  C15   D T 302      -3.376   6.428   0.928  1.00 42.82     0.046 C 
HETATM   17  C16   D T 302      -3.135   7.898   1.182  1.00 44.85     0.007 C 
ENDBRANCH   5  16
TORSDOF 2
ENDMDL
MODEL 6
REMARK VINA RESULT:    -6.370      3.412      4.945
REMARK INTER + INTRA:          -7.683
REMARK INTER:                  -7.112
REMARK INTRA:                  -0.572
REMARK UNBOUND:                -0.568
REMARK  2 active torsions:
REMARK  status: ('A' for Active; 'I' for Inactive)
REMARK    1  A    between atoms: C4_4  and  C7_7 
REMARK    2  A    between atoms: C5_5  and  C15_15 
ROOT
HETATM    1  N1    D T 302      -3.533   4.881   3.831  1.00 23.04    -0.194 NA
HETATM    2  C2    D T 302      -4.156   4.875   2.555  1.00 19.75     0.239 A 
HETATM    3  C3    D T 302      -2.507   5.796   4.090  1.00 20.04     0.187 A 
HETATM    4  C4    D T 302      -2.040   6.775   3.030  1.00 18.39     0.051 A 
HETATM    5  C5    D T 302      -2.803   6.665   1.708  1.00 33.99     0.065 A 
HETATM    6  N6    D T 302      -3.799   5.751   1.508  1.00 32.76    -0.219 NA
HETATM    7  N13   D T 302      -1.897   5.831   5.295  1.00 22.47    -0.127 N 
HETATM    8  N14   D T 302      -5.179   3.961   2.283  1.00 19.91    -0.060 NA
ENDROOT
BRANCH   4   9
HETATM    9  C7    D T 302      -0.977   7.755   3.252  1.00 36.09     0.000 A 
HETATM   10  C8    D T 302       0.432   7.407   2.896  1.00 33.93     0.000 A 
HETATM   11  C9    D T 302       1.529   8.322   3.082  1.00 52.13     0.007 A 
HETATM   12  C10   D T 302       1.278   9.600   3.622  1.00 28.66     0.040 A 
HETATM   13  C11   D T 302      -0.092   9.978   3.983  1.00 35.34     0.064 A 
HETATM   14 CL1    D T 302       2.432  10.729   3.888  1.00 15.88    -0.087 Cl
HETATM   15  C12   D T 302      -1.183   9.054   3.793  1.00 17.91    -0.020 A 
ENDBRANCH   4   9
BRANCH   5  16
HETATM   16  C15   D T 302      -2.463   7.588   0.564  1.00 42.82     0.046 C 
HETATM   17  C16   D T 302      -1.350   7.183  -0.375  1.00 44.85     0.007 C 
ENDBRANCH   5  16
TORSDOF 2
ENDMDL
MODEL 7
REMARK VINA RESULT:    -6.286      3.350      4.929
REMARK INTER + INTRA:          -7.589
REMARK INTER:                  -7.011
REMARK INTRA:                  -0.579
REMARK UNBOUND:                -0.568
REMARK  2 active torsions:
REMARK  status: ('A' for Active; 'I' for Inactive)
REMARK    1  A    between atoms: C4_4  and  C7_7 
REMARK    2  A    between atoms: C5_5  and  C15_15 
ROOT
HETATM    1  N1    D T 302      -2.634   3.318   4.176  1.00 23.04    -0.194 NA
HETATM    2  C2    D T 302      -3.770   3.447   3.334  1.00 19.75     0.239 A 
HETATM    3  C3    D T 302      -1.690   4.349   4.218  1.00 20.04     0.187 A 
HETATM    4  C4    D T 302      -1.851   5.598   3.373  1.00 18.39     0.051 A 
HETATM    5  C5    D T 302      -3.122   5.608   2.521  1.00 33.99     0.065 A 
HETATM    6  N6    D T 302      -4.013   4.572   2.519  1.00 32.76    -0.219 NA
HETATM    7  N13   D T 302      -0.600   4.260   5.012  1.00 22.47    -0.127 N 
HETATM    8  N14   D T 302      -4.718   2.420   3.280  1.00 19.91    -0.060 NA
ENDROOT
BRANCH   4   9
HETATM    9  C7    D T 302      -0.896   6.706   3.384  1.00 36.09     0.000 A 
HETATM   10  C8    D T 302      -1.051   7.802   4.388  1.00 33.93     0.000 A 
HETATM   11  C9    D T 302      -0.147   8.922   4.461  1.00 52.13     0.007 A 
HETATM   12  C10   D T 302       0.930   8.999   3.557  1.00 28.66     0.040 A 
HETATM   13  C11   D T 302       1.115   7.942   2.557  1.00 35.34     0.064 A 
HETATM   14 CL1    D T 302       2.023  10.217   3.530  1.00 15.88    -0.087 Cl
HETATM   15  C12   D T 302       0.205   6.826   2.492  1.00 17.91    -0.020 A 
ENDBRANCH   4   9
BRANCH   5  16
HETATM   16  C15   D T 302      -3.430   6.794   1.641  1.00 42.82     0.046 C 
HETATM   17  C16   D T 302      -4.221   7.938   2.233  1.00 44.85     0.007 C 
ENDBRANCH   5  16
TORSDOF 2
ENDMDL
MODEL 8
REMARK VINA RESULT:    -6.179      3.830      6.401
REMARK INTER + INTRA:          -7.470
REMARK INTER:                  -7.055
REMARK INTRA:                  -0.415
REMARK UNBOUND:                -0.568
REMARK  2 active torsions:
REMARK  status: ('A' for Active; 'I' for Inactive)
REMARK    1  A    between atoms: C4_4  and  C7_7 
REMARK    2  A    between atoms: C5_5  and  C15_15 
ROOT
HETATM    1  N1    D T 302      -2.177   6.347   1.891  1.00 23.04    -0.194 NA
HETATM    2  C2    D T 302      -2.049   5.202   2.721  1.00 19.75     0.239 A 
HETATM    3  C3    D T 302      -3.452   6.778   1.507  1.00 20.04     0.187 A 
HETATM    4  C4    D T 302      -4.699   6.039   1.952  1.00 18.39     0.051 A 
HETATM    5  C5    D T 302      -4.415   4.832   2.849  1.00 33.99     0.065 A 
HETATM    6  N6    D T 302      -3.147   4.454   3.194  1.00 32.76    -0.219 NA
HETATM    7  N13   D T 302      -3.608   7.865   0.721  1.00 22.47    -0.127 N 
HETATM    8  N14   D T 302      -0.780   4.759   3.107  1.00 19.91    -0.060 NA
ENDROOT
BRANCH   4   9
HETATM    9  C7    D T 302      -6.053   6.451   1.584  1.00 36.09     0.000 A 
HETATM   10  C8    D T 302      -6.759   5.750   0.469  1.00 33.93     0.000 A 
HETATM   11  C9    D T 302      -8.094   6.099   0.054  1.00 52.13     0.007 A 
HETATM   12  C10   D T 302      -8.773   7.140   0.718  1.00 28.66     0.040 A 
HETATM   13  C11   D T 302      -8.113   7.850   1.818  1.00 35.34     0.064 A 
HETATM   14 CL1    D T 302     -10.287   7.637   0.344  1.00 15.88    -0.087 Cl
HETATM   15  C12   D T 302      -6.776   7.494   2.225  1.00 17.91    -0.020 A 
ENDBRANCH   4   9
BRANCH   5  16
HETATM   16  C15   D T 302      -5.558   4.008   3.388  1.00 42.82     0.046 C 
HETATM   17  C16   D T 302      -5.475   3.514   4.814  1.00 44.85     0.007 C 
ENDBRANCH   5  16
TORSDOF 2
ENDMDL
MODEL 9
REMARK VINA RESULT:    -6.090      2.634      4.080
REMARK INTER + INTRA:          -7.370
REMARK INTER:                  -6.814
REMARK INTRA:                  -0.556
REMARK UNBOUND:                -0.568
REMARK  2 active torsions:
REMARK  status: ('A' for Active; 'I' for Inactive)
REMARK    1  A    between atoms: C4_4  and  C7_7 
REMARK    2  A    between atoms: C5_5  and  C15_15 
ROOT
HETATM    1  N1    D T 302      -4.449   3.648   2.624  1.00 23.04    -0.194 NA
HETATM    2  C2    D T 302      -5.493   4.425   2.057  1.00 19.75     0.239 A 
HETATM    3  C3    D T 302      -3.227   4.257   2.927  1.00 20.04     0.187 A 
HETATM    4  C4    D T 302      -2.992   5.729   2.651  1.00 18.39     0.051 A 
HETATM    5  C5    D T 302      -4.202   6.446   2.049  1.00 33.99     0.065 A 
HETATM    6  N6    D T 302      -5.375   5.802   1.772  1.00 32.76    -0.219 NA
HETATM    7  N13   D T 302      -2.215   3.546   3.471  1.00 22.47    -0.127 N 
HETATM    8  N14   D T 302      -6.718   3.826   1.745  1.00 19.91    -0.060 NA
ENDROOT
BRANCH   4   9
HETATM    9  C7    D T 302      -1.735   6.414   2.954  1.00 36.09     0.000 A 
HETATM   10  C8    D T 302      -0.681   6.519   1.902  1.00 33.93     0.000 A 
HETATM   11  C9    D T 302       0.579   7.182   2.127  1.00 52.13     0.007 A 
HETATM   12  C10   D T 302       0.839   7.760   3.386  1.00 28.66     0.040 A 
HETATM   13  C11   D T 302      -0.173   7.678   4.444  1.00 35.34     0.064 A 
HETATM   14 CL1    D T 302       2.226   8.536   3.773  1.00 15.88    -0.087 Cl
HETATM   15  C12   D T 302      -1.430   7.011   4.208  1.00 17.91    -0.020 A 
ENDBRANCH   4   9
BRANCH   5  16
HETATM   16  C15   D T 302      -4.126   7.920   1.737  1.00 42.82     0.046 C 
HETATM   17  C16   D T 302      -4.351   8.902   2.864  1.00 44.85     0.007 C 
ENDBRANCH   5  16
TORSDOF 2
ENDMDL
