MODEL 1
REMARK VINA RESULT:    -6.932      0.000      0.000
REMARK INTER + INTRA:          -8.075
REMARK INTER:                  -7.743
REMARK INTRA:                  -0.332
REMARK UNBOUND:                -0.332
REMARK  2 active torsions:
REMARK  status: ('A' for Active; 'I' for Inactive)
REMARK    1  A    between atoms: C4_4  and  C7_7 
REMARK    2  A    between atoms: C5_5  and  C15_15 
ROOT
HETATM    1  N1    D T 302     -18.701   2.611  10.521  1.00 23.04    -0.194 NA
HETATM    2  C2    D T 302     -19.244   1.539  11.278  1.00 19.75     0.239 A 
HETATM    3  C3    D T 302     -19.199   3.905  10.708  1.00 20.04     0.187 A 
HETATM    4  C4    D T 302     -20.316   4.183  11.694  1.00 18.39     0.051 A 
HETATM    5  C5    D T 302     -20.800   2.941  12.447  1.00 33.99     0.065 A 
HETATM    6  N6    D T 302     -20.277   1.698  12.226  1.00 32.76    -0.219 NA
HETATM    7  N13   D T 302     -18.700   4.946  10.007  1.00 22.47    -0.127 N 
HETATM    8  N14   D T 302     -18.759   0.240  11.097  1.00 19.91    -0.060 NA
ENDROOT
BRANCH   4   9
HETATM    9  C7    D T 302     -20.867   5.517  11.930  1.00 36.09     0.000 A 
HETATM   10  C8    D T 302     -20.090   6.503  12.739  1.00 33.93     0.000 A 
HETATM   11  C9    D T 302     -20.569   7.837  13.008  1.00 52.13     0.007 A 
HETATM   12  C10   D T 302     -21.817   8.239  12.494  1.00 28.66     0.040 A 
HETATM   13  C11   D T 302     -22.609   7.298  11.696  1.00 35.34     0.064 A 
HETATM   14 CL1    D T 302     -22.477   9.718  12.730  1.00 15.88    -0.087 Cl
HETATM   15  C12   D T 302     -22.121   5.966  11.433  1.00 17.91    -0.020 A 
ENDBRANCH   4   9
BRANCH   5  16
HETATM   16  C15   D T 302     -21.896   3.064  13.476  1.00 42.82     0.046 C 
HETATM   17  C16   D T 302     -22.218   1.857  14.327  1.00 44.85     0.007 C 
ENDBRANCH   5  16
TORSDOF 2
ENDMDL
MODEL 2
REMARK VINA RESULT:    -6.893      4.348      6.331
REMARK INTER + INTRA:          -8.032
REMARK INTER:                  -7.523
REMARK INTRA:                  -0.509
REMARK UNBOUND:                -0.332
REMARK  2 active torsions:
REMARK  status: ('A' for Active; 'I' for Inactive)
REMARK    1  A    between atoms: C4_4  and  C7_7 
REMARK    2  A    between atoms: C5_5  and  C15_15 
ROOT
HETATM    1  N1    D T 302     -23.027   9.805  12.632  1.00 23.04    -0.194 NA
HETATM    2  C2    D T 302     -24.183   9.671  11.818  1.00 19.75     0.239 A 
HETATM    3  C3    D T 302     -22.054   8.800  12.614  1.00 20.04     0.187 A 
HETATM    4  C4    D T 302     -22.216   7.565  11.750  1.00 18.39     0.051 A 
HETATM    5  C5    D T 302     -23.500   7.555  10.918  1.00 33.99     0.065 A 
HETATM    6  N6    D T 302     -24.419   8.565  10.974  1.00 32.76    -0.219 NA
HETATM    7  N13   D T 302     -20.942   8.900  13.373  1.00 22.47    -0.127 N 
HETATM    8  N14   D T 302     -25.166  10.665  11.832  1.00 19.91    -0.060 NA
ENDROOT
BRANCH   4   9
HETATM    9  C7    D T 302     -21.226   6.489  11.690  1.00 36.09     0.000 A 
HETATM   10  C8    D T 302     -21.457   5.231  12.461  1.00 33.93     0.000 A 
HETATM   11  C9    D T 302     -20.527   4.129  12.445  1.00 52.13     0.007 A 
HETATM   12  C10   D T 302     -19.350   4.228  11.677  1.00 28.66     0.040 A 
HETATM   13  C11   D T 302     -19.089   5.448  10.907  1.00 35.34     0.064 A 
HETATM   14 CL1    D T 302     -18.213   3.056  11.577  1.00 15.88    -0.087 Cl
HETATM   15  C12   D T 302     -20.025   6.546  10.930  1.00 17.91    -0.020 A 
ENDBRANCH   4   9
BRANCH   5  16
HETATM   16  C15   D T 302     -23.791   6.398   9.994  1.00 42.82     0.046 C 
HETATM   17  C16   D T 302     -24.644   5.264  10.514  1.00 44.85     0.007 C 
ENDBRANCH   5  16
TORSDOF 2
ENDMDL
MODEL 3
REMARK VINA RESULT:    -6.831      3.686      5.757
REMARK INTER + INTRA:          -7.962
REMARK INTER:                  -7.521
REMARK INTRA:                  -0.441
REMARK UNBOUND:                -0.332
REMARK  2 active torsions:
REMARK  status: ('A' for Active; 'I' for Inactive)
REMARK    1  A    between atoms: C4_4  and  C7_7 
REMARK    2  A    between atoms: C5_5  and  C15_15 
ROOT
HETATM    1  N1    D T 302     -24.324   4.777  10.853  1.00 23.04    -0.194 NA
HETATM    2  C2    D T 302     -24.272   6.197  10.864  1.00 19.75     0.239 A 
HETATM    3  C3    D T 302     -23.182   4.045  11.193  1.00 20.04     0.187 A 
HETATM    4  C4    D T 302     -21.885   4.738  11.562  1.00 18.39     0.051 A 
HETATM    5  C5    D T 302     -21.972   6.266  11.543  1.00 33.99     0.065 A 
HETATM    6  N6    D T 302     -23.116   6.932  11.203  1.00 32.76    -0.219 NA
HETATM    7  N13   D T 302     -23.201   2.695  11.196  1.00 22.47    -0.127 N 
HETATM    8  N14   D T 302     -25.405   6.940  10.520  1.00 19.91    -0.060 NA
ENDROOT
BRANCH   4   9
HETATM    9  C7    D T 302     -20.666   4.019  11.931  1.00 36.09     0.000 A 
HETATM   10  C8    D T 302     -19.595   3.812  10.911  1.00 33.93     0.000 A 
HETATM   11  C9    D T 302     -18.365   3.117  11.205  1.00 52.13     0.007 A 
HETATM   12  C10   D T 302     -18.152   2.609  12.501  1.00 28.66     0.040 A 
HETATM   13  C11   D T 302     -19.181   2.794  13.529  1.00 35.34     0.064 A 
HETATM   14 CL1    D T 302     -16.808   1.799  12.963  1.00 15.88    -0.087 Cl
HETATM   15  C12   D T 302     -20.408   3.489  13.225  1.00 17.91    -0.020 A 
ENDBRANCH   4   9
BRANCH   5  16
HETATM   16  C15   D T 302     -20.765   7.094  11.907  1.00 42.82     0.046 C 
HETATM   17  C16   D T 302     -20.939   8.210  12.912  1.00 44.85     0.007 C 
ENDBRANCH   5  16
TORSDOF 2
ENDMDL
MODEL 4
REMARK VINA RESULT:    -6.606      3.705      5.328
REMARK INTER + INTRA:          -7.711
REMARK INTER:                  -7.147
REMARK INTRA:                  -0.564
REMARK UNBOUND:                -0.332
REMARK  2 active torsions:
REMARK  status: ('A' for Active; 'I' for Inactive)
REMARK    1  A    between atoms: C4_4  and  C7_7 
REMARK    2  A    between atoms: C5_5  and  C15_15 
ROOT
HETATM    1  N1    D T 302     -22.572   6.848  11.200  1.00 23.04    -0.194 NA
HETATM    2  C2    D T 302     -23.789   6.127  11.068  1.00 19.75     0.239 A 
HETATM    3  C3    D T 302     -21.388   6.154  11.468  1.00 20.04     0.187 A 
HETATM    4  C4    D T 302     -21.380   4.647  11.631  1.00 18.39     0.051 A 
HETATM    5  C5    D T 302     -22.754   3.998  11.455  1.00 33.99     0.065 A 
HETATM    6  N6    D T 302     -23.881   4.724  11.194  1.00 32.76    -0.219 NA
HETATM    7  N13   D T 302     -20.215   6.811  11.594  1.00 22.47    -0.127 N 
HETATM    8  N14   D T 302     -24.981   6.810  10.807  1.00 19.91    -0.060 NA
ENDROOT
BRANCH   4   9
HETATM    9  C7    D T 302     -20.168   3.874  11.905  1.00 36.09     0.000 A 
HETATM   10  C8    D T 302     -19.397   3.286  10.769  1.00 33.93     0.000 A 
HETATM   11  C9    D T 302     -18.192   2.517  10.963  1.00 52.13     0.007 A 
HETATM   12  C10   D T 302     -17.712   2.305  12.270  1.00 28.66     0.040 A 
HETATM   13  C11   D T 302     -18.442   2.867  13.410  1.00 35.34     0.064 A 
HETATM   14 CL1    D T 302     -16.364   1.449  12.628  1.00 15.88    -0.087 Cl
HETATM   15  C12   D T 302     -19.647   3.634  13.205  1.00 17.91    -0.020 A 
ENDBRANCH   4   9
BRANCH   5  16
HETATM   16  C15   D T 302     -22.900   2.501  11.570  1.00 42.82     0.046 C 
HETATM   17  C16   D T 302     -23.150   1.909  12.938  1.00 44.85     0.007 C 
ENDBRANCH   5  16
TORSDOF 2
ENDMDL
MODEL 5
REMARK VINA RESULT:    -6.582      3.838      6.020
REMARK INTER + INTRA:          -7.684
REMARK INTER:                  -7.173
REMARK INTRA:                  -0.511
REMARK UNBOUND:                -0.332
REMARK  2 active torsions:
REMARK  status: ('A' for Active; 'I' for Inactive)
REMARK    1  A    between atoms: C4_4  and  C7_7 
REMARK    2  A    between atoms: C5_5  and  C15_15 
ROOT
HETATM    1  N1    D T 302     -21.644   5.544  11.831  1.00 23.04    -0.194 NA
HETATM    2  C2    D T 302     -20.344   5.816  12.333  1.00 19.75     0.239 A 
HETATM    3  C3    D T 302     -22.155   4.245  11.915  1.00 20.04     0.187 A 
HETATM    4  C4    D T 302     -21.342   3.118  12.522  1.00 18.39     0.051 A 
HETATM    5  C5    D T 302     -19.966   3.553  13.031  1.00 33.99     0.065 A 
HETATM    6  N6    D T 302     -19.516   4.838  12.924  1.00 32.76    -0.219 NA
HETATM    7  N13   D T 302     -23.389   3.955  11.451  1.00 22.47    -0.127 N 
HETATM    8  N14   D T 302     -19.819   7.110  12.250  1.00 19.91    -0.060 NA
ENDROOT
BRANCH   4   9
HETATM    9  C7    D T 302     -21.832   1.745  12.639  1.00 36.09     0.000 A 
HETATM   10  C8    D T 302     -22.608   1.340  13.850  1.00 33.93     0.000 A 
HETATM   11  C9    D T 302     -23.126   0.006  14.031  1.00 52.13     0.007 A 
HETATM   12  C10   D T 302     -22.899  -0.964  13.035  1.00 28.66     0.040 A 
HETATM   13  C11   D T 302     -22.142  -0.603  11.832  1.00 35.34     0.064 A 
HETATM   14 CL1    D T 302     -23.425  -2.510  13.118  1.00 15.88    -0.087 Cl
HETATM   15  C12   D T 302     -21.627   0.734  11.661  1.00 17.91    -0.020 A 
ENDBRANCH   4   9
BRANCH   5  16
HETATM   16  C15   D T 302     -19.050   2.544  13.679  1.00 42.82     0.046 C 
HETATM   17  C16   D T 302     -17.733   2.236  13.004  1.00 44.85     0.007 C 
ENDBRANCH   5  16
TORSDOF 2
ENDMDL
MODEL 6
REMARK VINA RESULT:    -6.380      4.564      6.842
REMARK INTER + INTRA:          -7.459
REMARK INTER:                  -7.101
REMARK INTRA:                  -0.358
REMARK UNBOUND:                -0.332
REMARK  2 active torsions:
REMARK  status: ('A' for Active; 'I' for Inactive)
REMARK    1  A    between atoms: C4_4  and  C7_7 
REMARK    2  A    between atoms: C5_5  and  C15_15 
ROOT
HETATM    1  N1    D T 302     -22.558   4.177  11.830  1.00 23.04    -0.194 NA
HETATM    2  C2    D T 302     -21.138   4.209  11.855  1.00 19.75     0.239 A 
HETATM    3  C3    D T 302     -23.217   2.944  11.827  1.00 20.04     0.187 A 
HETATM    4  C4    D T 302     -22.444   1.639  11.837  1.00 18.39     0.051 A 
HETATM    5  C5    D T 302     -20.925   1.820  11.873  1.00 33.99     0.065 A 
HETATM    6  N6    D T 302     -20.332   3.051  11.876  1.00 32.76    -0.219 NA
HETATM    7  N13   D T 302     -24.566   2.879  11.808  1.00 22.47    -0.127 N 
HETATM    8  N14   D T 302     -20.467   5.436  11.852  1.00 19.91    -0.060 NA
ENDROOT
BRANCH   4   9
HETATM    9  C7    D T 302     -23.085   0.324  11.841  1.00 36.09     0.000 A 
HETATM   10  C8    D T 302     -23.164  -0.453  13.114  1.00 33.93     0.000 A 
HETATM   11  C9    D T 302     -23.785  -1.753  13.193  1.00 52.13     0.007 A 
HETATM   12  C10   D T 302     -24.343  -2.323  12.032  1.00 28.66     0.040 A 
HETATM   13  C11   D T 302     -24.285  -1.589  10.764  1.00 35.34     0.064 A 
HETATM   14 CL1    D T 302     -25.070  -3.788  11.984  1.00 15.88    -0.087 Cl
HETATM   15  C12   D T 302     -23.660  -0.290  10.695  1.00 17.91    -0.020 A 
ENDBRANCH   4   9
BRANCH   5  16
HETATM   16  C15   D T 302     -20.023   0.612  11.907  1.00 42.82     0.046 C 
HETATM   17  C16   D T 302     -18.712   0.676  11.158  1.00 44.85     0.007 C 
ENDBRANCH   5  16
TORSDOF 2
ENDMDL
MODEL 7
REMARK VINA RESULT:    -6.280      2.505      4.048
REMARK INTER + INTRA:          -7.346
REMARK INTER:                  -6.845
REMARK INTRA:                  -0.502
REMARK UNBOUND:                -0.332
REMARK  2 active torsions:
REMARK  status: ('A' for Active; 'I' for Inactive)
REMARK    1  A    between atoms: C4_4  and  C7_7 
REMARK    2  A    between atoms: C5_5  and  C15_15 
ROOT
HETATM    1  N1    D T 302     -22.404   3.450  11.512  1.00 23.04    -0.194 NA
HETATM    2  C2    D T 302     -21.028   3.653  11.798  1.00 19.75     0.239 A 
HETATM    3  C3    D T 302     -23.245   4.557  11.360  1.00 20.04     0.187 A 
HETATM    4  C4    D T 302     -22.717   5.971  11.509  1.00 18.39     0.051 A 
HETATM    5  C5    D T 302     -21.218   6.044  11.807  1.00 33.99     0.065 A 
HETATM    6  N6    D T 302     -20.442   4.928  11.945  1.00 32.76    -0.219 NA
HETATM    7  N13   D T 302     -24.557   4.397  11.083  1.00 22.47    -0.127 N 
HETATM    8  N14   D T 302     -20.178   2.554  11.958  1.00 19.91    -0.060 NA
ENDROOT
BRANCH   4   9
HETATM    9  C7    D T 302     -23.553   7.161  11.354  1.00 36.09     0.000 A 
HETATM   10  C8    D T 302     -24.087   7.850  12.567  1.00 33.93     0.000 A 
HETATM   11  C9    D T 302     -24.913   9.030  12.491  1.00 52.13     0.007 A 
HETATM   12  C10   D T 302     -25.237   9.566  11.229  1.00 28.66     0.040 A 
HETATM   13  C11   D T 302     -24.730   8.917  10.015  1.00 35.34     0.064 A 
HETATM   14 CL1    D T 302     -26.166  10.893  11.003  1.00 15.88    -0.087 Cl
HETATM   15  C12   D T 302     -23.906   7.736  10.102  1.00 17.91    -0.020 A 
ENDBRANCH   4   9
BRANCH   5  16
HETATM   16  C15   D T 302     -20.546   7.386  11.962  1.00 42.82     0.046 C 
HETATM   17  C16   D T 302     -20.556   8.038  13.326  1.00 44.85     0.007 C 
ENDBRANCH   5  16
TORSDOF 2
ENDMDL
MODEL 8
REMARK VINA RESULT:    -6.267      3.811      6.050
REMARK INTER + INTRA:          -7.332
REMARK INTER:                  -6.884
REMARK INTRA:                  -0.448
REMARK UNBOUND:                -0.332
REMARK  2 active torsions:
REMARK  status: ('A' for Active; 'I' for Inactive)
REMARK    1  A    between atoms: C4_4  and  C7_7 
REMARK    2  A    between atoms: C5_5  and  C15_15 
ROOT
HETATM    1  N1    D T 302     -19.576   4.705  12.874  1.00 23.04    -0.194 NA
HETATM    2  C2    D T 302     -20.430   5.677  12.288  1.00 19.75     0.239 A 
HETATM    3  C3    D T 302     -20.024   3.388  13.008  1.00 20.04     0.187 A 
HETATM    4  C4    D T 302     -21.411   2.979  12.550  1.00 18.39     0.051 A 
HETATM    5  C5    D T 302     -22.220   4.120  11.930  1.00 33.99     0.065 A 
HETATM    6  N6    D T 302     -21.732   5.392  11.823  1.00 32.76    -0.219 NA
HETATM    7  N13   D T 302     -19.234   2.440  13.556  1.00 22.47    -0.127 N 
HETATM    8  N14   D T 302     -19.996   6.999  12.154  1.00 19.91    -0.060 NA
ENDROOT
BRANCH   4   9
HETATM    9  C7    D T 302     -21.925   1.614  12.662  1.00 36.09     0.000 A 
HETATM   10  C8    D T 302     -22.706   1.217  13.872  1.00 33.93     0.000 A 
HETATM   11  C9    D T 302     -23.247  -0.109  14.047  1.00 52.13     0.007 A 
HETATM   12  C10   D T 302     -23.038  -1.078  13.047  1.00 28.66     0.040 A 
HETATM   13  C11   D T 302     -22.276  -0.725  11.845  1.00 35.34     0.064 A 
HETATM   14 CL1    D T 302     -23.591  -2.615  13.124  1.00 15.88    -0.087 Cl
HETATM   15  C12   D T 302     -21.738   0.604  11.679  1.00 17.91    -0.020 A 
ENDBRANCH   4   9
BRANCH   5  16
HETATM   16  C15   D T 302     -23.612   3.861  11.410  1.00 42.82     0.046 C 
HETATM   17  C16   D T 302     -24.311   4.968  10.655  1.00 44.85     0.007 C 
ENDBRANCH   5  16
TORSDOF 2
ENDMDL
MODEL 9
REMARK VINA RESULT:    -6.232      4.320      6.442
REMARK INTER + INTRA:          -7.293
REMARK INTER:                  -6.798
REMARK INTRA:                  -0.495
REMARK UNBOUND:                -0.332
REMARK  2 active torsions:
REMARK  status: ('A' for Active; 'I' for Inactive)
REMARK    1  A    between atoms: C4_4  and  C7_7 
REMARK    2  A    between atoms: C5_5  and  C15_15 
ROOT
HETATM    1  N1    D T 302     -19.911   3.210  12.035  1.00 23.04    -0.194 NA
HETATM    2  C2    D T 302     -20.658   4.408  11.882  1.00 19.75     0.239 A 
HETATM    3  C3    D T 302     -20.582   1.983  12.083  1.00 20.04     0.187 A 
HETATM    4  C4    D T 302     -22.093   1.910  11.987  1.00 18.39     0.051 A 
HETATM    5  C5    D T 302     -22.770   3.271  11.815  1.00 33.99     0.065 A 
HETATM    6  N6    D T 302     -22.065   4.441  11.774  1.00 32.76    -0.219 NA
HETATM    7  N13   D T 302     -19.900   0.826  12.224  1.00 22.47    -0.127 N 
HETATM    8  N14   D T 302     -20.000   5.641  11.838  1.00 19.91    -0.060 NA
ENDROOT
BRANCH   4   9
HETATM    9  C7    D T 302     -22.841   0.653  12.026  1.00 36.09     0.000 A 
HETATM   10  C8    D T 302     -23.116  -0.001  13.341  1.00 33.93     0.000 A 
HETATM   11  C9    D T 302     -23.851  -1.237  13.456  1.00 52.13     0.007 A 
HETATM   12  C10   D T 302     -24.334  -1.863  12.290  1.00 28.66     0.040 A 
HETATM   13  C11   D T 302     -24.084  -1.251  10.982  1.00 35.34     0.064 A 
HETATM   14 CL1    D T 302     -25.175  -3.267  12.281  1.00 15.88    -0.087 Cl
HETATM   15  C12   D T 302     -23.347  -0.015  10.878  1.00 17.91    -0.020 A 
ENDBRANCH   4   9
BRANCH   5  16
HETATM   16  C15   D T 302     -24.270   3.356  11.686  1.00 42.82     0.046 C 
HETATM   17  C16   D T 302     -24.872   3.322  10.300  1.00 44.85     0.007 C 
ENDBRANCH   5  16
TORSDOF 2
ENDMDL
