MODEL 1
REMARK VINA RESULT:    -6.846      0.000      0.000
REMARK INTER + INTRA:          -8.098
REMARK INTER:                  -7.646
REMARK INTRA:                  -0.452
REMARK UNBOUND:                -0.452
REMARK  2 active torsions:
REMARK  status: ('A' for Active; 'I' for Inactive)
REMARK    1  A    between atoms: C4_4  and  C7_7 
REMARK    2  A    between atoms: C5_5  and  C15_15 
ROOT
HETATM    1  N1    D T 302      30.970  -0.095  16.364  1.00 23.04    -0.194 NA
HETATM    2  C2    D T 302      31.076  -1.506  16.246  1.00 19.75     0.239 A 
HETATM    3  C3    D T 302      30.519   0.653  15.270  1.00 20.04     0.187 A 
HETATM    4  C4    D T 302      30.152  -0.013  13.960  1.00 18.39     0.051 A 
HETATM    5  C5    D T 302      30.303  -1.536  13.976  1.00 33.99     0.065 A 
HETATM    6  N6    D T 302      30.749  -2.218  15.072  1.00 32.76    -0.219 NA
HETATM    7  N13   D T 302      30.403   1.996  15.351  1.00 22.47    -0.127 N 
HETATM    8  N14   D T 302      31.531  -2.264  17.330  1.00 19.91    -0.060 NA
ENDROOT
BRANCH   4   9
HETATM    9  C7    D T 302      29.669   0.721  12.791  1.00 36.09     0.000 A 
HETATM   10  C8    D T 302      30.650   1.259  11.801  1.00 33.93     0.000 A 
HETATM   11  C9    D T 302      30.248   1.989  10.625  1.00 52.13     0.007 A 
HETATM   12  C10   D T 302      28.877   2.210  10.386  1.00 28.66     0.040 A 
HETATM   13  C11   D T 302      27.884   1.697  11.334  1.00 35.34     0.064 A 
HETATM   14 CL1    D T 302      28.287   3.024   9.094  1.00 15.88    -0.087 Cl
HETATM   15  C12   D T 302      28.298   0.969  12.509  1.00 17.91    -0.020 A 
ENDBRANCH   4   9
BRANCH   5  16
HETATM   16  C15   D T 302      29.956  -2.341  12.748  1.00 42.82     0.046 C 
HETATM   17  C16   D T 302      29.790  -3.836  12.896  1.00 44.85     0.007 C 
ENDBRANCH   5  16
TORSDOF 2
ENDMDL
MODEL 2
REMARK VINA RESULT:    -6.745      3.749      6.118
REMARK INTER + INTRA:          -7.985
REMARK INTER:                  -7.591
REMARK INTRA:                  -0.395
REMARK UNBOUND:                -0.452
REMARK  2 active torsions:
REMARK  status: ('A' for Active; 'I' for Inactive)
REMARK    1  A    between atoms: C4_4  and  C7_7 
REMARK    2  A    between atoms: C5_5  and  C15_15 
ROOT
HETATM    1  N1    D T 302      30.218   0.396  10.936  1.00 23.04    -0.194 NA
HETATM    2  C2    D T 302      29.334   1.492  11.116  1.00 19.75     0.239 A 
HETATM    3  C3    D T 302      30.484  -0.457  12.014  1.00 20.04     0.187 A 
HETATM    4  C4    D T 302      29.855  -0.225  13.373  1.00 18.39     0.051 A 
HETATM    5  C5    D T 302      28.917   0.984  13.423  1.00 33.99     0.065 A 
HETATM    6  N6    D T 302      28.693   1.785  12.339  1.00 32.76    -0.219 NA
HETATM    7  N13   D T 302      31.317  -1.511  11.873  1.00 22.47    -0.127 N 
HETATM    8  N14   D T 302      29.065   2.355  10.049  1.00 19.91    -0.060 NA
ENDROOT
BRANCH   4   9
HETATM    9  C7    D T 302      30.094  -1.089  14.528  1.00 36.09     0.000 A 
HETATM   10  C8    D T 302      31.067  -0.663  15.579  1.00 33.93     0.000 A 
HETATM   11  C9    D T 302      31.350  -1.461  16.746  1.00 52.13     0.007 A 
HETATM   12  C10   D T 302      30.689  -2.694  16.916  1.00 28.66     0.040 A 
HETATM   13  C11   D T 302      29.727  -3.145  15.906  1.00 35.34     0.064 A 
HETATM   14 CL1    D T 302      30.922  -3.695  18.189  1.00 15.88    -0.087 Cl
HETATM   15  C12   D T 302      29.451  -2.339  14.741  1.00 17.91    -0.020 A 
ENDBRANCH   4   9
BRANCH   5  16
HETATM   16  C15   D T 302      28.202   1.330  14.706  1.00 42.82     0.046 C 
HETATM   17  C16   D T 302      27.027   2.278  14.636  1.00 44.85     0.007 C 
ENDBRANCH   5  16
TORSDOF 2
ENDMDL
MODEL 3
REMARK VINA RESULT:    -6.727      0.952      2.733
REMARK INTER + INTRA:          -7.965
REMARK INTER:                  -7.409
REMARK INTRA:                  -0.556
REMARK UNBOUND:                -0.452
REMARK  2 active torsions:
REMARK  status: ('A' for Active; 'I' for Inactive)
REMARK    1  A    between atoms: C4_4  and  C7_7 
REMARK    2  A    between atoms: C5_5  and  C15_15 
ROOT
HETATM    1  N1    D T 302      30.629  -2.490  14.803  1.00 23.04    -0.194 NA
HETATM    2  C2    D T 302      30.940  -1.820  16.016  1.00 19.75     0.239 A 
HETATM    3  C3    D T 302      30.222  -1.745  13.691  1.00 20.04     0.187 A 
HETATM    4  C4    D T 302      30.097  -0.236  13.760  1.00 18.39     0.051 A 
HETATM    5  C5    D T 302      30.471   0.355  15.121  1.00 33.99     0.065 A 
HETATM    6  N6    D T 302      30.863  -0.420  16.175  1.00 32.76    -0.219 NA
HETATM    7  N13   D T 302      29.923  -2.352  12.523  1.00 22.47    -0.127 N 
HETATM    8  N14   D T 302      31.342  -2.554  17.136  1.00 19.91    -0.060 NA
ENDROOT
BRANCH   4   9
HETATM    9  C7    D T 302      29.682   0.589  12.625  1.00 36.09     0.000 A 
HETATM   10  C8    D T 302      30.719   1.202  11.742  1.00 33.93     0.000 A 
HETATM   11  C9    D T 302      30.385   2.022  10.604  1.00 52.13     0.007 A 
HETATM   12  C10   D T 302      29.030   2.263  10.301  1.00 28.66     0.040 A 
HETATM   13  C11   D T 302      27.984   1.678  11.145  1.00 35.34     0.064 A 
HETATM   14 CL1    D T 302      28.516   3.177   9.045  1.00 15.88    -0.087 Cl
HETATM   15  C12   D T 302      28.329   0.859  12.282  1.00 17.91    -0.020 A 
ENDBRANCH   4   9
BRANCH   5  16
HETATM   16  C15   D T 302      30.414   1.848  15.336  1.00 42.82     0.046 C 
HETATM   17  C16   D T 302      29.126   2.447  15.850  1.00 44.85     0.007 C 
ENDBRANCH   5  16
TORSDOF 2
ENDMDL
MODEL 4
REMARK VINA RESULT:    -6.575      4.076      6.877
REMARK INTER + INTRA:          -7.796
REMARK INTER:                  -7.347
REMARK INTRA:                  -0.449
REMARK UNBOUND:                -0.452
REMARK  2 active torsions:
REMARK  status: ('A' for Active; 'I' for Inactive)
REMARK    1  A    between atoms: C4_4  and  C7_7 
REMARK    2  A    between atoms: C5_5  and  C15_15 
ROOT
HETATM    1  N1    D T 302      29.351  -1.241  12.481  1.00 23.04    -0.194 NA
HETATM    2  C2    D T 302      29.466   0.113  12.892  1.00 19.75     0.239 A 
HETATM    3  C3    D T 302      29.819  -2.256  13.323  1.00 20.04     0.187 A 
HETATM    4  C4    D T 302      30.456  -1.936  14.661  1.00 18.39     0.051 A 
HETATM    5  C5    D T 302      30.507  -0.440  14.981  1.00 33.99     0.065 A 
HETATM    6  N6    D T 302      30.035   0.511  14.121  1.00 32.76    -0.219 NA
HETATM    7  N13   D T 302      29.720  -3.554  12.964  1.00 22.47    -0.127 N 
HETATM    8  N14   D T 302      29.008   1.137  12.056  1.00 19.91    -0.060 NA
ENDROOT
BRANCH   4   9
HETATM    9  C7    D T 302      30.954  -2.959  15.580  1.00 36.09     0.000 A 
HETATM   10  C8    D T 302      30.039  -3.533  16.611  1.00 33.93     0.000 A 
HETATM   11  C9    D T 302      30.459  -4.547  17.546  1.00 52.13     0.007 A 
HETATM   12  C10   D T 302      31.784  -5.025  17.497  1.00 28.66     0.040 A 
HETATM   13  C11   D T 302      32.712  -4.485  16.498  1.00 35.34     0.064 A 
HETATM   14 CL1    D T 302      32.388  -6.167  18.501  1.00 15.88    -0.087 Cl
HETATM   15  C12   D T 302      32.281  -3.470  15.567  1.00 17.91    -0.020 A 
ENDBRANCH   4   9
BRANCH   5  16
HETATM   16  C15   D T 302      31.096   0.032  16.287  1.00 42.82     0.046 C 
HETATM   17  C16   D T 302      31.150   1.519  16.551  1.00 44.85     0.007 C 
ENDBRANCH   5  16
TORSDOF 2
ENDMDL
MODEL 5
REMARK VINA RESULT:    -6.555      4.055      6.403
REMARK INTER + INTRA:          -7.773
REMARK INTER:                  -7.203
REMARK INTRA:                  -0.570
REMARK UNBOUND:                -0.452
REMARK  2 active torsions:
REMARK  status: ('A' for Active; 'I' for Inactive)
REMARK    1  A    between atoms: C4_4  and  C7_7 
REMARK    2  A    between atoms: C5_5  and  C15_15 
ROOT
HETATM    1  N1    D T 302      30.699   1.115  15.478  1.00 23.04    -0.194 NA
HETATM    2  C2    D T 302      29.713   1.006  14.461  1.00 19.75     0.239 A 
HETATM    3  C3    D T 302      31.202  -0.047  16.073  1.00 20.04     0.187 A 
HETATM    4  C4    D T 302      30.707  -1.419  15.661  1.00 18.39     0.051 A 
HETATM    5  C5    D T 302      29.654  -1.390  14.551  1.00 33.99     0.065 A 
HETATM    6  N6    D T 302      29.197  -0.225  14.003  1.00 32.76    -0.219 NA
HETATM    7  N13   D T 302      32.143   0.023  17.040  1.00 22.47    -0.127 N 
HETATM    8  N14   D T 302      29.198   2.160  13.862  1.00 19.91    -0.060 NA
ENDROOT
BRANCH   4   9
HETATM    9  C7    D T 302      31.205  -2.663  16.247  1.00 36.09     0.000 A 
HETATM   10  C8    D T 302      30.532  -3.231  17.454  1.00 33.93     0.000 A 
HETATM   11  C9    D T 302      30.965  -4.454  18.082  1.00 52.13     0.007 A 
HETATM   12  C10   D T 302      32.065  -5.154  17.546  1.00 28.66     0.040 A 
HETATM   13  C11   D T 302      32.750  -4.628  16.361  1.00 35.34     0.064 A 
HETATM   14 CL1    D T 302      32.658  -6.548  18.164  1.00 15.88    -0.087 Cl
HETATM   15  C12   D T 302      32.309  -3.402  15.741  1.00 17.91    -0.020 A 
ENDBRANCH   4   9
BRANCH   5  16
HETATM   16  C15   D T 302      29.081  -2.681  14.022  1.00 42.82     0.046 C 
HETATM   17  C16   D T 302      29.834  -3.403  12.929  1.00 44.85     0.007 C 
ENDBRANCH   5  16
TORSDOF 2
ENDMDL
MODEL 6
REMARK VINA RESULT:    -6.528      3.561      5.131
REMARK INTER + INTRA:          -7.743
REMARK INTER:                  -7.330
REMARK INTRA:                  -0.413
REMARK UNBOUND:                -0.452
REMARK  2 active torsions:
REMARK  status: ('A' for Active; 'I' for Inactive)
REMARK    1  A    between atoms: C4_4  and  C7_7 
REMARK    2  A    between atoms: C5_5  and  C15_15 
ROOT
HETATM    1  N1    D T 302      30.321  -0.855  12.953  1.00 23.04    -0.194 NA
HETATM    2  C2    D T 302      30.189  -0.600  11.563  1.00 19.75     0.239 A 
HETATM    3  C3    D T 302      30.033   0.163  13.869  1.00 20.04     0.187 A 
HETATM    4  C4    D T 302      29.594   1.537  13.404  1.00 18.39     0.051 A 
HETATM    5  C5    D T 302      29.484   1.670  11.883  1.00 33.99     0.065 A 
HETATM    6  N6    D T 302      29.778   0.642  11.033  1.00 32.76    -0.219 NA
HETATM    7  N13   D T 302      30.145  -0.049  15.198  1.00 22.47    -0.127 N 
HETATM    8  N14   D T 302      30.479  -1.608  10.638  1.00 19.91    -0.060 NA
ENDROOT
BRANCH   4   9
HETATM    9  C7    D T 302      29.275   2.632  14.319  1.00 36.09     0.000 A 
HETATM   10  C8    D T 302      27.921   2.699  14.947  1.00 33.93     0.000 A 
HETATM   11  C9    D T 302      27.539   3.746  15.861  1.00 52.13     0.007 A 
HETATM   12  C10   D T 302      28.469   4.754  16.184  1.00 28.66     0.040 A 
HETATM   13  C11   D T 302      29.808   4.722  15.588  1.00 35.34     0.064 A 
HETATM   14 CL1    D T 302      28.162   5.998  17.202  1.00 15.88    -0.087 Cl
HETATM   15  C12   D T 302      30.181   3.670  14.674  1.00 17.91    -0.020 A 
ENDBRANCH   4   9
BRANCH   5  16
HETATM   16  C15   D T 302      29.039   2.975  11.270  1.00 42.82     0.046 C 
HETATM   17  C16   D T 302      29.056   3.101   9.764  1.00 44.85     0.007 C 
ENDBRANCH   5  16
TORSDOF 2
ENDMDL
MODEL 7
REMARK VINA RESULT:    -6.375      2.870      4.038
REMARK INTER + INTRA:          -7.572
REMARK INTER:                  -7.144
REMARK INTRA:                  -0.428
REMARK UNBOUND:                -0.452
REMARK  2 active torsions:
REMARK  status: ('A' for Active; 'I' for Inactive)
REMARK    1  A    between atoms: C4_4  and  C7_7 
REMARK    2  A    between atoms: C5_5  and  C15_15 
ROOT
HETATM    1  N1    D T 302      29.584  -2.162  12.565  1.00 23.04    -0.194 NA
HETATM    2  C2    D T 302      30.245  -2.959  13.537  1.00 19.75     0.239 A 
HETATM    3  C3    D T 302      29.399  -0.797  12.808  1.00 20.04     0.187 A 
HETATM    4  C4    D T 302      29.880  -0.154  14.094  1.00 18.39     0.051 A 
HETATM    5  C5    D T 302      30.582  -1.125  15.046  1.00 33.99     0.065 A 
HETATM    6  N6    D T 302      30.736  -2.452  14.759  1.00 32.76    -0.219 NA
HETATM    7  N13   D T 302      28.778  -0.011  11.901  1.00 22.47    -0.127 N 
HETATM    8  N14   D T 302      30.431  -4.326  13.310  1.00 19.91    -0.060 NA
ENDROOT
BRANCH   4   9
HETATM    9  C7    D T 302      29.717   1.268  14.392  1.00 36.09     0.000 A 
HETATM   10  C8    D T 302      28.433   1.756  14.979  1.00 33.93     0.000 A 
HETATM   11  C9    D T 302      28.203   3.142  15.302  1.00 52.13     0.007 A 
HETATM   12  C10   D T 302      29.222   4.085  15.062  1.00 28.66     0.040 A 
HETATM   13  C11   D T 302      30.497   3.644  14.488  1.00 35.34     0.064 A 
HETATM   14 CL1    D T 302      29.089   5.685  15.379  1.00 15.88    -0.087 Cl
HETATM   15  C12   D T 302      30.716   2.254  14.167  1.00 17.91    -0.020 A 
ENDBRANCH   4   9
BRANCH   5  16
HETATM   16  C15   D T 302      31.133  -0.627  16.359  1.00 42.82     0.046 C 
HETATM   17  C16   D T 302      32.213  -1.439  17.036  1.00 44.85     0.007 C 
ENDBRANCH   5  16
TORSDOF 2
ENDMDL
MODEL 8
REMARK VINA RESULT:    -6.121      2.453      3.608
REMARK INTER + INTRA:          -7.289
REMARK INTER:                  -6.801
REMARK INTRA:                  -0.487
REMARK UNBOUND:                -0.452
REMARK  2 active torsions:
REMARK  status: ('A' for Active; 'I' for Inactive)
REMARK    1  A    between atoms: C4_4  and  C7_7 
REMARK    2  A    between atoms: C5_5  and  C15_15 
ROOT
HETATM    1  N1    D T 302      30.951  -2.744  15.165  1.00 23.04    -0.194 NA
HETATM    2  C2    D T 302      30.628  -3.307  13.902  1.00 19.75     0.239 A 
HETATM    3  C3    D T 302      30.722  -1.382  15.388  1.00 20.04     0.187 A 
HETATM    4  C4    D T 302      30.145  -0.494  14.303  1.00 18.39     0.051 A 
HETATM    5  C5    D T 302      29.836  -1.232  12.998  1.00 33.99     0.065 A 
HETATM    6  N6    D T 302      30.080  -2.566  12.834  1.00 32.76    -0.219 NA
HETATM    7  N13   D T 302      31.014  -0.817  16.579  1.00 22.47    -0.127 N 
HETATM    8  N14   D T 302      30.859  -4.666  13.664  1.00 19.91    -0.060 NA
ENDROOT
BRANCH   4   9
HETATM    9  C7    D T 302      29.880   0.933  14.487  1.00 36.09     0.000 A 
HETATM   10  C8    D T 302      28.489   1.393  14.778  1.00 33.93     0.000 A 
HETATM   11  C9    D T 302      28.155   2.782  14.975  1.00 52.13     0.007 A 
HETATM   12  C10   D T 302      29.172   3.754  14.895  1.00 28.66     0.040 A 
HETATM   13  C11   D T 302      30.549   3.341  14.612  1.00 35.34     0.064 A 
HETATM   14 CL1    D T 302      28.927   5.360  15.094  1.00 15.88    -0.087 Cl
HETATM   15  C12   D T 302      30.873   1.948  14.415  1.00 17.91    -0.020 A 
ENDBRANCH   4   9
BRANCH   5  16
HETATM   16  C15   D T 302      29.239  -0.483  11.832  1.00 42.82     0.046 C 
HETATM   17  C16   D T 302      30.158   0.359  10.977  1.00 44.85     0.007 C 
ENDBRANCH   5  16
TORSDOF 2
ENDMDL
MODEL 9
REMARK VINA RESULT:    -5.926      3.476      5.545
REMARK INTER + INTRA:          -7.070
REMARK INTER:                  -6.842
REMARK INTRA:                  -0.228
REMARK UNBOUND:                -0.452
REMARK  2 active torsions:
REMARK  status: ('A' for Active; 'I' for Inactive)
REMARK    1  A    between atoms: C4_4  and  C7_7 
REMARK    2  A    between atoms: C5_5  and  C15_15 
ROOT
HETATM    1  N1    D T 302      29.090   2.768  12.167  1.00 23.04    -0.194 NA
HETATM    2  C2    D T 302      29.541   3.575  13.244  1.00 19.75     0.239 A 
HETATM    3  C3    D T 302      29.222   1.377  12.247  1.00 20.04     0.187 A 
HETATM    4  C4    D T 302      29.848   0.716  13.459  1.00 18.39     0.051 A 
HETATM    5  C5    D T 302      30.281   1.702  14.548  1.00 33.99     0.065 A 
HETATM    6  N6    D T 302      30.128   3.053  14.417  1.00 32.76    -0.219 NA
HETATM    7  N13   D T 302      28.799   0.582  11.241  1.00 22.47    -0.127 N 
HETATM    8  N14   D T 302      29.420   4.966  13.173  1.00 19.91    -0.060 NA
ENDROOT
BRANCH   4   9
HETATM    9  C7    D T 302      30.004  -0.732  13.596  1.00 36.09     0.000 A 
HETATM   10  C8    D T 302      31.007  -1.448  12.753  1.00 33.93     0.000 A 
HETATM   11  C9    D T 302      31.217  -2.872  12.837  1.00 52.13     0.007 A 
HETATM   12  C10   D T 302      30.454  -3.631  13.747  1.00 28.66     0.040 A 
HETATM   13  C11   D T 302      29.460  -2.962  14.592  1.00 35.34     0.064 A 
HETATM   14 CL1    D T 302      30.591  -5.250  13.937  1.00 15.88    -0.087 Cl
HETATM   15  C12   D T 302      29.256  -1.536  14.499  1.00 17.91    -0.020 A 
ENDBRANCH   4   9
BRANCH   5  16
HETATM   16  C15   D T 302      30.904   1.191  15.823  1.00 42.82     0.046 C 
HETATM   17  C16   D T 302      31.411   2.201  16.826  1.00 44.85     0.007 C 
ENDBRANCH   5  16
TORSDOF 2
ENDMDL
