MODEL 1
REMARK VINA RESULT:    -7.091      0.000      0.000
REMARK INTER + INTRA:          -8.424
REMARK INTER:                  -7.920
REMARK INTRA:                  -0.504
REMARK UNBOUND:                -0.504
REMARK  2 active torsions:
REMARK  status: ('A' for Active; 'I' for Inactive)
REMARK    1  A    between atoms: C4_4  and  C7_7 
REMARK    2  A    between atoms: C5_5  and  C15_15 
ROOT
HETATM    1  N1    D T 302     -22.319  10.406  12.780  1.00 23.04    -0.194 NA
HETATM    2  C2    D T 302     -23.448  10.483  11.922  1.00 19.75     0.239 A 
HETATM    3  C3    D T 302     -21.477   9.291  12.709  1.00 20.04     0.187 A 
HETATM    4  C4    D T 302     -21.754   8.157  11.741  1.00 18.39     0.051 A 
HETATM    5  C5    D T 302     -22.995   8.374  10.872  1.00 33.99     0.065 A 
HETATM    6  N6    D T 302     -23.785   9.483  10.983  1.00 32.76    -0.219 NA
HETATM    7  N13   D T 302     -20.393   9.190  13.507  1.00 22.47    -0.127 N 
HETATM    8  N14   D T 302     -24.301  11.589  11.988  1.00 19.91    -0.060 NA
ENDROOT
BRANCH   4   9
HETATM    9  C7    D T 302     -20.902   6.974  11.622  1.00 36.09     0.000 A 
HETATM   10  C8    D T 302     -19.644   7.048  10.821  1.00 33.93     0.000 A 
HETATM   11  C9    D T 302     -18.754   5.924  10.665  1.00 52.13     0.007 A 
HETATM   12  C10   D T 302     -19.073   4.701  11.288  1.00 28.66     0.040 A 
HETATM   13  C11   D T 302     -20.299   4.590  12.084  1.00 35.34     0.064 A 
HETATM   14 CL1    D T 302     -18.153   3.350  11.187  1.00 15.88    -0.087 Cl
HETATM   15  C12   D T 302     -21.183   5.721  12.233  1.00 17.91    -0.020 A 
ENDBRANCH   4   9
BRANCH   5  16
HETATM   16  C15   D T 302     -23.389   7.339   9.847  1.00 42.82     0.046 C 
HETATM   17  C16   D T 302     -24.522   6.396  10.181  1.00 44.85     0.007 C 
ENDBRANCH   5  16
TORSDOF 2
ENDMDL
MODEL 2
REMARK VINA RESULT:    -6.757      4.230      6.313
REMARK INTER + INTRA:          -8.052
REMARK INTER:                  -7.621
REMARK INTRA:                  -0.431
REMARK UNBOUND:                -0.504
REMARK  2 active torsions:
REMARK  status: ('A' for Active; 'I' for Inactive)
REMARK    1  A    between atoms: C4_4  and  C7_7 
REMARK    2  A    between atoms: C5_5  and  C15_15 
ROOT
HETATM    1  N1    D T 302     -18.503   3.272  10.407  1.00 23.04    -0.194 NA
HETATM    2  C2    D T 302     -19.018   2.200  11.184  1.00 19.75     0.239 A 
HETATM    3  C3    D T 302     -18.989   4.567  10.617  1.00 20.04     0.187 A 
HETATM    4  C4    D T 302     -20.063   4.847  11.651  1.00 18.39     0.051 A 
HETATM    5  C5    D T 302     -20.519   3.604  12.420  1.00 33.99     0.065 A 
HETATM    6  N6    D T 302     -20.011   2.360  12.174  1.00 32.76    -0.219 NA
HETATM    7  N13   D T 302     -18.517   5.609   9.898  1.00 22.47    -0.127 N 
HETATM    8  N14   D T 302     -18.546   0.900  10.979  1.00 19.91    -0.060 NA
ENDROOT
BRANCH   4   9
HETATM    9  C7    D T 302     -20.600   6.182  11.914  1.00 36.09     0.000 A 
HETATM   10  C8    D T 302     -19.870   7.101  12.838  1.00 33.93     0.000 A 
HETATM   11  C9    D T 302     -20.336   8.431  13.139  1.00 52.13     0.007 A 
HETATM   12  C10   D T 302     -21.527   8.896  12.545  1.00 28.66     0.040 A 
HETATM   13  C11   D T 302     -22.270   8.023  11.632  1.00 35.34     0.064 A 
HETATM   14 CL1    D T 302     -22.166  10.380  12.806  1.00 15.88    -0.087 Cl
HETATM   15  C12   D T 302     -21.794   6.692  11.337  1.00 17.91    -0.020 A 
ENDBRANCH   4   9
BRANCH   5  16
HETATM   16  C15   D T 302     -21.571   3.728  13.496  1.00 42.82     0.046 C 
HETATM   17  C16   D T 302     -22.272   2.471  13.958  1.00 44.85     0.007 C 
ENDBRANCH   5  16
TORSDOF 2
ENDMDL
MODEL 3
REMARK VINA RESULT:    -6.725      3.583      5.767
REMARK INTER + INTRA:          -8.015
REMARK INTER:                  -7.559
REMARK INTRA:                  -0.457
REMARK UNBOUND:                -0.504
REMARK  2 active torsions:
REMARK  status: ('A' for Active; 'I' for Inactive)
REMARK    1  A    between atoms: C4_4  and  C7_7 
REMARK    2  A    between atoms: C5_5  and  C15_15 
ROOT
HETATM    1  N1    D T 302     -19.718   7.258  12.964  1.00 23.04    -0.194 NA
HETATM    2  C2    D T 302     -20.039   5.996  12.397  1.00 19.75     0.239 A 
HETATM    3  C3    D T 302     -20.644   8.304  12.877  1.00 20.04     0.187 A 
HETATM    4  C4    D T 302     -21.977   8.120  12.180  1.00 18.39     0.051 A 
HETATM    5  C5    D T 302     -22.195   6.710  11.624  1.00 33.99     0.065 A 
HETATM    6  N6    D T 302     -21.256   5.724  11.736  1.00 32.76    -0.219 NA
HETATM    7  N13   D T 302     -20.371   9.515  13.410  1.00 22.47    -0.127 N 
HETATM    8  N14   D T 302     -19.120   4.944  12.471  1.00 19.91    -0.060 NA
ENDROOT
BRANCH   4   9
HETATM    9  C7    D T 302     -22.981   9.178  12.069  1.00 36.09     0.000 A 
HETATM   10  C8    D T 302     -24.036   9.307  13.119  1.00 33.93     0.000 A 
HETATM   11  C9    D T 302     -25.052  10.328  13.077  1.00 52.13     0.007 A 
HETATM   12  C10   D T 302     -25.064  11.247  12.008  1.00 28.66     0.040 A 
HETATM   13  C11   D T 302     -24.044  11.152  10.960  1.00 35.34     0.064 A 
HETATM   14 CL1    D T 302     -26.163  12.449  11.840  1.00 15.88    -0.087 Cl
HETATM   15  C12   D T 302     -23.030  10.126  11.011  1.00 17.91    -0.020 A 
ENDBRANCH   4   9
BRANCH   5  16
HETATM   16  C15   D T 302     -23.485   6.369  10.920  1.00 42.82     0.046 C 
HETATM   17  C16   D T 302     -23.913   4.920  10.875  1.00 44.85     0.007 C 
ENDBRANCH   5  16
TORSDOF 2
ENDMDL
MODEL 4
REMARK VINA RESULT:    -6.638      2.563      3.944
REMARK INTER + INTRA:          -7.919
REMARK INTER:                  -7.366
REMARK INTRA:                  -0.553
REMARK UNBOUND:                -0.504
REMARK  2 active torsions:
REMARK  status: ('A' for Active; 'I' for Inactive)
REMARK    1  A    between atoms: C4_4  and  C7_7 
REMARK    2  A    between atoms: C5_5  and  C15_15 
ROOT
HETATM    1  N1    D T 302     -23.927   5.197  10.967  1.00 23.04    -0.194 NA
HETATM    2  C2    D T 302     -23.806   6.612  10.946  1.00 19.75     0.239 A 
HETATM    3  C3    D T 302     -22.800   4.416  11.243  1.00 20.04     0.187 A 
HETATM    4  C4    D T 302     -21.449   5.050  11.508  1.00 18.39     0.051 A 
HETATM    5  C5    D T 302     -21.464   6.580  11.463  1.00 33.99     0.065 A 
HETATM    6  N6    D T 302     -22.594   7.296  11.188  1.00 32.76    -0.219 NA
HETATM    7  N13   D T 302     -22.883   3.068  11.275  1.00 22.47    -0.127 N 
HETATM    8  N14   D T 302     -24.924   7.404  10.666  1.00 19.91    -0.060 NA
ENDROOT
BRANCH   4   9
HETATM    9  C7    D T 302     -20.242   4.279  11.807  1.00 36.09     0.000 A 
HETATM   10  C8    D T 302     -19.348   3.846  10.691  1.00 33.93     0.000 A 
HETATM   11  C9    D T 302     -18.141   3.090  10.911  1.00 52.13     0.007 A 
HETATM   12  C10   D T 302     -17.778   2.738  12.226  1.00 28.66     0.040 A 
HETATM   13  C11   D T 302     -18.629   3.146  13.347  1.00 35.34     0.064 A 
HETATM   14 CL1    D T 302     -16.439   1.879  12.612  1.00 15.88    -0.087 Cl
HETATM   15  C12   D T 302     -19.836   3.903  13.116  1.00 17.91    -0.020 A 
ENDBRANCH   4   9
BRANCH   5  16
HETATM   16  C15   D T 302     -20.195   7.354  11.726  1.00 42.82     0.046 C 
HETATM   17  C16   D T 302     -20.024   8.007  13.078  1.00 44.85     0.007 C 
ENDBRANCH   5  16
TORSDOF 2
ENDMDL
MODEL 5
REMARK VINA RESULT:    -6.391      5.051      6.990
REMARK INTER + INTRA:          -7.642
REMARK INTER:                  -7.217
REMARK INTRA:                  -0.425
REMARK UNBOUND:                -0.504
REMARK  2 active torsions:
REMARK  status: ('A' for Active; 'I' for Inactive)
REMARK    1  A    between atoms: C4_4  and  C7_7 
REMARK    2  A    between atoms: C5_5  and  C15_15 
ROOT
HETATM    1  N1    D T 302     -21.931   5.091  11.649  1.00 23.04    -0.194 NA
HETATM    2  C2    D T 302     -20.518   4.958  11.696  1.00 19.75     0.239 A 
HETATM    3  C3    D T 302     -22.730   3.942  11.638  1.00 20.04     0.187 A 
HETATM    4  C4    D T 302     -22.114   2.557  11.665  1.00 18.39     0.051 A 
HETATM    5  C5    D T 302     -20.584   2.560  11.724  1.00 33.99     0.065 A 
HETATM    6  N6    D T 302     -19.852   3.714  11.731  1.00 32.76    -0.219 NA
HETATM    7  N13   D T 302     -24.076   4.035  11.599  1.00 22.47    -0.127 N 
HETATM    8  N14   D T 302     -19.709   6.099  11.700  1.00 19.91    -0.060 NA
ENDROOT
BRANCH   4   9
HETATM    9  C7    D T 302     -22.903   1.325  11.663  1.00 36.09     0.000 A 
HETATM   10  C8    D T 302     -23.197   0.635  12.955  1.00 33.93     0.000 A 
HETATM   11  C9    D T 302     -23.972  -0.578  13.029  1.00 52.13     0.007 A 
HETATM   12  C10   D T 302     -24.478  -1.147  11.843  1.00 28.66     0.040 A 
HETATM   13  C11   D T 302     -24.211  -0.498  10.556  1.00 35.34     0.064 A 
HETATM   14 CL1    D T 302     -25.366  -2.521  11.788  1.00 15.88    -0.087 Cl
HETATM   15  C12   D T 302     -23.433   0.716  10.493  1.00 17.91    -0.020 A 
ENDBRANCH   4   9
BRANCH   5  16
HETATM   16  C15   D T 302     -19.829   1.255  11.775  1.00 42.82     0.046 C 
HETATM   17  C16   D T 302     -18.507   1.165  11.046  1.00 44.85     0.007 C 
ENDBRANCH   5  16
TORSDOF 2
ENDMDL
MODEL 6
REMARK VINA RESULT:    -6.297      2.272      3.210
REMARK INTER + INTRA:          -7.538
REMARK INTER:                  -7.089
REMARK INTRA:                  -0.448
REMARK UNBOUND:                -0.504
REMARK  2 active torsions:
REMARK  status: ('A' for Active; 'I' for Inactive)
REMARK    1  A    between atoms: C4_4  and  C7_7 
REMARK    2  A    between atoms: C5_5  and  C15_15 
ROOT
HETATM    1  N1    D T 302     -22.493   7.563  11.207  1.00 23.04    -0.194 NA
HETATM    2  C2    D T 302     -23.717   6.885  10.966  1.00 19.75     0.239 A 
HETATM    3  C3    D T 302     -21.338   6.821  11.475  1.00 20.04     0.187 A 
HETATM    4  C4    D T 302     -21.370   5.306  11.522  1.00 18.39     0.051 A 
HETATM    5  C5    D T 302     -22.749   4.706  11.234  1.00 33.99     0.065 A 
HETATM    6  N6    D T 302     -23.846   5.479  10.979  1.00 32.76    -0.219 NA
HETATM    7  N13   D T 302     -20.158   7.436  11.704  1.00 22.47    -0.127 N 
HETATM    8  N14   D T 302     -24.880   7.615  10.704  1.00 19.91    -0.060 NA
ENDROOT
BRANCH   4   9
HETATM    9  C7    D T 302     -20.190   4.483  11.790  1.00 36.09     0.000 A 
HETATM   10  C8    D T 302     -19.308   4.068  10.658  1.00 33.93     0.000 A 
HETATM   11  C9    D T 302     -18.127   3.264  10.847  1.00 52.13     0.007 A 
HETATM   12  C10   D T 302     -17.779   2.845  12.147  1.00 28.66     0.040 A 
HETATM   13  C11   D T 302     -18.620   3.233  13.283  1.00 35.34     0.064 A 
HETATM   14 CL1    D T 302     -16.470   1.926  12.499  1.00 15.88    -0.087 Cl
HETATM   15  C12   D T 302     -19.801   4.039  13.082  1.00 17.91    -0.020 A 
ENDBRANCH   4   9
BRANCH   5  16
HETATM   16  C15   D T 302     -22.933   3.209  11.227  1.00 42.82     0.046 C 
HETATM   17  C16   D T 302     -24.267   2.655  10.779  1.00 44.85     0.007 C 
ENDBRANCH   5  16
TORSDOF 2
ENDMDL
MODEL 7
REMARK VINA RESULT:    -6.165      5.231      6.761
REMARK INTER + INTRA:          -7.390
REMARK INTER:                  -6.837
REMARK INTRA:                  -0.553
REMARK UNBOUND:                -0.504
REMARK  2 active torsions:
REMARK  status: ('A' for Active; 'I' for Inactive)
REMARK    1  A    between atoms: C4_4  and  C7_7 
REMARK    2  A    between atoms: C5_5  and  C15_15 
ROOT
HETATM    1  N1    D T 302     -19.498   3.453  11.674  1.00 23.04    -0.194 NA
HETATM    2  C2    D T 302     -20.128   4.726  11.654  1.00 19.75     0.239 A 
HETATM    3  C3    D T 302     -20.286   2.297  11.711  1.00 20.04     0.187 A 
HETATM    4  C4    D T 302     -21.799   2.378  11.740  1.00 18.39     0.051 A 
HETATM    5  C5    D T 302     -22.344   3.808  11.705  1.00 33.99     0.065 A 
HETATM    6  N6    D T 302     -21.528   4.904  11.670  1.00 32.76    -0.219 NA
HETATM    7  N13   D T 302     -19.717   1.072  11.726  1.00 22.47    -0.127 N 
HETATM    8  N14   D T 302     -19.351   5.888  11.624  1.00 19.91    -0.060 NA
ENDROOT
BRANCH   4   9
HETATM    9  C7    D T 302     -22.668   1.202  11.772  1.00 36.09     0.000 A 
HETATM   10  C8    D T 302     -23.002   0.567  13.082  1.00 33.93     0.000 A 
HETATM   11  C9    D T 302     -23.855  -0.590  13.190  1.00 52.13     0.007 A 
HETATM   12  C10   D T 302     -24.403  -1.155  12.021  1.00 28.66     0.040 A 
HETATM   13  C11   D T 302     -24.098  -0.559  10.717  1.00 35.34     0.064 A 
HETATM   14 CL1    D T 302     -25.380  -2.468  12.004  1.00 15.88    -0.087 Cl
HETATM   15  C12   D T 302     -23.243   0.599  10.620  1.00 17.91    -0.020 A 
ENDBRANCH   4   9
BRANCH   5  16
HETATM   16  C15   D T 302     -23.834   4.048  11.710  1.00 42.82     0.046 C 
HETATM   17  C16   D T 302     -24.555   4.092  10.383  1.00 44.85     0.007 C 
ENDBRANCH   5  16
TORSDOF 2
ENDMDL
MODEL 8
REMARK VINA RESULT:    -6.059      1.895      2.619
REMARK INTER + INTRA:          -7.271
REMARK INTER:                  -6.909
REMARK INTRA:                  -0.362
REMARK UNBOUND:                -0.504
REMARK  2 active torsions:
REMARK  status: ('A' for Active; 'I' for Inactive)
REMARK    1  A    between atoms: C4_4  and  C7_7 
REMARK    2  A    between atoms: C5_5  and  C15_15 
ROOT
HETATM    1  N1    D T 302     -20.214   8.453  12.648  1.00 23.04    -0.194 NA
HETATM    2  C2    D T 302     -21.435   9.002  12.172  1.00 19.75     0.239 A 
HETATM    3  C3    D T 302     -20.016   7.069  12.590  1.00 20.04     0.187 A 
HETATM    4  C4    D T 302     -21.083   6.143  12.040  1.00 18.39     0.051 A 
HETATM    5  C5    D T 302     -22.341   6.869  11.555  1.00 33.99     0.065 A 
HETATM    6  N6    D T 302     -22.484   8.225  11.635  1.00 32.76    -0.219 NA
HETATM    7  N13   D T 302     -18.865   6.516  13.030  1.00 22.47    -0.127 N 
HETATM    8  N14   D T 302     -21.648  10.383  12.230  1.00 19.91    -0.060 NA
ENDROOT
BRANCH   4   9
HETATM    9  C7    D T 302     -20.923   4.692  11.952  1.00 36.09     0.000 A 
HETATM   10  C8    D T 302     -20.090   4.107  10.859  1.00 33.93     0.000 A 
HETATM   11  C9    D T 302     -19.884   2.688  10.713  1.00 52.13     0.007 A 
HETATM   12  C10   D T 302     -20.486   1.805  11.632  1.00 28.66     0.040 A 
HETATM   13  C11   D T 302     -21.310   2.343  12.719  1.00 35.34     0.064 A 
HETATM   14 CL1    D T 302     -20.336   0.176  11.577  1.00 15.88    -0.087 Cl
HETATM   15  C12   D T 302     -21.511   3.765  12.855  1.00 17.91    -0.020 A 
ENDBRANCH   4   9
BRANCH   5  16
HETATM   16  C15   D T 302     -23.485   6.081  10.964  1.00 42.82     0.046 C 
HETATM   17  C16   D T 302     -24.516   6.824  10.145  1.00 44.85     0.007 C 
ENDBRANCH   5  16
TORSDOF 2
ENDMDL
MODEL 9
REMARK VINA RESULT:    -5.947      3.907      6.269
REMARK INTER + INTRA:          -7.147
REMARK INTER:                  -6.624
REMARK INTRA:                  -0.523
REMARK UNBOUND:                -0.504
REMARK  2 active torsions:
REMARK  status: ('A' for Active; 'I' for Inactive)
REMARK    1  A    between atoms: C4_4  and  C7_7 
REMARK    2  A    between atoms: C5_5  and  C15_15 
ROOT
HETATM    1  N1    D T 302     -22.346   4.446  11.337  1.00 23.04    -0.194 NA
HETATM    2  C2    D T 302     -20.972   4.610  11.658  1.00 19.75     0.239 A 
HETATM    3  C3    D T 302     -23.167   5.575  11.238  1.00 20.04     0.187 A 
HETATM    4  C4    D T 302     -22.621   6.969  11.478  1.00 18.39     0.051 A 
HETATM    5  C5    D T 302     -21.125   6.999  11.805  1.00 33.99     0.065 A 
HETATM    6  N6    D T 302     -20.369   5.865  11.891  1.00 32.76    -0.219 NA
HETATM    7  N13   D T 302     -24.477   5.454  10.930  1.00 22.47    -0.127 N 
HETATM    8  N14   D T 302     -20.143   3.489  11.766  1.00 19.91    -0.060 NA
ENDROOT
BRANCH   4   9
HETATM    9  C7    D T 302     -23.434   8.180  11.380  1.00 36.09     0.000 A 
HETATM   10  C8    D T 302     -23.992   8.796  12.622  1.00 33.93     0.000 A 
HETATM   11  C9    D T 302     -24.796   9.992  12.603  1.00 52.13     0.007 A 
HETATM   12  C10   D T 302     -25.075  10.616  11.370  1.00 28.66     0.040 A 
HETATM   13  C11   D T 302     -24.544  10.041  10.130  1.00 35.34     0.064 A 
HETATM   14 CL1    D T 302     -25.978  11.972  11.209  1.00 15.88    -0.087 Cl
HETATM   15  C12   D T 302     -23.740   8.843  10.161  1.00 17.91    -0.020 A 
ENDBRANCH   4   9
BRANCH   5  16
HETATM   16  C15   D T 302     -20.434   8.318  12.051  1.00 42.82     0.046 C 
HETATM   17  C16   D T 302     -20.435   8.874  13.457  1.00 44.85     0.007 C 
ENDBRANCH   5  16
TORSDOF 2
ENDMDL
