MODEL 1
REMARK VINA RESULT:    -9.311      0.000      0.000
REMARK INTER + INTRA:         -15.124
REMARK INTER:                 -13.666
REMARK INTRA:                  -1.458
REMARK UNBOUND:                -1.458
REMARK  8 active torsions:
REMARK  status: ('A' for Active; 'I' for Inactive)
REMARK    1  A    between atoms: C1_1  and  C41_41 
REMARK    2  A    between atoms: C4_4  and  C11_11 
REMARK    3  A    between atoms: C5_5  and  C7_7 
REMARK    4  A    between atoms: C11_11  and  N12_12 
REMARK    5  A    between atoms: C15_15  and  N17_17 
REMARK    6  A    between atoms: C28_28  and  N32_32 
REMARK    7  A    between atoms: N32_32  and  C38_38 
REMARK    8  A    between atoms: C34_34  and  N40_40 
REMARK       I    between atoms: N40_40  and  C41_41 
ROOT
HETATM    1  N40   D T1001     -12.427   2.791  -5.239  1.00 37.15    -0.208 NA
HETATM    2  C41   D T1001     -12.892   2.608  -6.475  1.00 37.79     0.279 C 
HETATM    3  O42   D T1001     -13.393   3.541  -7.105  1.00 38.78    -0.265 OA
ENDROOT
BRANCH   1   4
HETATM    4  C34   D T1001     -12.156   3.971  -4.463  1.00 37.97     0.086 A 
HETATM    5  C33   D T1001     -13.167   4.681  -3.706  1.00 37.70     0.039 A 
HETATM    6  C38   D T1001     -12.820   5.827  -2.969  1.00 38.49     0.097 A 
HETATM    7  C37   D T1001     -11.485   6.310  -2.951  1.00 38.20    -0.004 A 
HETATM    8  C36   D T1001     -10.479   5.617  -3.695  1.00 37.87    -0.001 A 
HETATM    9  C39   D T1001     -11.014   7.541  -2.180  1.00 38.08     0.033 C 
HETATM   10  C35   D T1001     -10.823   4.446  -4.451  1.00 37.80     0.019 A 
BRANCH   6  11
HETATM   11  N32   D T1001     -13.831   6.466  -2.250  1.00 38.25    -0.060 NA
BRANCH  11  12
HETATM   12  C28   D T1001     -14.447   6.047  -1.077  1.00 38.40     0.750 A 
HETATM   13  N27   D T1001     -15.462   5.213  -1.242  1.00 38.34    -0.063 NA
HETATM   14  C26   D T1001     -16.153   4.729  -0.155  1.00 38.69     0.086 A 
HETATM   15  C24   D T1001     -17.222   3.852  -0.372  1.00 38.59     0.053 A 
HETATM   16  C31   D T1001     -15.739   5.175   1.197  1.00 38.28     0.094 A 
HETATM   17  C23   D T1001     -17.637   3.429  -1.731  1.00 37.81     0.103 A 
HETATM   18  C25   D T1001     -18.067   3.234   0.659  1.00 38.35     0.103 A 
HETATM   19  N22   D T1001     -18.669   2.578  -1.970  1.00 38.06    -0.223 NA
HETATM   20  C21   D T1001     -19.336   2.104  -0.908  1.00 38.54     0.199 A 
HETATM   21  N20   D T1001     -19.085   2.388   0.383  1.00 38.22    -0.223 NA
HETATM   22  C30   D T1001     -14.640   6.074   1.239  1.00 38.37     0.098 A 
HETATM   23  N29   D T1001     -14.014   6.502   0.090  1.00 38.67    -0.062 NA
ENDBRANCH  11  12
ENDBRANCH   6  11
ENDBRANCH   1   4
BRANCH   2  24
HETATM   24  C1    D T1001     -12.839   1.259  -7.119  1.00 38.65     0.058 A 
HETATM   25  C2    D T1001     -12.001   0.901  -8.221  1.00 37.93     0.004 A 
HETATM   26  C3    D T1001     -12.027  -0.408  -8.747  1.00 37.95    -0.002 A 
HETATM   27  C4    D T1001     -12.898  -1.433  -8.181  1.00 38.26     0.015 A 
HETATM   28  C5    D T1001     -13.768  -1.070  -7.037  1.00 37.89     0.070 A 
HETATM   29  C6    D T1001     -13.701   0.262  -6.558  1.00 37.86     0.008 A 
BRANCH  27  30
HETATM   30  C11   D T1001     -12.824  -2.840  -8.852  1.00 37.72     0.277 C 
BRANCH  30  31
HETATM   31  N12   D T1001     -13.695  -3.141 -10.020  1.00 39.41     0.143 N 
HETATM   32  C13   D T1001     -13.001  -3.562 -11.252  1.00 38.92     0.253 C 
HETATM   33  C14   D T1001     -13.566  -2.658 -12.353  1.00 38.65     0.071 C 
HETATM   34  C15   D T1001     -14.983  -2.384 -11.792  1.00 38.81     0.255 C 
HETATM   35  C16   D T1001     -14.608  -2.022 -10.378  1.00 38.57     0.284 C 
BRANCH  34  36
HETATM   36  N17   D T1001     -15.810  -1.319 -12.517  1.00 39.14     0.141 N 
HETATM   37  C18   D T1001     -16.555  -1.771 -13.711  1.00 39.06     0.285 C 
HETATM   38  C19   D T1001     -16.727  -0.631 -11.538  1.00 38.52     0.285 C 
ENDBRANCH  34  36
ENDBRANCH  30  31
ENDBRANCH  27  30
BRANCH  28  39
HETATM   39  C7    D T1001     -14.760  -2.045  -6.304  1.00 38.38     0.418 C 
HETATM   40  F8    D T1001     -15.558  -2.651  -7.226  1.00 39.18    -0.166 F 
HETATM   41  F9    D T1001     -15.540  -1.368  -5.425  1.00 37.72    -0.166 F 
HETATM   42  F10   D T1001     -14.115  -3.067  -5.656  1.00 39.32    -0.166 F 
ENDBRANCH  28  39
ENDBRANCH   2  24
TORSDOF 8
ENDMDL
MODEL 2
REMARK VINA RESULT:    -9.239      3.684     10.338
REMARK INTER + INTRA:         -15.018
REMARK INTER:                 -14.089
REMARK INTRA:                  -0.929
REMARK UNBOUND:                -1.458
REMARK  8 active torsions:
REMARK  status: ('A' for Active; 'I' for Inactive)
REMARK    1  A    between atoms: C1_1  and  C41_41 
REMARK    2  A    between atoms: C4_4  and  C11_11 
REMARK    3  A    between atoms: C5_5  and  C7_7 
REMARK    4  A    between atoms: C11_11  and  N12_12 
REMARK    5  A    between atoms: C15_15  and  N17_17 
REMARK    6  A    between atoms: C28_28  and  N32_32 
REMARK    7  A    between atoms: N32_32  and  C38_38 
REMARK    8  A    between atoms: C34_34  and  N40_40 
REMARK       I    between atoms: N40_40  and  C41_41 
ROOT
HETATM    1  N40   D T1001     -14.838   2.070  -5.214  1.00 37.15    -0.208 NA
HETATM    2  C41   D T1001     -14.549   2.173  -3.917  1.00 37.79     0.279 C 
HETATM    3  O42   D T1001     -13.768   1.385  -3.381  1.00 38.78    -0.265 OA
ENDROOT
BRANCH   1   4
HETATM    4  C34   D T1001     -14.250   1.317  -6.289  1.00 37.97     0.086 A 
HETATM    5  C33   D T1001     -12.879   1.485  -6.727  1.00 37.70     0.039 A 
HETATM    6  C38   D T1001     -12.378   0.707  -7.786  1.00 38.49     0.097 A 
HETATM    7  C37   D T1001     -13.196  -0.251  -8.442  1.00 38.20    -0.004 A 
HETATM    8  C36   D T1001     -14.550  -0.425  -8.017  1.00 37.87    -0.001 A 
HETATM    9  C39   D T1001     -12.739  -1.142  -9.595  1.00 38.08     0.033 C 
HETATM   10  C35   D T1001     -15.071   0.365  -6.937  1.00 37.80     0.019 A 
BRANCH   6  11
HETATM   11  N32   D T1001     -11.048   0.902  -8.161  1.00 38.25    -0.060 NA
BRANCH  11  12
HETATM   12  C28   D T1001     -10.027   1.492  -7.426  1.00 38.40     0.750 A 
HETATM   13  N27   D T1001     -10.411   2.453  -6.601  1.00 38.34    -0.063 NA
HETATM   14  C26   D T1001      -9.490   3.114  -5.821  1.00 38.69     0.086 A 
HETATM   15  C24   D T1001      -9.935   4.126  -4.963  1.00 38.59     0.053 A 
HETATM   16  C31   D T1001      -8.062   2.730  -5.939  1.00 38.28     0.094 A 
HETATM   17  C23   D T1001     -11.364   4.513  -4.868  1.00 37.81     0.103 A 
HETATM   18  C25   D T1001      -9.105   4.932  -4.058  1.00 38.35     0.103 A 
HETATM   19  N22   D T1001     -11.824   5.490  -4.043  1.00 38.06    -0.223 NA
HETATM   20  C21   D T1001     -10.925   6.127  -3.281  1.00 38.54     0.199 A 
HETATM   21  N20   D T1001      -9.600   5.895  -3.249  1.00 38.22    -0.223 NA
HETATM   22  C30   D T1001      -7.780   1.689  -6.864  1.00 38.37     0.098 A 
HETATM   23  N29   D T1001      -8.776   1.089  -7.601  1.00 38.67    -0.062 NA
ENDBRANCH  11  12
ENDBRANCH   6  11
ENDBRANCH   1   4
BRANCH   2  24
HETATM   24  C1    D T1001     -15.183   3.233  -3.075  1.00 38.65     0.058 A 
HETATM   25  C2    D T1001     -16.586   3.509  -3.011  1.00 37.93     0.004 A 
HETATM   26  C3    D T1001     -17.079   4.532  -2.173  1.00 37.95    -0.002 A 
HETATM   27  C4    D T1001     -16.181   5.329  -1.344  1.00 38.26     0.015 A 
HETATM   28  C5    D T1001     -14.727   5.048  -1.403  1.00 37.89     0.070 A 
HETATM   29  C6    D T1001     -14.293   4.013  -2.269  1.00 37.86     0.008 A 
BRANCH  27  30
HETATM   30  C11   D T1001     -16.857   6.422  -0.459  1.00 37.72     0.277 C 
BRANCH  30  31
HETATM   31  N12   D T1001     -17.635   6.013   0.741  1.00 39.41     0.143 N 
HETATM   32  C13   D T1001     -16.854   5.427   1.848  1.00 38.92     0.253 C 
HETATM   33  C14   D T1001     -17.575   4.118   2.190  1.00 38.65     0.071 C 
HETATM   34  C15   D T1001     -19.026   4.483   1.789  1.00 38.81     0.255 C 
HETATM   35  C16   D T1001     -18.749   5.077   0.431  1.00 38.57     0.284 C 
BRANCH  34  36
HETATM   36  N17   D T1001     -20.040   3.336   1.779  1.00 39.14     0.141 N 
HETATM   37  C18   D T1001     -19.791   2.252   0.805  1.00 39.06     0.285 C 
HETATM   38  C19   D T1001     -20.198   2.781   3.172  1.00 38.52     0.285 C 
ENDBRANCH  34  36
ENDBRANCH  30  31
ENDBRANCH  27  30
BRANCH  28  39
HETATM   39  C7    D T1001     -13.621   5.802  -0.579  1.00 38.38     0.418 C 
HETATM   40  F8    D T1001     -13.380   7.013  -1.153  1.00 39.18    -0.166 F 
HETATM   41  F9    D T1001     -12.466   5.089  -0.555  1.00 37.72    -0.166 F 
HETATM   42  F10   D T1001     -14.016   6.082   0.705  1.00 39.32    -0.166 F 
ENDBRANCH  28  39
ENDBRANCH   2  24
TORSDOF 8
ENDMDL
MODEL 3
REMARK VINA RESULT:    -9.149      2.605      3.553
REMARK INTER + INTRA:         -14.886
REMARK INTER:                 -13.946
REMARK INTRA:                  -0.940
REMARK UNBOUND:                -1.458
REMARK  8 active torsions:
REMARK  status: ('A' for Active; 'I' for Inactive)
REMARK    1  A    between atoms: C1_1  and  C41_41 
REMARK    2  A    between atoms: C4_4  and  C11_11 
REMARK    3  A    between atoms: C5_5  and  C7_7 
REMARK    4  A    between atoms: C11_11  and  N12_12 
REMARK    5  A    between atoms: C15_15  and  N17_17 
REMARK    6  A    between atoms: C28_28  and  N32_32 
REMARK    7  A    between atoms: N32_32  and  C38_38 
REMARK    8  A    between atoms: C34_34  and  N40_40 
REMARK       I    between atoms: N40_40  and  C41_41 
ROOT
HETATM    1  N40   D T1001     -12.791   4.802  -3.871  1.00 37.15    -0.208 NA
HETATM    2  C41   D T1001     -13.595   4.403  -4.857  1.00 37.79     0.279 C 
HETATM    3  O42   D T1001     -14.690   4.941  -5.034  1.00 38.78    -0.265 OA
ENDROOT
BRANCH   1   4
HETATM    4  C34   D T1001     -12.802   5.952  -3.007  1.00 37.97     0.086 A 
HETATM    5  C33   D T1001     -13.504   5.994  -1.740  1.00 37.70     0.039 A 
HETATM    6  C38   D T1001     -13.462   7.158  -0.951  1.00 38.49     0.097 A 
HETATM    7  C37   D T1001     -12.740   8.305  -1.375  1.00 38.20    -0.004 A 
HETATM    8  C36   D T1001     -12.044   8.273  -2.623  1.00 37.87    -0.001 A 
HETATM    9  C39   D T1001     -12.635   9.608  -0.586  1.00 38.08     0.033 C 
HETATM   10  C35   D T1001     -12.080   7.090  -3.436  1.00 37.80     0.019 A 
BRANCH   6  11
HETATM   11  N32   D T1001     -14.148   7.141   0.265  1.00 38.25    -0.060 NA
BRANCH  11  12
HETATM   12  C28   D T1001     -15.441   6.698   0.515  1.00 38.40     0.750 A 
HETATM   13  N27   D T1001     -15.948   5.894  -0.407  1.00 38.34    -0.063 NA
HETATM   14  C26   D T1001     -17.221   5.392  -0.272  1.00 38.69     0.086 A 
HETATM   15  C24   D T1001     -17.723   4.547  -1.270  1.00 38.59     0.053 A 
HETATM   16  C31   D T1001     -18.010   5.783   0.922  1.00 38.28     0.094 A 
HETATM   17  C23   D T1001     -16.930   4.179  -2.467  1.00 37.81     0.103 A 
HETATM   18  C25   D T1001     -19.049   3.916  -1.295  1.00 38.35     0.103 A 
HETATM   19  N22   D T1001     -17.390   3.361  -3.450  1.00 38.06    -0.223 NA
HETATM   20  C21   D T1001     -18.629   2.868  -3.311  1.00 38.54     0.199 A 
HETATM   21  N20   D T1001     -19.471   3.104  -2.289  1.00 38.22    -0.223 NA
HETATM   22  C30   D T1001     -17.355   6.654   1.833  1.00 38.37     0.098 A 
HETATM   23  N29   D T1001     -16.074   7.105   1.606  1.00 38.67    -0.062 NA
ENDBRANCH  11  12
ENDBRANCH   6  11
ENDBRANCH   1   4
BRANCH   2  24
HETATM   24  C1    D T1001     -13.200   3.277  -5.757  1.00 38.65     0.058 A 
HETATM   25  C2    D T1001     -14.082   2.266  -6.253  1.00 37.93     0.004 A 
HETATM   26  C3    D T1001     -13.601   1.249  -7.106  1.00 37.95    -0.002 A 
HETATM   27  C4    D T1001     -12.201   1.203  -7.513  1.00 38.26     0.015 A 
HETATM   28  C5    D T1001     -11.281   2.248  -7.004  1.00 37.89     0.070 A 
HETATM   29  C6    D T1001     -11.822   3.238  -6.146  1.00 37.86     0.008 A 
BRANCH  27  30
HETATM   30  C11   D T1001     -11.804   0.031  -8.463  1.00 37.72     0.277 C 
BRANCH  30  31
HETATM   31  N12   D T1001     -12.853  -0.904  -8.950  1.00 39.41     0.143 N 
HETATM   32  C13   D T1001     -13.198  -2.016  -8.042  1.00 38.92     0.253 C 
HETATM   33  C14   D T1001     -13.107  -3.277  -8.910  1.00 38.65     0.071 C 
HETATM   34  C15   D T1001     -13.462  -2.689 -10.298  1.00 38.81     0.255 C 
HETATM   35  C16   D T1001     -12.549  -1.490 -10.283  1.00 38.57     0.284 C 
BRANCH  34  36
HETATM   36  N17   D T1001     -13.266  -3.615 -11.501  1.00 39.14     0.141 N 
HETATM   37  C18   D T1001     -14.494  -4.033 -12.210  1.00 39.06     0.285 C 
HETATM   38  C19   D T1001     -12.273  -3.006 -12.458  1.00 38.52     0.285 C 
ENDBRANCH  34  36
ENDBRANCH  30  31
ENDBRANCH  27  30
BRANCH  28  39
HETATM   39  C7    D T1001      -9.749   2.354  -7.342  1.00 38.38     0.418 C 
HETATM   40  F8    D T1001      -9.594   2.495  -8.687  1.00 39.18    -0.166 F 
HETATM   41  F9    D T1001      -9.088   1.240  -6.937  1.00 37.72    -0.166 F 
HETATM   42  F10   D T1001      -9.162   3.464  -6.791  1.00 39.32    -0.166 F 
ENDBRANCH  28  39
ENDBRANCH   2  24
TORSDOF 8
ENDMDL
MODEL 4
REMARK VINA RESULT:    -9.001      1.327      2.088
REMARK INTER + INTRA:         -14.669
REMARK INTER:                 -13.308
REMARK INTRA:                  -1.361
REMARK UNBOUND:                -1.458
REMARK  8 active torsions:
REMARK  status: ('A' for Active; 'I' for Inactive)
REMARK    1  A    between atoms: C1_1  and  C41_41 
REMARK    2  A    between atoms: C4_4  and  C11_11 
REMARK    3  A    between atoms: C5_5  and  C7_7 
REMARK    4  A    between atoms: C11_11  and  N12_12 
REMARK    5  A    between atoms: C15_15  and  N17_17 
REMARK    6  A    between atoms: C28_28  and  N32_32 
REMARK    7  A    between atoms: N32_32  and  C38_38 
REMARK    8  A    between atoms: C34_34  and  N40_40 
REMARK       I    between atoms: N40_40  and  C41_41 
ROOT
HETATM    1  N40   D T1001     -12.382   2.599  -5.577  1.00 37.15    -0.208 NA
HETATM    2  C41   D T1001     -13.067   1.479  -5.345  1.00 37.79     0.279 C 
HETATM    3  O42   D T1001     -13.463   1.206  -4.211  1.00 38.78    -0.265 OA
ENDROOT
BRANCH   1   4
HETATM    4  C34   D T1001     -12.145   3.779  -4.790  1.00 37.97     0.086 A 
HETATM    5  C33   D T1001     -13.188   4.488  -4.076  1.00 37.70     0.039 A 
HETATM    6  C38   D T1001     -12.873   5.635  -3.326  1.00 38.49     0.097 A 
HETATM    7  C37   D T1001     -11.540   6.119  -3.253  1.00 38.20    -0.004 A 
HETATM    8  C36   D T1001     -10.504   5.427  -3.954  1.00 37.87    -0.001 A 
HETATM    9  C39   D T1001     -11.104   7.351  -2.462  1.00 38.08     0.033 C 
HETATM   10  C35   D T1001     -10.815   4.256  -4.723  1.00 37.80     0.019 A 
BRANCH   6  11
HETATM   11  N32   D T1001     -13.914   6.273  -2.650  1.00 38.25    -0.060 NA
BRANCH  11  12
HETATM   12  C28   D T1001     -14.469   5.941  -1.420  1.00 38.40     0.750 A 
HETATM   13  N27   D T1001     -15.495   5.105  -1.473  1.00 38.34    -0.063 NA
HETATM   14  C26   D T1001     -16.130   4.703  -0.320  1.00 38.69     0.086 A 
HETATM   15  C24   D T1001     -17.212   3.821  -0.418  1.00 38.59     0.053 A 
HETATM   16  C31   D T1001     -15.644   5.240   0.975  1.00 38.28     0.094 A 
HETATM   17  C23   D T1001     -17.698   3.306  -1.721  1.00 37.81     0.103 A 
HETATM   18  C25   D T1001     -18.004   3.283   0.696  1.00 38.35     0.103 A 
HETATM   19  N22   D T1001     -18.745   2.448  -1.846  1.00 38.06    -0.223 NA
HETATM   20  C21   D T1001     -19.356   2.055  -0.719  1.00 38.54     0.199 A 
HETATM   21  N20   D T1001     -19.037   2.427   0.533  1.00 38.22    -0.223 NA
HETATM   22  C30   D T1001     -14.541   6.132   0.896  1.00 38.37     0.098 A 
HETATM   23  N29   D T1001     -13.974   6.474  -0.312  1.00 38.67    -0.062 NA
ENDBRANCH  11  12
ENDBRANCH   6  11
ENDBRANCH   1   4
BRANCH   2  24
HETATM   24  C1    D T1001     -13.349   0.513  -6.451  1.00 38.65     0.058 A 
HETATM   25  C2    D T1001     -12.835   0.608  -7.783  1.00 37.93     0.004 A 
HETATM   26  C3    D T1001     -13.161  -0.367  -8.749  1.00 37.95    -0.002 A 
HETATM   27  C4    D T1001     -14.022  -1.499  -8.421  1.00 38.26     0.015 A 
HETATM   28  C5    D T1001     -14.558  -1.604  -7.043  1.00 37.89     0.070 A 
HETATM   29  C6    D T1001     -14.199  -0.591  -6.120  1.00 37.86     0.008 A 
BRANCH  27  30
HETATM   30  C11   D T1001     -14.297  -2.507  -9.580  1.00 37.72     0.277 C 
BRANCH  30  31
HETATM   31  N12   D T1001     -13.868  -2.166 -10.963  1.00 39.41     0.143 N 
HETATM   32  C13   D T1001     -14.892  -2.325 -12.014  1.00 38.92     0.253 C 
HETATM   33  C14   D T1001     -14.215  -3.168 -13.101  1.00 38.65     0.071 C 
HETATM   34  C15   D T1001     -12.737  -2.753 -12.900  1.00 38.81     0.255 C 
HETATM   35  C16   D T1001     -12.654  -2.906 -11.402  1.00 38.57     0.284 C 
BRANCH  34  36
HETATM   36  N17   D T1001     -11.690  -3.558 -13.674  1.00 39.14     0.141 N 
HETATM   37  C18   D T1001     -10.288  -3.113 -13.533  1.00 39.06     0.285 C 
HETATM   38  C19   D T1001     -11.826  -5.023 -13.343  1.00 38.52     0.285 C 
ENDBRANCH  34  36
ENDBRANCH  30  31
ENDBRANCH  27  30
BRANCH  28  39
HETATM   39  C7    D T1001     -15.491  -2.754  -6.517  1.00 38.38     0.418 C 
HETATM   40  F8    D T1001     -15.745  -2.557  -5.194  1.00 39.18    -0.166 F 
HETATM   41  F9    D T1001     -14.901  -3.966  -6.675  1.00 37.72    -0.166 F 
HETATM   42  F10   D T1001     -16.721  -2.758  -7.125  1.00 39.32    -0.166 F 
ENDBRANCH  28  39
ENDBRANCH   2  24
TORSDOF 8
ENDMDL
MODEL 5
REMARK VINA RESULT:    -8.948      1.550      2.230
REMARK INTER + INTRA:         -14.591
REMARK INTER:                 -13.302
REMARK INTRA:                  -1.289
REMARK UNBOUND:                -1.458
REMARK  8 active torsions:
REMARK  status: ('A' for Active; 'I' for Inactive)
REMARK    1  A    between atoms: C1_1  and  C41_41 
REMARK    2  A    between atoms: C4_4  and  C11_11 
REMARK    3  A    between atoms: C5_5  and  C7_7 
REMARK    4  A    between atoms: C11_11  and  N12_12 
REMARK    5  A    between atoms: C15_15  and  N17_17 
REMARK    6  A    between atoms: C28_28  and  N32_32 
REMARK    7  A    between atoms: N32_32  and  C38_38 
REMARK    8  A    between atoms: C34_34  and  N40_40 
REMARK       I    between atoms: N40_40  and  C41_41 
ROOT
HETATM    1  N40   D T1001     -12.584   4.405  -4.611  1.00 37.15    -0.208 NA
HETATM    2  C41   D T1001     -11.573   3.836  -5.267  1.00 37.79     0.279 C 
HETATM    3  O42   D T1001     -10.439   4.314  -5.216  1.00 38.78    -0.265 OA
ENDROOT
BRANCH   1   4
HETATM    4  C34   D T1001     -12.639   5.422  -3.595  1.00 37.97     0.086 A 
HETATM    5  C33   D T1001     -12.953   5.151  -2.207  1.00 37.70     0.039 A 
HETATM    6  C38   D T1001     -12.985   6.203  -1.274  1.00 38.49     0.097 A 
HETATM    7  C37   D T1001     -12.711   7.540  -1.667  1.00 38.20    -0.004 A 
HETATM    8  C36   D T1001     -12.400   7.818  -3.035  1.00 37.87    -0.001 A 
HETATM    9  C39   D T1001     -12.718   8.743  -0.727  1.00 38.08     0.033 C 
HETATM   10  C35   D T1001     -12.366   6.751  -3.995  1.00 37.80     0.019 A 
BRANCH   6  11
HETATM   11  N32   D T1001     -13.284   5.884   0.052  1.00 38.25    -0.060 NA
BRANCH  11  12
HETATM   12  C28   D T1001     -14.501   6.005   0.710  1.00 38.40     0.750 A 
HETATM   13  N27   D T1001     -15.378   5.048   0.451  1.00 38.34    -0.063 NA
HETATM   14  C26   D T1001     -16.621   5.060   1.042  1.00 38.69     0.086 A 
HETATM   15  C24   D T1001     -17.521   4.031   0.740  1.00 38.59     0.053 A 
HETATM   16  C31   D T1001     -16.953   6.176   1.961  1.00 38.28     0.094 A 
HETATM   17  C23   D T1001     -17.182   2.931  -0.195  1.00 37.81     0.103 A 
HETATM   18  C25   D T1001     -18.880   3.876   1.274  1.00 38.35     0.103 A 
HETATM   19  N22   D T1001     -18.035   1.919  -0.504  1.00 38.06    -0.223 NA
HETATM   20  C21   D T1001     -19.243   1.932   0.078  1.00 38.54     0.199 A 
HETATM   21  N20   D T1001     -19.700   2.853   0.945  1.00 38.22    -0.223 NA
HETATM   22  C30   D T1001     -15.929   7.142   2.150  1.00 38.37     0.098 A 
HETATM   23  N29   D T1001     -14.714   7.041   1.510  1.00 38.67    -0.062 NA
ENDBRANCH  11  12
ENDBRANCH   6  11
ENDBRANCH   1   4
BRANCH   2  24
HETATM   24  C1    D T1001     -11.796   2.616  -6.103  1.00 38.65     0.058 A 
HETATM   25  C2    D T1001     -10.986   2.215  -7.212  1.00 37.93     0.004 A 
HETATM   26  C3    D T1001     -11.284   1.036  -7.929  1.00 37.95    -0.002 A 
HETATM   27  C4    D T1001     -12.416   0.192  -7.560  1.00 38.26     0.015 A 
HETATM   28  C5    D T1001     -13.258   0.601  -6.411  1.00 37.89     0.070 A 
HETATM   29  C6    D T1001     -12.912   1.797  -5.735  1.00 37.86     0.008 A 
BRANCH  27  30
HETATM   30  C11   D T1001     -12.629  -1.085  -8.431  1.00 37.72     0.277 C 
BRANCH  30  31
HETATM   31  N12   D T1001     -13.347  -0.973  -9.729  1.00 39.41     0.143 N 
HETATM   32  C13   D T1001     -14.802  -0.743  -9.644  1.00 38.92     0.253 C 
HETATM   33  C14   D T1001     -15.425  -1.810 -10.552  1.00 38.65     0.071 C 
HETATM   34  C15   D T1001     -14.285  -2.003 -11.582  1.00 38.81     0.255 C 
HETATM   35  C16   D T1001     -13.128  -2.140 -10.625  1.00 38.57     0.284 C 
BRANCH  34  36
HETATM   36  N17   D T1001     -14.438  -3.173 -12.558  1.00 39.14     0.141 N 
HETATM   37  C18   D T1001     -15.791  -3.388 -13.112  1.00 39.06     0.285 C 
HETATM   38  C19   D T1001     -13.416  -3.056 -13.660  1.00 38.52     0.285 C 
ENDBRANCH  34  36
ENDBRANCH  30  31
ENDBRANCH  27  30
BRANCH  28  39
HETATM   39  C7    D T1001     -14.508  -0.188  -5.874  1.00 38.38     0.418 C 
HETATM   40  F8    D T1001     -14.891   0.338  -4.678  1.00 39.18    -0.166 F 
HETATM   41  F9    D T1001     -14.213  -1.501  -5.703  1.00 37.72    -0.166 F 
HETATM   42  F10   D T1001     -15.603  -0.064  -6.692  1.00 39.32    -0.166 F 
ENDBRANCH  28  39
ENDBRANCH   2  24
TORSDOF 8
ENDMDL
MODEL 6
REMARK VINA RESULT:    -8.925      2.963      4.606
REMARK INTER + INTRA:         -14.557
REMARK INTER:                 -13.547
REMARK INTRA:                  -1.010
REMARK UNBOUND:                -1.458
REMARK  8 active torsions:
REMARK  status: ('A' for Active; 'I' for Inactive)
REMARK    1  A    between atoms: C1_1  and  C41_41 
REMARK    2  A    between atoms: C4_4  and  C11_11 
REMARK    3  A    between atoms: C5_5  and  C7_7 
REMARK    4  A    between atoms: C11_11  and  N12_12 
REMARK    5  A    between atoms: C15_15  and  N17_17 
REMARK    6  A    between atoms: C28_28  and  N32_32 
REMARK    7  A    between atoms: N32_32  and  C38_38 
REMARK    8  A    between atoms: C34_34  and  N40_40 
REMARK       I    between atoms: N40_40  and  C41_41 
ROOT
HETATM    1  N40   D T1001     -11.979   1.147  -7.876  1.00 37.15    -0.208 NA
HETATM    2  C41   D T1001     -12.824   0.129  -7.716  1.00 37.79     0.279 C 
HETATM    3  O42   D T1001     -13.154  -0.245  -6.590  1.00 38.78    -0.265 OA
ENDROOT
BRANCH   1   4
HETATM    4  C34   D T1001     -11.468   2.143  -6.972  1.00 37.97     0.086 A 
HETATM    5  C33   D T1001     -12.304   2.912  -6.072  1.00 37.70     0.039 A 
HETATM    6  C38   D T1001     -11.725   3.867  -5.217  1.00 38.49     0.097 A 
HETATM    7  C37   D T1001     -10.324   4.096  -5.217  1.00 38.20    -0.004 A 
HETATM    8  C36   D T1001      -9.491   3.343  -6.101  1.00 37.87    -0.001 A 
HETATM    9  C39   D T1001      -9.608   5.107  -4.323  1.00 38.08     0.033 C 
HETATM   10  C35   D T1001     -10.071   2.366  -6.978  1.00 37.80     0.019 A 
BRANCH   6  11
HETATM   11  N32   D T1001     -12.576   4.572  -4.364  1.00 38.25    -0.060 NA
BRANCH  11  12
HETATM   12  C28   D T1001     -13.334   4.079  -3.309  1.00 38.40     0.750 A 
HETATM   13  N27   D T1001     -13.599   4.954  -2.350  1.00 38.34    -0.063 NA
HETATM   14  C26   D T1001     -14.340   4.583  -1.252  1.00 38.69     0.086 A 
HETATM   15  C24   D T1001     -14.596   5.536  -0.259  1.00 38.59     0.053 A 
HETATM   16  C31   D T1001     -14.819   3.182  -1.166  1.00 38.28     0.094 A 
HETATM   17  C23   D T1001     -14.095   6.929  -0.349  1.00 37.81     0.103 A 
HETATM   18  C25   D T1001     -15.367   5.327   0.974  1.00 38.35     0.103 A 
HETATM   19  N22   D T1001     -14.330   7.874   0.598  1.00 38.06    -0.223 NA
HETATM   20  C21   D T1001     -15.057   7.511   1.664  1.00 38.54     0.199 A 
HETATM   21  N20   D T1001     -15.583   6.294   1.893  1.00 38.22    -0.223 NA
HETATM   22  C30   D T1001     -14.463   2.342  -2.254  1.00 38.37     0.098 A 
HETATM   23  N29   D T1001     -13.715   2.809  -3.312  1.00 38.67    -0.062 NA
ENDBRANCH  11  12
ENDBRANCH   6  11
ENDBRANCH   1   4
BRANCH   2  24
HETATM   24  C1    D T1001     -13.372  -0.602  -8.900  1.00 38.65     0.058 A 
HETATM   25  C2    D T1001     -14.761  -0.765  -9.200  1.00 37.93     0.004 A 
HETATM   26  C3    D T1001     -15.168  -1.470 -10.353  1.00 37.95    -0.002 A 
HETATM   27  C4    D T1001     -14.191  -2.043 -11.273  1.00 38.26     0.015 A 
HETATM   28  C5    D T1001     -12.750  -1.876 -10.970  1.00 37.89     0.070 A 
HETATM   29  C6    D T1001     -12.405  -1.164  -9.794  1.00 37.86     0.008 A 
BRANCH  27  30
HETATM   30  C11   D T1001     -14.776  -2.790 -12.512  1.00 37.72     0.277 C 
BRANCH  30  31
HETATM   31  N12   D T1001     -15.273  -4.184 -12.359  1.00 39.41     0.143 N 
HETATM   32  C13   D T1001     -16.713  -4.387 -12.608  1.00 38.92     0.253 C 
HETATM   33  C14   D T1001     -17.222  -5.151 -11.381  1.00 38.65     0.071 C 
HETATM   34  C15   D T1001     -15.941  -5.921 -10.977  1.00 38.81     0.255 C 
HETATM   35  C16   D T1001     -14.957  -4.779 -11.033  1.00 38.57     0.284 C 
BRANCH  34  36
HETATM   36  N17   D T1001     -15.979  -6.653  -9.633  1.00 39.14     0.141 N 
HETATM   37  C18   D T1001     -16.574  -8.006  -9.643  1.00 39.06     0.285 C 
HETATM   38  C19   D T1001     -14.600  -6.675  -9.023  1.00 38.52     0.285 C 
ENDBRANCH  34  36
ENDBRANCH  30  31
ENDBRANCH  27  30
BRANCH  28  39
HETATM   39  C7    D T1001     -11.567  -2.421 -11.850  1.00 38.38     0.418 C 
HETATM   40  F8    D T1001     -10.391  -2.230 -11.190  1.00 39.18    -0.166 F 
HETATM   41  F9    D T1001     -11.513  -1.775 -13.041  1.00 37.72    -0.166 F 
HETATM   42  F10   D T1001     -11.646  -3.774 -12.063  1.00 39.32    -0.166 F 
ENDBRANCH  28  39
ENDBRANCH   2  24
TORSDOF 8
ENDMDL
MODEL 7
REMARK VINA RESULT:    -8.861      3.574     10.214
REMARK INTER + INTRA:         -14.463
REMARK INTER:                 -13.563
REMARK INTRA:                  -0.900
REMARK UNBOUND:                -1.458
REMARK  8 active torsions:
REMARK  status: ('A' for Active; 'I' for Inactive)
REMARK    1  A    between atoms: C1_1  and  C41_41 
REMARK    2  A    between atoms: C4_4  and  C11_11 
REMARK    3  A    between atoms: C5_5  and  C7_7 
REMARK    4  A    between atoms: C11_11  and  N12_12 
REMARK    5  A    between atoms: C15_15  and  N17_17 
REMARK    6  A    between atoms: C28_28  and  N32_32 
REMARK    7  A    between atoms: N32_32  and  C38_38 
REMARK    8  A    between atoms: C34_34  and  N40_40 
REMARK       I    between atoms: N40_40  and  C41_41 
ROOT
HETATM    1  N40   D T1001     -16.529   2.408  -4.965  1.00 37.15    -0.208 NA
HETATM    2  C41   D T1001     -17.836   2.268  -4.747  1.00 37.79     0.279 C 
HETATM    3  O42   D T1001     -18.513   1.510  -5.443  1.00 38.78    -0.265 OA
ENDROOT
BRANCH   1   4
HETATM    4  C34   D T1001     -15.586   1.665  -5.758  1.00 37.97     0.086 A 
HETATM    5  C33   D T1001     -14.360   2.232  -6.283  1.00 37.70     0.039 A 
HETATM    6  C38   D T1001     -13.489   1.437  -7.049  1.00 38.49     0.097 A 
HETATM    7  C37   D T1001     -13.787   0.076  -7.322  1.00 38.20    -0.004 A 
HETATM    8  C36   D T1001     -14.994  -0.493  -6.808  1.00 37.87    -0.001 A 
HETATM    9  C39   D T1001     -12.902  -0.863  -8.138  1.00 38.08     0.033 C 
HETATM   10  C35   D T1001     -15.891   0.310  -6.025  1.00 37.80     0.019 A 
BRANCH   6  11
HETATM   11  N32   D T1001     -12.317   2.031  -7.522  1.00 38.25    -0.060 NA
BRANCH  11  12
HETATM   12  C28   D T1001     -11.286   2.600  -6.786  1.00 38.40     0.750 A 
HETATM   13  N27   D T1001     -11.670   3.437  -5.834  1.00 38.34    -0.063 NA
HETATM   14  C26   D T1001     -10.739   4.065  -5.039  1.00 38.69     0.086 A 
HETATM   15  C24   D T1001     -11.185   4.944  -4.045  1.00 38.59     0.053 A 
HETATM   16  C31   D T1001      -9.302   3.790  -5.285  1.00 38.28     0.094 A 
HETATM   17  C23   D T1001     -12.623   5.224  -3.822  1.00 37.81     0.103 A 
HETATM   18  C25   D T1001     -10.344   5.697  -3.104  1.00 38.35     0.103 A 
HETATM   19  N22   D T1001     -13.084   6.071  -2.864  1.00 38.06    -0.223 NA
HETATM   20  C21   D T1001     -12.174   6.676  -2.088  1.00 38.54     0.199 A 
HETATM   21  N20   D T1001     -10.839   6.529  -2.161  1.00 38.22    -0.223 NA
HETATM   22  C30   D T1001      -9.022   2.879  -6.338  1.00 38.37     0.098 A 
HETATM   23  N29   D T1001     -10.028   2.302  -7.080  1.00 38.67    -0.062 NA
ENDBRANCH  11  12
ENDBRANCH   6  11
ENDBRANCH   1   4
BRANCH   2  24
HETATM   24  C1    D T1001     -18.519   3.048  -3.669  1.00 38.65     0.058 A 
HETATM   25  C2    D T1001     -19.142   4.324  -3.841  1.00 37.93     0.004 A 
HETATM   26  C3    D T1001     -19.766   4.970  -2.752  1.00 37.95    -0.002 A 
HETATM   27  C4    D T1001     -19.802   4.357  -1.429  1.00 38.26     0.015 A 
HETATM   28  C5    D T1001     -19.159   3.034  -1.243  1.00 37.89     0.070 A 
HETATM   29  C6    D T1001     -18.543   2.440  -2.373  1.00 37.86     0.008 A 
BRANCH  27  30
HETATM   30  C11   D T1001     -20.529   5.174  -0.316  1.00 37.72     0.277 C 
BRANCH  30  31
HETATM   31  N12   D T1001     -19.734   6.049   0.587  1.00 39.41     0.143 N 
HETATM   32  C13   D T1001     -20.035   7.492   0.518  1.00 38.92     0.253 C 
HETATM   33  C14   D T1001     -18.674   8.171   0.330  1.00 38.65     0.071 C 
HETATM   34  C15   D T1001     -17.752   7.158   1.052  1.00 38.81     0.255 C 
HETATM   35  C16   D T1001     -18.265   5.888   0.421  1.00 38.57     0.284 C 
BRANCH  34  36
HETATM   36  N17   D T1001     -16.245   7.374   0.895  1.00 39.14     0.141 N 
HETATM   37  C18   D T1001     -15.439   7.280   2.131  1.00 39.06     0.285 C 
HETATM   38  C19   D T1001     -15.705   6.455  -0.172  1.00 38.52     0.285 C 
ENDBRANCH  34  36
ENDBRANCH  30  31
ENDBRANCH  27  30
BRANCH  28  39
HETATM   39  C7    D T1001     -19.107   2.230   0.106  1.00 38.38     0.418 C 
HETATM   40  F8    D T1001     -18.086   2.703   0.873  1.00 39.18    -0.166 F 
HETATM   41  F9    D T1001     -18.905   0.908  -0.127  1.00 37.72    -0.166 F 
HETATM   42  F10   D T1001     -20.238   2.396   0.865  1.00 39.32    -0.166 F 
ENDBRANCH  28  39
ENDBRANCH   2  24
TORSDOF 8
ENDMDL
MODEL 8
REMARK VINA RESULT:    -8.815      1.985      3.257
REMARK INTER + INTRA:         -14.396
REMARK INTER:                 -13.840
REMARK INTRA:                  -0.556
REMARK UNBOUND:                -1.458
REMARK  8 active torsions:
REMARK  status: ('A' for Active; 'I' for Inactive)
REMARK    1  A    between atoms: C1_1  and  C41_41 
REMARK    2  A    between atoms: C4_4  and  C11_11 
REMARK    3  A    between atoms: C5_5  and  C7_7 
REMARK    4  A    between atoms: C11_11  and  N12_12 
REMARK    5  A    between atoms: C15_15  and  N17_17 
REMARK    6  A    between atoms: C28_28  and  N32_32 
REMARK    7  A    between atoms: N32_32  and  C38_38 
REMARK    8  A    between atoms: C34_34  and  N40_40 
REMARK       I    between atoms: N40_40  and  C41_41 
ROOT
HETATM    1  N40   D T1001     -13.578   2.866  -4.821  1.00 37.15    -0.208 NA
HETATM    2  C41   D T1001     -12.563   2.549  -5.624  1.00 37.79     0.279 C 
HETATM    3  O42   D T1001     -11.563   3.266  -5.688  1.00 38.78    -0.265 OA
ENDROOT
BRANCH   1   4
HETATM    4  C34   D T1001     -13.720   3.823  -3.756  1.00 37.97     0.086 A 
HETATM    5  C33   D T1001     -14.438   3.552  -2.527  1.00 37.70     0.039 A 
HETATM    6  C38   D T1001     -14.528   4.542  -1.532  1.00 38.49     0.097 A 
HETATM    7  C37   D T1001     -13.924   5.815  -1.709  1.00 38.20    -0.004 A 
HETATM    8  C36   D T1001     -13.213   6.092  -2.918  1.00 37.87    -0.001 A 
HETATM    9  C39   D T1001     -13.966   6.948  -0.685  1.00 38.08     0.033 C 
HETATM   10  C35   D T1001     -13.115   5.088  -3.940  1.00 37.80     0.019 A 
BRANCH   6  11
HETATM   11  N32   D T1001     -15.223   4.225  -0.364  1.00 38.25    -0.060 NA
BRANCH  11  12
HETATM   12  C28   D T1001     -16.544   3.816  -0.236  1.00 38.40     0.750 A 
HETATM   13  N27   D T1001     -17.011   3.800   1.003  1.00 38.34    -0.063 NA
HETATM   14  C26   D T1001     -18.306   3.411   1.257  1.00 38.69     0.086 A 
HETATM   15  C24   D T1001     -18.760   3.404   2.581  1.00 38.59     0.053 A 
HETATM   16  C31   D T1001     -19.155   3.000   0.113  1.00 38.28     0.094 A 
HETATM   17  C23   D T1001     -17.894   3.800   3.718  1.00 37.81     0.103 A 
HETATM   18  C25   D T1001     -20.103   3.027   3.042  1.00 38.35     0.103 A 
HETATM   19  N22   D T1001     -18.309   3.805   5.012  1.00 38.06    -0.223 NA
HETATM   20  C21   D T1001     -19.574   3.431   5.255  1.00 38.54     0.199 A 
HETATM   21  N20   D T1001     -20.481   3.047   4.339  1.00 38.22    -0.223 NA
HETATM   22  C30   D T1001     -18.536   3.056  -1.164  1.00 38.37     0.098 A 
HETATM   23  N29   D T1001     -17.228   3.460  -1.315  1.00 38.67    -0.062 NA
ENDBRANCH  11  12
ENDBRANCH   6  11
ENDBRANCH   1   4
BRANCH   2  24
HETATM   24  C1    D T1001     -12.623   1.329  -6.487  1.00 38.65     0.058 A 
HETATM   25  C2    D T1001     -11.822   1.099  -7.650  1.00 37.93     0.004 A 
HETATM   26  C3    D T1001     -11.957  -0.096  -8.388  1.00 37.95    -0.002 A 
HETATM   27  C4    D T1001     -12.905  -1.130  -7.988  1.00 38.26     0.015 A 
HETATM   28  C5    D T1001     -13.738  -0.899  -6.783  1.00 37.89     0.070 A 
HETATM   29  C6    D T1001     -13.561   0.323  -6.088  1.00 37.86     0.008 A 
BRANCH  27  30
HETATM   30  C11   D T1001     -12.948  -2.404  -8.888  1.00 37.72     0.277 C 
BRANCH  30  31
HETATM   31  N12   D T1001     -13.382  -2.284 -10.306  1.00 39.41     0.143 N 
HETATM   32  C13   D T1001     -14.407  -3.248 -10.751  1.00 38.92     0.253 C 
HETATM   33  C14   D T1001     -13.842  -3.859 -12.039  1.00 38.65     0.071 C 
HETATM   34  C15   D T1001     -12.979  -2.681 -12.554  1.00 38.81     0.255 C 
HETATM   35  C16   D T1001     -12.255  -2.346 -11.274  1.00 38.57     0.284 C 
BRANCH  34  36
HETATM   36  N17   D T1001     -12.057  -2.978 -13.740  1.00 39.14     0.141 N 
HETATM   37  C18   D T1001     -10.669  -3.362 -13.407  1.00 39.06     0.285 C 
HETATM   38  C19   D T1001     -12.698  -4.002 -14.641  1.00 38.52     0.285 C 
ENDBRANCH  34  36
ENDBRANCH  30  31
ENDBRANCH  27  30
BRANCH  28  39
HETATM   39  C7    D T1001     -14.802  -1.903  -6.207  1.00 38.38     0.418 C 
HETATM   40  F8    D T1001     -14.167  -3.011  -5.737  1.00 39.18    -0.166 F 
HETATM   41  F9    D T1001     -15.684  -2.275  -7.169  1.00 37.72    -0.166 F 
HETATM   42  F10   D T1001     -15.483  -1.391  -5.131  1.00 39.32    -0.166 F 
ENDBRANCH  28  39
ENDBRANCH   2  24
TORSDOF 8
ENDMDL
MODEL 9
REMARK VINA RESULT:    -8.760      2.277      2.909
REMARK INTER + INTRA:         -14.315
REMARK INTER:                 -13.219
REMARK INTRA:                  -1.095
REMARK UNBOUND:                -1.458
REMARK  8 active torsions:
REMARK  status: ('A' for Active; 'I' for Inactive)
REMARK    1  A    between atoms: C1_1  and  C41_41 
REMARK    2  A    between atoms: C4_4  and  C11_11 
REMARK    3  A    between atoms: C5_5  and  C7_7 
REMARK    4  A    between atoms: C11_11  and  N12_12 
REMARK    5  A    between atoms: C15_15  and  N17_17 
REMARK    6  A    between atoms: C28_28  and  N32_32 
REMARK    7  A    between atoms: N32_32  and  C38_38 
REMARK    8  A    between atoms: C34_34  and  N40_40 
REMARK       I    between atoms: N40_40  and  C41_41 
ROOT
HETATM    1  N40   D T1001     -12.524   2.635  -6.074  1.00 37.15    -0.208 NA
HETATM    2  C41   D T1001     -11.985   1.920  -7.061  1.00 37.79     0.279 C 
HETATM    3  O42   D T1001     -10.905   2.244  -7.557  1.00 38.78    -0.265 OA
ENDROOT
BRANCH   1   4
HETATM    4  C34   D T1001     -12.007   3.676  -5.227  1.00 37.97     0.086 A 
HETATM    5  C33   D T1001     -12.845   4.566  -4.449  1.00 37.70     0.039 A 
HETATM    6  C38   D T1001     -12.260   5.558  -3.642  1.00 38.49     0.097 A 
HETATM    7  C37   D T1001     -10.849   5.708  -3.573  1.00 38.20    -0.004 A 
HETATM    8  C36   D T1001     -10.014   4.835  -4.336  1.00 37.87    -0.001 A 
HETATM    9  C39   D T1001     -10.125   6.751  -2.724  1.00 38.08     0.033 C 
HETATM   10  C35   D T1001     -10.601   3.819  -5.163  1.00 37.80     0.019 A 
BRANCH   6  11
HETATM   11  N32   D T1001     -13.114   6.382  -2.906  1.00 38.25    -0.060 NA
BRANCH  11  12
HETATM   12  C28   D T1001     -13.817   6.072  -1.749  1.00 38.40     0.750 A 
HETATM   13  N27   D T1001     -14.874   5.295  -1.924  1.00 38.34    -0.063 NA
HETATM   14  C26   D T1001     -15.652   4.921  -0.852  1.00 38.69     0.086 A 
HETATM   15  C24   D T1001     -16.763   4.100  -1.079  1.00 38.59     0.053 A 
HETATM   16  C31   D T1001     -15.283   5.422   0.494  1.00 38.28     0.094 A 
HETATM   17  C23   D T1001     -17.131   3.621  -2.433  1.00 37.81     0.103 A 
HETATM   18  C25   D T1001     -17.700   3.599  -0.065  1.00 38.35     0.103 A 
HETATM   19  N22   D T1001     -18.202   2.822  -2.683  1.00 38.06    -0.223 NA
HETATM   20  C21   D T1001     -18.953   2.456  -1.635  1.00 38.54     0.199 A 
HETATM   21  N20   D T1001     -18.754   2.802  -0.350  1.00 38.22    -0.223 NA
HETATM   22  C30   D T1001     -14.132   6.252   0.547  1.00 38.37     0.098 A 
HETATM   23  N29   D T1001     -13.418   6.570  -0.587  1.00 38.67    -0.062 NA
ENDBRANCH  11  12
ENDBRANCH   6  11
ENDBRANCH   1   4
BRANCH   2  24
HETATM   24  C1    D T1001     -12.690   0.720  -7.608  1.00 38.65     0.058 A 
HETATM   25  C2    D T1001     -12.180  -0.146  -8.626  1.00 37.93     0.004 A 
HETATM   26  C3    D T1001     -12.930  -1.259  -9.064  1.00 37.95    -0.002 A 
HETATM   27  C4    D T1001     -14.236  -1.563  -8.490  1.00 38.26     0.015 A 
HETATM   28  C5    D T1001     -14.771  -0.671  -7.434  1.00 37.89     0.070 A 
HETATM   29  C6    D T1001     -13.974   0.433  -7.042  1.00 37.86     0.008 A 
BRANCH  27  30
HETATM   30  C11   D T1001     -14.955  -2.825  -9.059  1.00 37.72     0.277 C 
BRANCH  30  31
HETATM   31  N12   D T1001     -15.234  -3.977  -8.160  1.00 39.41     0.143 N 
HETATM   32  C13   D T1001     -14.551  -5.240  -8.498  1.00 38.92     0.253 C 
HETATM   33  C14   D T1001     -15.662  -6.297  -8.519  1.00 38.65     0.071 C 
HETATM   34  C15   D T1001     -16.648  -5.688  -7.493  1.00 38.81     0.255 C 
HETATM   35  C16   D T1001     -16.684  -4.274  -8.015  1.00 38.57     0.284 C 
BRANCH  34  36
HETATM   36  N17   D T1001     -18.022  -6.356  -7.388  1.00 39.14     0.141 N 
HETATM   37  C18   D T1001     -18.506  -6.643  -6.021  1.00 39.06     0.285 C 
HETATM   38  C19   D T1001     -19.039  -5.556  -8.162  1.00 38.52     0.285 C 
ENDBRANCH  34  36
ENDBRANCH  30  31
ENDBRANCH  27  30
BRANCH  28  39
HETATM   39  C7    D T1001     -16.153  -0.850  -6.706  1.00 38.38     0.418 C 
HETATM   40  F8    D T1001     -16.456   0.291  -6.029  1.00 39.18    -0.166 F 
HETATM   41  F9    D T1001     -16.105  -1.883  -5.827  1.00 37.72    -0.166 F 
HETATM   42  F10   D T1001     -17.192  -1.039  -7.582  1.00 39.32    -0.166 F 
ENDBRANCH  28  39
ENDBRANCH   2  24
TORSDOF 8
ENDMDL
