MODEL 1
REMARK VINA RESULT:    -9.598      0.000      0.000
REMARK INTER + INTRA:         -14.986
REMARK INTER:                 -14.087
REMARK INTRA:                  -0.898
REMARK UNBOUND:                -0.898
REMARK  8 active torsions:
REMARK  status: ('A' for Active; 'I' for Inactive)
REMARK    1  A    between atoms: C1_1  and  C41_41 
REMARK    2  A    between atoms: C4_4  and  C11_11 
REMARK    3  A    between atoms: C5_5  and  C7_7 
REMARK    4  A    between atoms: C11_11  and  N12_12 
REMARK    5  A    between atoms: C15_15  and  N17_17 
REMARK    6  A    between atoms: C28_28  and  N32_32 
REMARK    7  A    between atoms: N32_32  and  C38_38 
REMARK    8  A    between atoms: C34_34  and  N40_40 
REMARK       I    between atoms: N40_40  and  C41_41 
ROOT
HETATM    1  N40   D T1001      -9.633   0.424  -7.256  1.00 37.15    -0.208 NA
HETATM    2  C41   D T1001      -8.330   0.484  -6.978  1.00 37.79     0.279 C 
HETATM    3  O42   D T1001      -7.799   1.555  -6.678  1.00 38.78    -0.265 OA
ENDROOT
BRANCH   1   4
HETATM    4  C34   D T1001     -10.715   1.356  -7.074  1.00 37.97     0.086 A 
HETATM    5  C33   D T1001     -10.583   2.786  -7.272  1.00 37.70     0.039 A 
HETATM    6  C38   D T1001     -11.689   3.628  -7.075  1.00 38.49     0.097 A 
HETATM    7  C37   D T1001     -12.951   3.103  -6.684  1.00 38.20    -0.004 A 
HETATM    8  C36   D T1001     -13.091   1.694  -6.486  1.00 37.87    -0.001 A 
HETATM    9  C39   D T1001     -14.208   3.938  -6.451  1.00 38.08     0.033 C 
HETATM   10  C35   D T1001     -11.966   0.824  -6.683  1.00 37.80     0.019 A 
BRANCH   6  11
HETATM   11  N32   D T1001     -11.510   4.995  -7.289  1.00 38.25    -0.060 NA
BRANCH  11  12
HETATM   12  C28   D T1001     -10.626   5.855  -6.650  1.00 38.40     0.750 A 
HETATM   13  N27   D T1001      -9.409   5.898  -7.170  1.00 38.34    -0.063 NA
HETATM   14  C26   D T1001      -8.443   6.712  -6.622  1.00 38.69     0.086 A 
HETATM   15  C24   D T1001      -7.168   6.727  -7.201  1.00 38.59     0.053 A 
HETATM   16  C31   D T1001      -8.799   7.523  -5.434  1.00 38.28     0.094 A 
HETATM   17  C23   D T1001      -6.822   5.897  -8.378  1.00 37.81     0.103 A 
HETATM   18  C25   D T1001      -6.020   7.530  -6.759  1.00 38.35     0.103 A 
HETATM   19  N22   D T1001      -5.593   5.894  -8.960  1.00 38.06    -0.223 NA
HETATM   20  C21   D T1001      -4.658   6.691  -8.426  1.00 38.54     0.199 A 
HETATM   21  N20   D T1001      -4.812   7.503  -7.365  1.00 38.22    -0.223 NA
HETATM   22  C30   D T1001     -10.134   7.383  -4.969  1.00 38.37     0.098 A 
HETATM   23  N29   D T1001     -11.028   6.538  -5.588  1.00 38.67    -0.062 NA
ENDBRANCH  11  12
ENDBRANCH   6  11
ENDBRANCH   1   4
BRANCH   2  24
HETATM   24  C1    D T1001      -7.477  -0.740  -7.049  1.00 38.65     0.058 A 
HETATM   25  C2    D T1001      -7.920  -2.034  -7.472  1.00 37.93     0.004 A 
HETATM   26  C3    D T1001      -7.024  -3.123  -7.509  1.00 37.95    -0.002 A 
HETATM   27  C4    D T1001      -5.625  -2.964  -7.126  1.00 38.26     0.015 A 
HETATM   28  C5    D T1001      -5.158  -1.628  -6.689  1.00 37.89     0.070 A 
HETATM   29  C6    D T1001      -6.107  -0.575  -6.668  1.00 37.86     0.008 A 
BRANCH  27  30
HETATM   30  C11   D T1001      -4.742  -4.246  -7.219  1.00 37.72     0.277 C 
BRANCH  30  31
HETATM   31  N12   D T1001      -5.057  -5.417  -6.355  1.00 39.41     0.143 N 
HETATM   32  C13   D T1001      -3.911  -6.262  -5.968  1.00 38.92     0.253 C 
HETATM   33  C14   D T1001      -4.340  -7.693  -6.316  1.00 38.65     0.071 C 
HETATM   34  C15   D T1001      -5.874  -7.576  -6.144  1.00 38.81     0.255 C 
HETATM   35  C16   D T1001      -6.101  -6.309  -6.927  1.00 38.57     0.284 C 
BRANCH  34  36
HETATM   36  N17   D T1001      -6.707  -8.769  -6.620  1.00 39.14     0.141 N 
HETATM   37  C18   D T1001      -7.853  -8.455  -7.499  1.00 39.06     0.285 C 
HETATM   38  C19   D T1001      -5.808  -9.799  -7.257  1.00 38.52     0.285 C 
ENDBRANCH  34  36
ENDBRANCH  30  31
ENDBRANCH  27  30
BRANCH  28  39
HETATM   39  C7    D T1001      -3.690  -1.277  -6.248  1.00 38.38     0.418 C 
HETATM   40  F8    D T1001      -3.280  -2.165  -5.301  1.00 39.18    -0.166 F 
HETATM   41  F9    D T1001      -3.628  -0.023  -5.731  1.00 37.72    -0.166 F 
HETATM   42  F10   D T1001      -2.786  -1.399  -7.272  1.00 39.32    -0.166 F 
ENDBRANCH  28  39
ENDBRANCH   2  24
TORSDOF 8
ENDMDL
MODEL 2
REMARK VINA RESULT:    -9.197      3.887     11.606
REMARK INTER + INTRA:         -14.397
REMARK INTER:                 -13.182
REMARK INTRA:                  -1.216
REMARK UNBOUND:                -0.898
REMARK  8 active torsions:
REMARK  status: ('A' for Active; 'I' for Inactive)
REMARK    1  A    between atoms: C1_1  and  C41_41 
REMARK    2  A    between atoms: C4_4  and  C11_11 
REMARK    3  A    between atoms: C5_5  and  C7_7 
REMARK    4  A    between atoms: C11_11  and  N12_12 
REMARK    5  A    between atoms: C15_15  and  N17_17 
REMARK    6  A    between atoms: C28_28  and  N32_32 
REMARK    7  A    between atoms: N32_32  and  C38_38 
REMARK    8  A    between atoms: C34_34  and  N40_40 
REMARK       I    between atoms: N40_40  and  C41_41 
ROOT
HETATM    1  N40   D T1001     -10.684   3.250  -4.746  1.00 37.15    -0.208 NA
HETATM    2  C41   D T1001      -9.667   3.694  -5.484  1.00 37.79     0.279 C 
HETATM    3  O42   D T1001      -8.921   2.906  -6.068  1.00 38.78    -0.265 OA
ENDROOT
BRANCH   1   4
HETATM    4  C34   D T1001     -11.307   1.958  -4.618  1.00 37.97     0.086 A 
HETATM    5  C33   D T1001     -10.568   0.727  -4.426  1.00 37.70     0.039 A 
HETATM    6  C38   D T1001     -11.252  -0.494  -4.308  1.00 38.49     0.097 A 
HETATM    7  C37   D T1001     -12.671  -0.549  -4.371  1.00 38.20    -0.004 A 
HETATM    8  C36   D T1001     -13.410   0.661  -4.560  1.00 37.87    -0.001 A 
HETATM    9  C39   D T1001     -13.501  -1.825  -4.249  1.00 38.08     0.033 C 
HETATM   10  C35   D T1001     -12.720   1.914  -4.683  1.00 37.80     0.019 A 
BRANCH   6  11
HETATM   11  N32   D T1001     -10.493  -1.648  -4.115  1.00 38.25    -0.060 NA
BRANCH  11  12
HETATM   12  C28   D T1001      -9.750  -2.354  -5.053  1.00 38.40     0.750 A 
HETATM   13  N27   D T1001      -8.493  -1.959  -5.189  1.00 38.34    -0.063 NA
HETATM   14  C26   D T1001      -7.659  -2.580  -6.090  1.00 38.69     0.086 A 
HETATM   15  C24   D T1001      -6.338  -2.130  -6.204  1.00 38.59     0.053 A 
HETATM   16  C31   D T1001      -8.207  -3.688  -6.908  1.00 38.28     0.094 A 
HETATM   17  C23   D T1001      -5.809  -1.009  -5.393  1.00 37.81     0.103 A 
HETATM   18  C25   D T1001      -5.308  -2.670  -7.103  1.00 38.35     0.103 A 
HETATM   19  N22   D T1001      -4.531  -0.554  -5.483  1.00 38.06    -0.223 NA
HETATM   20  C21   D T1001      -3.720  -1.165  -6.358  1.00 38.54     0.199 A 
HETATM   21  N20   D T1001      -4.045  -2.193  -7.163  1.00 38.22    -0.223 NA
HETATM   22  C30   D T1001      -9.570  -4.012  -6.672  1.00 38.37     0.098 A 
HETATM   23  N29   D T1001     -10.324  -3.328  -5.746  1.00 38.67    -0.062 NA
ENDBRANCH  11  12
ENDBRANCH   6  11
ENDBRANCH   1   4
BRANCH   2  24
HETATM   24  C1    D T1001      -9.390   5.157  -5.601  1.00 38.65     0.058 A 
HETATM   25  C2    D T1001     -10.251   6.202  -5.135  1.00 37.93     0.004 A 
HETATM   26  C3    D T1001      -9.887   7.556  -5.290  1.00 37.95    -0.002 A 
HETATM   27  C4    D T1001      -8.624   7.931  -5.918  1.00 38.26     0.015 A 
HETATM   28  C5    D T1001      -7.726   6.857  -6.400  1.00 37.89     0.070 A 
HETATM   29  C6    D T1001      -8.151   5.516  -6.222  1.00 37.86     0.008 A 
BRANCH  27  30
HETATM   30  C11   D T1001      -8.342   9.461  -6.020  1.00 37.72     0.277 C 
BRANCH  30  31
HETATM   31  N12   D T1001      -8.851  10.373  -4.960  1.00 39.41     0.143 N 
HETATM   32  C13   D T1001     -10.095  11.102  -5.276  1.00 38.92     0.253 C 
HETATM   33  C14   D T1001      -9.782  12.571  -4.966  1.00 38.65     0.071 C 
HETATM   34  C15   D T1001      -8.726  12.403  -3.846  1.00 38.81     0.255 C 
HETATM   35  C16   D T1001      -7.846  11.373  -4.508  1.00 38.57     0.284 C 
BRANCH  34  36
HETATM   36  N17   D T1001      -7.989  13.671  -3.406  1.00 39.14     0.141 N 
HETATM   37  C18   D T1001      -7.128  13.544  -2.212  1.00 39.06     0.285 C 
HETATM   38  C19   D T1001      -7.216  14.242  -4.569  1.00 38.52     0.285 C 
ENDBRANCH  34  36
ENDBRANCH  30  31
ENDBRANCH  27  30
BRANCH  28  39
HETATM   39  C7    D T1001      -6.332   7.079  -7.094  1.00 38.38     0.418 C 
HETATM   40  F8    D T1001      -5.524   7.791  -6.261  1.00 39.18    -0.166 F 
HETATM   41  F9    D T1001      -6.475   7.761  -8.258  1.00 37.72    -0.166 F 
HETATM   42  F10   D T1001      -5.664   5.904  -7.327  1.00 39.32    -0.166 F 
ENDBRANCH  28  39
ENDBRANCH   2  24
TORSDOF 8
ENDMDL
MODEL 3
REMARK VINA RESULT:    -8.955      2.837     12.641
REMARK INTER + INTRA:         -14.041
REMARK INTER:                 -13.439
REMARK INTRA:                  -0.602
REMARK UNBOUND:                -0.898
REMARK  8 active torsions:
REMARK  status: ('A' for Active; 'I' for Inactive)
REMARK    1  A    between atoms: C1_1  and  C41_41 
REMARK    2  A    between atoms: C4_4  and  C11_11 
REMARK    3  A    between atoms: C5_5  and  C7_7 
REMARK    4  A    between atoms: C11_11  and  N12_12 
REMARK    5  A    between atoms: C15_15  and  N17_17 
REMARK    6  A    between atoms: C28_28  and  N32_32 
REMARK    7  A    between atoms: N32_32  and  C38_38 
REMARK    8  A    between atoms: C34_34  and  N40_40 
REMARK       I    between atoms: N40_40  and  C41_41 
ROOT
HETATM    1  N40   D T1001      -5.760  -2.523  -6.020  1.00 37.15    -0.208 NA
HETATM    2  C41   D T1001      -5.891  -1.667  -7.033  1.00 37.79     0.279 C 
HETATM    3  O42   D T1001      -5.004  -1.556  -7.882  1.00 38.78    -0.265 OA
ENDROOT
BRANCH   1   4
HETATM    4  C34   D T1001      -4.841  -3.601  -5.764  1.00 37.97     0.086 A 
HETATM    5  C33   D T1001      -5.148  -4.994  -6.024  1.00 37.70     0.039 A 
HETATM    6  C38   D T1001      -4.194  -5.987  -5.749  1.00 38.49     0.097 A 
HETATM    7  C37   D T1001      -2.919  -5.653  -5.216  1.00 38.20    -0.004 A 
HETATM    8  C36   D T1001      -2.608  -4.282  -4.955  1.00 37.87    -0.001 A 
HETATM    9  C39   D T1001      -1.819  -6.661  -4.889  1.00 38.08     0.033 C 
HETATM   10  C35   D T1001      -3.576  -3.259  -5.232  1.00 37.80     0.019 A 
BRANCH   6  11
HETATM   11  N32   D T1001      -4.536  -7.311  -6.028  1.00 38.25    -0.060 NA
BRANCH  11  12
HETATM   12  C28   D T1001      -5.652  -7.783  -6.707  1.00 38.40     0.750 A 
HETATM   13  N27   D T1001      -5.531  -9.005  -7.206  1.00 38.34    -0.063 NA
HETATM   14  C26   D T1001      -6.568  -9.581  -7.902  1.00 38.69     0.086 A 
HETATM   15  C24   D T1001      -6.399 -10.873  -8.415  1.00 38.59     0.053 A 
HETATM   16  C31   D T1001      -7.812  -8.797  -8.088  1.00 38.28     0.094 A 
HETATM   17  C23   D T1001      -5.143 -11.638  -8.237  1.00 37.81     0.103 A 
HETATM   18  C25   D T1001      -7.390 -11.646  -9.176  1.00 38.35     0.103 A 
HETATM   19  N22   D T1001      -4.953 -12.894  -8.723  1.00 38.06    -0.223 NA
HETATM   20  C21   D T1001      -5.968 -13.454  -9.396  1.00 38.54     0.199 A 
HETATM   21  N20   D T1001      -7.167 -12.895  -9.641  1.00 38.22    -0.223 NA
HETATM   22  C30   D T1001      -7.814  -7.498  -7.511  1.00 38.37     0.098 A 
HETATM   23  N29   D T1001      -6.721  -7.010  -6.831  1.00 38.67    -0.062 NA
ENDBRANCH  11  12
ENDBRANCH   6  11
ENDBRANCH   1   4
BRANCH   2  24
HETATM   24  C1    D T1001      -7.103  -0.801  -7.150  1.00 38.65     0.058 A 
HETATM   25  C2    D T1001      -7.369   0.109  -8.222  1.00 37.93     0.004 A 
HETATM   26  C3    D T1001      -8.554   0.875  -8.236  1.00 37.95    -0.002 A 
HETATM   27  C4    D T1001      -9.543   0.757  -7.170  1.00 38.26     0.015 A 
HETATM   28  C5    D T1001      -9.276  -0.185  -6.058  1.00 37.89     0.070 A 
HETATM   29  C6    D T1001      -8.065  -0.921  -6.097  1.00 37.86     0.008 A 
BRANCH  27  30
HETATM   30  C11   D T1001     -10.810   1.655  -7.312  1.00 37.72     0.277 C 
BRANCH  30  31
HETATM   31  N12   D T1001     -10.899   2.924  -6.540  1.00 39.41     0.143 N 
HETATM   32  C13   D T1001     -11.602   4.038  -7.206  1.00 38.92     0.253 C 
HETATM   33  C14   D T1001     -10.642   5.230  -7.100  1.00 38.65     0.071 C 
HETATM   34  C15   D T1001      -9.897   4.876  -5.790  1.00 38.81     0.255 C 
HETATM   35  C16   D T1001      -9.577   3.433  -6.086  1.00 38.57     0.284 C 
BRANCH  34  36
HETATM   36  N17   D T1001      -8.677   5.734  -5.445  1.00 39.14     0.141 N 
HETATM   37  C18   D T1001      -7.665   5.887  -6.512  1.00 39.06     0.285 C 
HETATM   38  C19   D T1001      -9.126   7.080  -4.933  1.00 38.52     0.285 C 
ENDBRANCH  34  36
ENDBRANCH  30  31
ENDBRANCH  27  30
BRANCH  28  39
HETATM   39  C7    D T1001     -10.230  -0.440  -4.834  1.00 38.38     0.418 C 
HETATM   40  F8    D T1001     -11.400  -0.974  -5.279  1.00 39.18    -0.166 F 
HETATM   41  F9    D T1001     -10.495   0.718  -4.178  1.00 37.72    -0.166 F 
HETATM   42  F10   D T1001      -9.724  -1.363  -3.953  1.00 39.32    -0.166 F 
ENDBRANCH  28  39
ENDBRANCH   2  24
TORSDOF 8
ENDMDL
MODEL 4
REMARK VINA RESULT:    -8.947      2.329      4.758
REMARK INTER + INTRA:         -14.029
REMARK INTER:                 -12.494
REMARK INTRA:                  -1.536
REMARK UNBOUND:                -0.898
REMARK  8 active torsions:
REMARK  status: ('A' for Active; 'I' for Inactive)
REMARK    1  A    between atoms: C1_1  and  C41_41 
REMARK    2  A    between atoms: C4_4  and  C11_11 
REMARK    3  A    between atoms: C5_5  and  C7_7 
REMARK    4  A    between atoms: C11_11  and  N12_12 
REMARK    5  A    between atoms: C15_15  and  N17_17 
REMARK    6  A    between atoms: C28_28  and  N32_32 
REMARK    7  A    between atoms: N32_32  and  C38_38 
REMARK    8  A    between atoms: C34_34  and  N40_40 
REMARK       I    between atoms: N40_40  and  C41_41 
ROOT
HETATM    1  N40   D T1001      -7.819   2.581  -6.146  1.00 37.15    -0.208 NA
HETATM    2  C41   D T1001      -8.341   1.618  -6.906  1.00 37.79     0.279 C 
HETATM    3  O42   D T1001      -9.419   1.783  -7.480  1.00 38.78    -0.265 OA
ENDROOT
BRANCH   1   4
HETATM    4  C34   D T1001      -8.137   3.976  -5.981  1.00 37.97     0.086 A 
HETATM    5  C33   D T1001      -9.141   4.464  -5.056  1.00 37.70     0.039 A 
HETATM    6  C38   D T1001      -9.390   5.843  -4.952  1.00 38.49     0.097 A 
HETATM    7  C37   D T1001      -8.670   6.780  -5.742  1.00 38.20    -0.004 A 
HETATM    8  C36   D T1001      -7.678   6.307  -6.657  1.00 37.87    -0.001 A 
HETATM    9  C39   D T1001      -8.868   8.294  -5.695  1.00 38.08     0.033 C 
HETATM   10  C35   D T1001      -7.416   4.901  -6.772  1.00 37.80     0.019 A 
BRANCH   6  11
HETATM   11  N32   D T1001     -10.359   6.260  -4.039  1.00 38.25    -0.060 NA
BRANCH  11  12
HETATM   12  C28   D T1001     -11.726   6.011  -4.065  1.00 38.40     0.750 A 
HETATM   13  N27   D T1001     -12.408   6.710  -4.961  1.00 38.34    -0.063 NA
HETATM   14  C26   D T1001     -13.770   6.552  -5.080  1.00 38.69     0.086 A 
HETATM   15  C24   D T1001     -14.453   7.311  -6.038  1.00 38.59     0.053 A 
HETATM   16  C31   D T1001     -14.449   5.595  -4.175  1.00 38.28     0.094 A 
HETATM   17  C23   D T1001     -13.763   8.277  -6.924  1.00 37.81     0.103 A 
HETATM   18  C25   D T1001     -15.897   7.275  -6.311  1.00 38.35     0.103 A 
HETATM   19  N22   D T1001     -14.403   9.025  -7.862  1.00 38.06    -0.223 NA
HETATM   20  C21   D T1001     -15.728   8.865  -7.979  1.00 38.54     0.199 A 
HETATM   21  N20   D T1001     -16.498   8.032  -7.256  1.00 38.22    -0.223 NA
HETATM   22  C30   D T1001     -13.608   4.913  -3.256  1.00 38.37     0.098 A 
HETATM   23  N29   D T1001     -12.251   5.142  -3.214  1.00 38.67    -0.062 NA
ENDBRANCH  11  12
ENDBRANCH   6  11
ENDBRANCH   1   4
BRANCH   2  24
HETATM   24  C1    D T1001      -7.643   0.306  -7.061  1.00 38.65     0.058 A 
HETATM   25  C2    D T1001      -8.100  -0.783  -7.869  1.00 37.93     0.004 A 
HETATM   26  C3    D T1001      -7.355  -1.979  -7.950  1.00 37.95    -0.002 A 
HETATM   27  C4    D T1001      -6.101  -2.138  -7.223  1.00 38.26     0.015 A 
HETATM   28  C5    D T1001      -5.620  -1.015  -6.386  1.00 37.89     0.070 A 
HETATM   29  C6    D T1001      -6.415   0.158  -6.341  1.00 37.86     0.008 A 
BRANCH  27  30
HETATM   30  C11   D T1001      -5.375  -3.507  -7.404  1.00 37.72     0.277 C 
BRANCH  30  31
HETATM   31  N12   D T1001      -5.704  -4.637  -6.493  1.00 39.41     0.143 N 
HETATM   32  C13   D T1001      -4.553  -5.378  -5.940  1.00 38.92     0.253 C 
HETATM   33  C14   D T1001      -4.860  -6.853  -6.225  1.00 38.65     0.071 C 
HETATM   34  C15   D T1001      -6.408  -6.827  -6.206  1.00 38.81     0.255 C 
HETATM   35  C16   D T1001      -6.632  -5.631  -7.096  1.00 38.57     0.284 C 
BRANCH  34  36
HETATM   36  N17   D T1001      -7.117  -8.101  -6.673  1.00 39.14     0.141 N 
HETATM   37  C18   D T1001      -7.971  -7.970  -7.873  1.00 39.06     0.285 C 
HETATM   38  C19   D T1001      -6.112  -9.212  -6.847  1.00 38.52     0.285 C 
ENDBRANCH  34  36
ENDBRANCH  30  31
ENDBRANCH  27  30
BRANCH  28  39
HETATM   39  C7    D T1001      -4.293  -1.012  -5.542  1.00 38.38     0.418 C 
HETATM   40  F8    D T1001      -3.224  -1.063  -6.384  1.00 39.18    -0.166 F 
HETATM   41  F9    D T1001      -4.248  -2.082  -4.709  1.00 37.72    -0.166 F 
HETATM   42  F10   D T1001      -4.128   0.142  -4.819  1.00 39.32    -0.166 F 
ENDBRANCH  28  39
ENDBRANCH   2  24
TORSDOF 8
ENDMDL
MODEL 5
REMARK VINA RESULT:    -8.846      3.144     12.645
REMARK INTER + INTRA:         -13.882
REMARK INTER:                 -12.812
REMARK INTRA:                  -1.069
REMARK UNBOUND:                -0.898
REMARK  8 active torsions:
REMARK  status: ('A' for Active; 'I' for Inactive)
REMARK    1  A    between atoms: C1_1  and  C41_41 
REMARK    2  A    between atoms: C4_4  and  C11_11 
REMARK    3  A    between atoms: C5_5  and  C7_7 
REMARK    4  A    between atoms: C11_11  and  N12_12 
REMARK    5  A    between atoms: C15_15  and  N17_17 
REMARK    6  A    between atoms: C28_28  and  N32_32 
REMARK    7  A    between atoms: N32_32  and  C38_38 
REMARK    8  A    between atoms: C34_34  and  N40_40 
REMARK       I    between atoms: N40_40  and  C41_41 
ROOT
HETATM    1  N40   D T1001      -6.066  -2.497  -6.647  1.00 37.15    -0.208 NA
HETATM    2  C41   D T1001      -7.373  -2.287  -6.484  1.00 37.79     0.279 C 
HETATM    3  O42   D T1001      -8.110  -3.186  -6.077  1.00 38.78    -0.265 OA
ENDROOT
BRANCH   1   4
HETATM    4  C34   D T1001      -5.189  -3.559  -6.228  1.00 37.97     0.086 A 
HETATM    5  C33   D T1001      -5.614  -4.935  -6.069  1.00 37.70     0.039 A 
HETATM    6  C38   D T1001      -4.694  -5.914  -5.659  1.00 38.49     0.097 A 
HETATM    7  C37   D T1001      -3.338  -5.580  -5.393  1.00 38.20    -0.004 A 
HETATM    8  C36   D T1001      -2.908  -4.224  -5.547  1.00 37.87    -0.001 A 
HETATM    9  C39   D T1001      -2.267  -6.573  -4.947  1.00 38.08     0.033 C 
HETATM   10  C35   D T1001      -3.841  -3.217  -5.965  1.00 37.80     0.019 A 
BRANCH   6  11
HETATM   11  N32   D T1001      -5.154  -7.225  -5.531  1.00 38.25    -0.060 NA
BRANCH  11  12
HETATM   12  C28   D T1001      -5.178  -8.223  -6.497  1.00 38.40     0.750 A 
HETATM   13  N27   D T1001      -6.381  -8.524  -6.964  1.00 38.34    -0.063 NA
HETATM   14  C26   D T1001      -6.533  -9.499  -7.924  1.00 38.69     0.086 A 
HETATM   15  C24   D T1001      -7.822  -9.789  -8.389  1.00 38.59     0.053 A 
HETATM   16  C31   D T1001      -5.324 -10.207  -8.406  1.00 38.28     0.094 A 
HETATM   17  C23   D T1001      -9.024  -9.085  -7.885  1.00 37.81     0.103 A 
HETATM   18  C25   D T1001      -8.177 -10.788  -9.407  1.00 38.35     0.103 A 
HETATM   19  N22   D T1001     -10.285  -9.346  -8.321  1.00 38.06    -0.223 NA
HETATM   20  C21   D T1001     -10.429 -10.292  -9.258  1.00 38.54     0.199 A 
HETATM   21  N20   D T1001      -9.444 -11.017  -9.818  1.00 38.22    -0.223 NA
HETATM   22  C30   D T1001      -4.095  -9.796  -7.822  1.00 38.37     0.098 A 
HETATM   23  N29   D T1001      -4.047  -8.808  -6.865  1.00 38.67    -0.062 NA
ENDBRANCH  11  12
ENDBRANCH   6  11
ENDBRANCH   1   4
BRANCH   2  24
HETATM   24  C1    D T1001      -7.979  -0.962  -6.816  1.00 38.65     0.058 A 
HETATM   25  C2    D T1001      -7.681  -0.184  -7.980  1.00 37.93     0.004 A 
HETATM   26  C3    D T1001      -8.321   1.054  -8.199  1.00 37.95    -0.002 A 
HETATM   27  C4    D T1001      -9.307   1.572  -7.256  1.00 38.26     0.015 A 
HETATM   28  C5    D T1001      -9.622   0.773  -6.050  1.00 37.89     0.070 A 
HETATM   29  C6    D T1001      -8.942  -0.460  -5.883  1.00 37.86     0.008 A 
BRANCH  27  30
HETATM   30  C11   D T1001      -9.943   2.949  -7.622  1.00 37.72     0.277 C 
BRANCH  30  31
HETATM   31  N12   D T1001      -9.204   4.203  -7.311  1.00 39.41     0.143 N 
HETATM   32  C13   D T1001      -7.924   4.039  -6.594  1.00 38.92     0.253 C 
HETATM   33  C14   D T1001      -8.014   4.999  -5.402  1.00 38.65     0.071 C 
HETATM   34  C15   D T1001      -8.945   6.088  -5.987  1.00 38.81     0.255 C 
HETATM   35  C16   D T1001     -10.017   5.196  -6.558  1.00 38.57     0.284 C 
BRANCH  34  36
HETATM   36  N17   D T1001      -9.462   7.143  -5.005  1.00 39.14     0.141 N 
HETATM   37  C18   D T1001      -9.256   8.554  -5.395  1.00 39.06     0.285 C 
HETATM   38  C19   D T1001     -10.913   6.880  -4.688  1.00 38.52     0.285 C 
ENDBRANCH  34  36
ENDBRANCH  30  31
ENDBRANCH  27  30
BRANCH  28  39
HETATM   39  C7    D T1001     -10.657   1.175  -4.936  1.00 38.38     0.418 C 
HETATM   40  F8    D T1001     -11.919   0.947  -5.392  1.00 39.18    -0.166 F 
HETATM   41  F9    D T1001     -10.535   2.488  -4.616  1.00 37.72    -0.166 F 
HETATM   42  F10   D T1001     -10.538   0.412  -3.803  1.00 39.32    -0.166 F 
ENDBRANCH  28  39
ENDBRANCH   2  24
TORSDOF 8
ENDMDL
MODEL 6
REMARK VINA RESULT:    -8.827      2.241      3.413
REMARK INTER + INTRA:         -13.853
REMARK INTER:                 -12.491
REMARK INTRA:                  -1.362
REMARK UNBOUND:                -0.898
REMARK  8 active torsions:
REMARK  status: ('A' for Active; 'I' for Inactive)
REMARK    1  A    between atoms: C1_1  and  C41_41 
REMARK    2  A    between atoms: C4_4  and  C11_11 
REMARK    3  A    between atoms: C5_5  and  C7_7 
REMARK    4  A    between atoms: C11_11  and  N12_12 
REMARK    5  A    between atoms: C15_15  and  N17_17 
REMARK    6  A    between atoms: C28_28  and  N32_32 
REMARK    7  A    between atoms: N32_32  and  C38_38 
REMARK    8  A    between atoms: C34_34  and  N40_40 
REMARK       I    between atoms: N40_40  and  C41_41 
ROOT
HETATM    1  N40   D T1001     -11.517   0.166  -6.529  1.00 37.15    -0.208 NA
HETATM    2  C41   D T1001     -11.439  -0.746  -7.499  1.00 37.79     0.279 C 
HETATM    3  O42   D T1001     -12.112  -0.634  -8.524  1.00 38.78    -0.265 OA
ENDROOT
BRANCH   1   4
HETATM    4  C34   D T1001     -12.098   1.482  -6.470  1.00 37.97     0.086 A 
HETATM    5  C33   D T1001     -11.432   2.674  -6.958  1.00 37.70     0.039 A 
HETATM    6  C38   D T1001     -12.069   3.922  -6.866  1.00 38.49     0.097 A 
HETATM    7  C37   D T1001     -13.367   4.044  -6.300  1.00 38.20    -0.004 A 
HETATM    8  C36   D T1001     -14.032   2.874  -5.816  1.00 37.87    -0.001 A 
HETATM    9  C39   D T1001     -14.139   5.355  -6.162  1.00 38.08     0.033 C 
HETATM   10  C35   D T1001     -13.390   1.594  -5.904  1.00 37.80     0.019 A 
BRANCH   6  11
HETATM   11  N32   D T1001     -11.389   5.036  -7.360  1.00 38.25    -0.060 NA
BRANCH  11  12
HETATM   12  C28   D T1001     -10.488   5.856  -6.693  1.00 38.40     0.750 A 
HETATM   13  N27   D T1001      -9.270   5.895  -7.215  1.00 38.34    -0.063 NA
HETATM   14  C26   D T1001      -8.289   6.671  -6.641  1.00 38.69     0.086 A 
HETATM   15  C24   D T1001      -7.015   6.683  -7.222  1.00 38.59     0.053 A 
HETATM   16  C31   D T1001      -8.627   7.446  -5.423  1.00 38.28     0.094 A 
HETATM   17  C23   D T1001      -6.687   5.889  -8.428  1.00 37.81     0.103 A 
HETATM   18  C25   D T1001      -5.851   7.448  -6.754  1.00 38.35     0.103 A 
HETATM   19  N22   D T1001      -5.459   5.884  -9.013  1.00 38.06    -0.223 NA
HETATM   20  C21   D T1001      -4.508   6.644  -8.454  1.00 38.54     0.199 A 
HETATM   21  N20   D T1001      -4.645   7.421  -7.364  1.00 38.22    -0.223 NA
HETATM   22  C30   D T1001      -9.964   7.314  -4.960  1.00 38.37     0.098 A 
HETATM   23  N29   D T1001     -10.874   6.509  -5.607  1.00 38.67    -0.062 NA
ENDBRANCH  11  12
ENDBRANCH   6  11
ENDBRANCH   1   4
BRANCH   2  24
HETATM   24  C1    D T1001     -10.551  -1.939  -7.355  1.00 38.65     0.058 A 
HETATM   25  C2    D T1001     -10.203  -2.843  -8.408  1.00 37.93     0.004 A 
HETATM   26  C3    D T1001      -9.347  -3.937  -8.161  1.00 37.95    -0.002 A 
HETATM   27  C4    D T1001      -8.786  -4.174  -6.835  1.00 38.26     0.015 A 
HETATM   28  C5    D T1001      -9.139  -3.241  -5.740  1.00 37.89     0.070 A 
HETATM   29  C6    D T1001     -10.009  -2.165  -6.049  1.00 37.86     0.008 A 
BRANCH  27  30
HETATM   30  C11   D T1001      -7.850  -5.414  -6.702  1.00 37.72     0.277 C 
BRANCH  30  31
HETATM   31  N12   D T1001      -6.413  -5.291  -7.071  1.00 39.41     0.143 N 
HETATM   32  C13   D T1001      -5.494  -6.244  -6.419  1.00 38.92     0.253 C 
HETATM   33  C14   D T1001      -4.370  -5.376  -5.841  1.00 38.65     0.071 C 
HETATM   34  C15   D T1001      -4.383  -4.196  -6.843  1.00 38.81     0.255 C 
HETATM   35  C16   D T1001      -5.865  -3.924  -6.863  1.00 38.57     0.284 C 
BRANCH  34  36
HETATM   36  N17   D T1001      -3.525  -2.981  -6.477  1.00 39.14     0.141 N 
HETATM   37  C18   D T1001      -3.969  -1.681  -7.023  1.00 39.06     0.285 C 
HETATM   38  C19   D T1001      -3.355  -2.906  -4.980  1.00 38.52     0.285 C 
ENDBRANCH  34  36
ENDBRANCH  30  31
ENDBRANCH  27  30
BRANCH  28  39
HETATM   39  C7    D T1001      -8.625  -3.343  -4.257  1.00 38.38     0.418 C 
HETATM   40  F8    D T1001      -9.521  -2.741  -3.428  1.00 39.18    -0.166 F 
HETATM   41  F9    D T1001      -7.420  -2.733  -4.121  1.00 37.72    -0.166 F 
HETATM   42  F10   D T1001      -8.538  -4.638  -3.815  1.00 39.32    -0.166 F 
ENDBRANCH  28  39
ENDBRANCH   2  24
TORSDOF 8
ENDMDL
MODEL 7
REMARK VINA RESULT:    -8.822      4.174      7.833
REMARK INTER + INTRA:         -13.847
REMARK INTER:                 -12.913
REMARK INTRA:                  -0.933
REMARK UNBOUND:                -0.898
REMARK  8 active torsions:
REMARK  status: ('A' for Active; 'I' for Inactive)
REMARK    1  A    between atoms: C1_1  and  C41_41 
REMARK    2  A    between atoms: C4_4  and  C11_11 
REMARK    3  A    between atoms: C5_5  and  C7_7 
REMARK    4  A    between atoms: C11_11  and  N12_12 
REMARK    5  A    between atoms: C15_15  and  N17_17 
REMARK    6  A    between atoms: C28_28  and  N32_32 
REMARK    7  A    between atoms: N32_32  and  C38_38 
REMARK    8  A    between atoms: C34_34  and  N40_40 
REMARK       I    between atoms: N40_40  and  C41_41 
ROOT
HETATM    1  N40   D T1001      -5.472  -5.441  -6.827  1.00 37.15    -0.208 NA
HETATM    2  C41   D T1001      -6.346  -6.288  -6.284  1.00 37.79     0.279 C 
HETATM    3  O42   D T1001      -6.828  -6.070  -5.171  1.00 38.78    -0.265 OA
ENDROOT
BRANCH   1   4
HETATM    4  C34   D T1001      -5.070  -4.101  -6.488  1.00 37.97     0.086 A 
HETATM    5  C33   D T1001      -5.767  -2.916  -6.946  1.00 37.70     0.039 A 
HETATM    6  C38   D T1001      -5.312  -1.641  -6.567  1.00 38.49     0.097 A 
HETATM    7  C37   D T1001      -4.172  -1.488  -5.734  1.00 38.20    -0.004 A 
HETATM    8  C36   D T1001      -3.477  -2.651  -5.276  1.00 37.87    -0.001 A 
HETATM    9  C39   D T1001      -3.607  -0.147  -5.267  1.00 38.08     0.033 C 
HETATM   10  C35   D T1001      -3.933  -3.957  -5.658  1.00 37.80     0.019 A 
BRANCH   6  11
HETATM   11  N32   D T1001      -6.026  -0.534  -7.028  1.00 38.25    -0.060 NA
BRANCH  11  12
HETATM   12  C28   D T1001      -7.305  -0.128  -6.671  1.00 38.40     0.750 A 
HETATM   13  N27   D T1001      -7.518   1.178  -6.732  1.00 38.34    -0.063 NA
HETATM   14  C26   D T1001      -8.746   1.702  -6.399  1.00 38.69     0.086 A 
HETATM   15  C24   D T1001      -8.930   3.088  -6.476  1.00 38.59     0.053 A 
HETATM   16  C31   D T1001      -9.813   0.771  -5.960  1.00 38.28     0.094 A 
HETATM   17  C23   D T1001      -7.849   4.008  -6.898  1.00 37.81     0.103 A 
HETATM   18  C25   D T1001     -10.164   3.823  -6.165  1.00 38.35     0.103 A 
HETATM   19  N22   D T1001      -8.000   5.357  -6.982  1.00 38.06    -0.223 NA
HETATM   20  C21   D T1001      -9.199   5.863  -6.662  1.00 38.54     0.199 A 
HETATM   21  N20   D T1001     -10.278   5.166  -6.264  1.00 38.22    -0.223 NA
HETATM   22  C30   D T1001      -9.457  -0.604  -5.931  1.00 38.37     0.098 A 
HETATM   23  N29   D T1001      -8.196  -1.030  -6.284  1.00 38.67    -0.062 NA
ENDBRANCH  11  12
ENDBRANCH   6  11
ENDBRANCH   1   4
BRANCH   2  24
HETATM   24  C1    D T1001      -6.744  -7.537  -7.000  1.00 38.65     0.058 A 
HETATM   25  C2    D T1001      -7.990  -7.743  -7.675  1.00 37.93     0.004 A 
HETATM   26  C3    D T1001      -8.259  -8.964  -8.329  1.00 37.95    -0.002 A 
HETATM   27  C4    D T1001      -7.279 -10.045  -8.345  1.00 38.26     0.015 A 
HETATM   28  C5    D T1001      -5.987  -9.839  -7.651  1.00 37.89     0.070 A 
HETATM   29  C6    D T1001      -5.778  -8.594  -7.007  1.00 37.86     0.008 A 
BRANCH  27  30
HETATM   30  C11   D T1001      -7.701 -11.338  -9.108  1.00 37.72     0.277 C 
BRANCH  30  31
HETATM   31  N12   D T1001      -9.080 -11.447  -9.658  1.00 39.41     0.143 N 
HETATM   32  C13   D T1001      -9.710 -12.779  -9.565  1.00 38.92     0.253 C 
HETATM   33  C14   D T1001     -10.215 -13.076 -10.982  1.00 38.65     0.071 C 
HETATM   34  C15   D T1001     -10.486 -11.639 -11.491  1.00 38.81     0.255 C 
HETATM   35  C16   D T1001      -9.189 -10.995 -11.071  1.00 38.57     0.284 C 
BRANCH  34  36
HETATM   36  N17   D T1001     -10.807 -11.492 -12.981  1.00 39.14     0.141 N 
HETATM   37  C18   D T1001     -12.019 -12.191 -13.459  1.00 39.06     0.285 C 
HETATM   38  C19   D T1001     -10.845 -10.032 -13.355  1.00 38.52     0.285 C 
ENDBRANCH  34  36
ENDBRANCH  30  31
ENDBRANCH  27  30
BRANCH  28  39
HETATM   39  C7    D T1001      -4.820 -10.890  -7.571  1.00 38.38     0.418 C 
HETATM   40  F8    D T1001      -4.454 -11.252  -8.832  1.00 39.18    -0.166 F 
HETATM   41  F9    D T1001      -5.212 -11.998  -6.892  1.00 37.72    -0.166 F 
HETATM   42  F10   D T1001      -3.684 -10.377  -6.999  1.00 39.32    -0.166 F 
ENDBRANCH  28  39
ENDBRANCH   2  24
TORSDOF 8
ENDMDL
MODEL 8
REMARK VINA RESULT:    -8.822      3.043     11.931
REMARK INTER + INTRA:         -13.846
REMARK INTER:                 -12.559
REMARK INTRA:                  -1.286
REMARK UNBOUND:                -0.898
REMARK  8 active torsions:
REMARK  status: ('A' for Active; 'I' for Inactive)
REMARK    1  A    between atoms: C1_1  and  C41_41 
REMARK    2  A    between atoms: C4_4  and  C11_11 
REMARK    3  A    between atoms: C5_5  and  C7_7 
REMARK    4  A    between atoms: C11_11  and  N12_12 
REMARK    5  A    between atoms: C15_15  and  N17_17 
REMARK    6  A    between atoms: C28_28  and  N32_32 
REMARK    7  A    between atoms: N32_32  and  C38_38 
REMARK    8  A    between atoms: C34_34  and  N40_40 
REMARK       I    between atoms: N40_40  and  C41_41 
ROOT
HETATM    1  N40   D T1001      -6.929   0.270  -6.426  1.00 37.15    -0.208 NA
HETATM    2  C41   D T1001      -7.738   0.703  -7.393  1.00 37.79     0.279 C 
HETATM    3  O42   D T1001      -7.766   0.141  -8.489  1.00 38.78    -0.265 OA
ENDROOT
BRANCH   1   4
HETATM    4  C34   D T1001      -6.157  -0.935  -6.264  1.00 37.97     0.086 A 
HETATM    5  C33   D T1001      -6.743  -2.230  -5.984  1.00 37.70     0.039 A 
HETATM    6  C38   D T1001      -5.918  -3.359  -5.843  1.00 38.49     0.097 A 
HETATM    7  C37   D T1001      -4.507  -3.258  -5.973  1.00 38.20    -0.004 A 
HETATM    8  C36   D T1001      -3.919  -1.983  -6.249  1.00 37.87    -0.001 A 
HETATM    9  C39   D T1001      -3.533  -4.427  -5.841  1.00 38.08     0.033 C 
HETATM   10  C35   D T1001      -4.752  -0.824  -6.394  1.00 37.80     0.019 A 
BRANCH   6  11
HETATM   11  N32   D T1001      -6.534  -4.584  -5.584  1.00 38.25    -0.060 NA
BRANCH  11  12
HETATM   12  C28   D T1001      -7.352  -5.328  -6.424  1.00 38.40     0.750 A 
HETATM   13  N27   D T1001      -6.938  -6.564  -6.663  1.00 38.34    -0.063 NA
HETATM   14  C26   D T1001      -7.663  -7.398  -7.483  1.00 38.69     0.086 A 
HETATM   15  C24   D T1001      -7.189  -8.695  -7.712  1.00 38.59     0.053 A 
HETATM   16  C31   D T1001      -8.906  -6.874  -8.097  1.00 38.28     0.094 A 
HETATM   17  C23   D T1001      -5.935  -9.199  -7.105  1.00 37.81     0.103 A 
HETATM   18  C25   D T1001      -7.826  -9.721  -8.549  1.00 38.35     0.103 A 
HETATM   19  N22   D T1001      -5.453 -10.455  -7.310  1.00 38.06    -0.223 NA
HETATM   20  C21   D T1001      -6.165 -11.265  -8.104  1.00 38.54     0.199 A 
HETATM   21  N20   D T1001      -7.319 -10.962  -8.726  1.00 38.22    -0.223 NA
HETATM   22  C30   D T1001      -9.238  -5.532  -7.767  1.00 38.37     0.098 A 
HETATM   23  N29   D T1001      -8.444  -4.777  -6.934  1.00 38.67    -0.062 NA
ENDBRANCH  11  12
ENDBRANCH   6  11
ENDBRANCH   1   4
BRANCH   2  24
HETATM   24  C1    D T1001      -8.612   1.896  -7.180  1.00 38.65     0.058 A 
HETATM   25  C2    D T1001     -10.042   1.878  -7.145  1.00 37.93     0.004 A 
HETATM   26  C3    D T1001     -10.770   3.067  -6.928  1.00 37.95    -0.002 A 
HETATM   27  C4    D T1001     -10.091   4.342  -6.725  1.00 38.26     0.015 A 
HETATM   28  C5    D T1001      -8.610   4.369  -6.757  1.00 37.89     0.070 A 
HETATM   29  C6    D T1001      -7.936   3.144  -6.986  1.00 37.86     0.008 A 
BRANCH  27  30
HETATM   30  C11   D T1001     -11.014   5.577  -6.489  1.00 37.72     0.277 C 
BRANCH  30  31
HETATM   31  N12   D T1001     -11.386   5.959  -5.100  1.00 39.41     0.143 N 
HETATM   32  C13   D T1001     -10.702   5.219  -4.020  1.00 38.92     0.253 C 
HETATM   33  C14   D T1001     -11.829   4.731  -3.102  1.00 38.65     0.071 C 
HETATM   34  C15   D T1001     -12.882   5.842  -3.332  1.00 38.81     0.255 C 
HETATM   35  C16   D T1001     -12.849   5.886  -4.839  1.00 38.57     0.284 C 
BRANCH  34  36
HETATM   36  N17   D T1001     -14.273   5.598  -2.740  1.00 39.14     0.141 N 
HETATM   37  C18   D T1001     -14.938   4.339  -3.135  1.00 39.06     0.285 C 
HETATM   38  C19   D T1001     -14.220   5.730  -1.239  1.00 38.52     0.285 C 
ENDBRANCH  34  36
ENDBRANCH  30  31
ENDBRANCH  27  30
BRANCH  28  39
HETATM   39  C7    D T1001      -7.719   5.649  -6.554  1.00 38.38     0.418 C 
HETATM   40  F8    D T1001      -6.406   5.290  -6.575  1.00 39.18    -0.166 F 
HETATM   41  F9    D T1001      -7.994   6.246  -5.367  1.00 37.72    -0.166 F 
HETATM   42  F10   D T1001      -7.861   6.559  -7.571  1.00 39.32    -0.166 F 
ENDBRANCH  28  39
ENDBRANCH   2  24
TORSDOF 8
ENDMDL
MODEL 9
REMARK VINA RESULT:    -8.802     18.536     21.372
REMARK INTER + INTRA:         -13.817
REMARK INTER:                 -12.357
REMARK INTRA:                  -1.461
REMARK UNBOUND:                -0.898
REMARK  8 active torsions:
REMARK  status: ('A' for Active; 'I' for Inactive)
REMARK    1  A    between atoms: C1_1  and  C41_41 
REMARK    2  A    between atoms: C4_4  and  C11_11 
REMARK    3  A    between atoms: C5_5  and  C7_7 
REMARK    4  A    between atoms: C11_11  and  N12_12 
REMARK    5  A    between atoms: C15_15  and  N17_17 
REMARK    6  A    between atoms: C28_28  and  N32_32 
REMARK    7  A    between atoms: N32_32  and  C38_38 
REMARK    8  A    between atoms: C34_34  and  N40_40 
REMARK       I    between atoms: N40_40  and  C41_41 
ROOT
HETATM    1  N40   D T1001       8.809  -9.035  -4.826  1.00 37.15    -0.208 NA
HETATM    2  C41   D T1001       9.257  -7.780  -4.801  1.00 37.79     0.279 C 
HETATM    3  O42   D T1001       8.672  -6.915  -4.147  1.00 38.78    -0.265 OA
ENDROOT
BRANCH   1   4
HETATM    4  C34   D T1001       7.834  -9.741  -4.035  1.00 37.97     0.086 A 
HETATM    5  C33   D T1001       7.979  -9.982  -2.613  1.00 37.70     0.039 A 
HETATM    6  C38   D T1001       6.979 -10.677  -1.912  1.00 38.49     0.097 A 
HETATM    7  C37   D T1001       5.815 -11.153  -2.574  1.00 38.20    -0.004 A 
HETATM    8  C36   D T1001       5.663 -10.920  -3.977  1.00 37.87    -0.001 A 
HETATM    9  C39   D T1001       4.676 -11.913  -1.897  1.00 38.08     0.033 C 
HETATM   10  C35   D T1001       6.679 -10.211  -4.702  1.00 37.80     0.019 A 
BRANCH   6  11
HETATM   11  N32   D T1001       7.164 -10.873  -0.543  1.00 38.25    -0.060 NA
BRANCH  11  12
HETATM   12  C28   D T1001       8.137 -10.321   0.279  1.00 38.40     0.750 A 
HETATM   13  N27   D T1001       7.887  -9.089   0.698  1.00 38.34    -0.063 NA
HETATM   14  C26   D T1001       8.779  -8.434   1.517  1.00 38.69     0.086 A 
HETATM   15  C24   D T1001       8.478  -7.133   1.935  1.00 38.59     0.053 A 
HETATM   16  C31   D T1001      10.025  -9.137   1.903  1.00 38.28     0.094 A 
HETATM   17  C23   D T1001       7.237  -6.436   1.526  1.00 37.81     0.103 A 
HETATM   18  C25   D T1001       9.302  -6.285   2.808  1.00 38.35     0.103 A 
HETATM   19  N22   D T1001       6.920  -5.173   1.918  1.00 38.06    -0.223 NA
HETATM   20  C21   D T1001       7.788  -4.541   2.720  1.00 38.54     0.199 A 
HETATM   21  N20   D T1001       8.952  -5.033   3.180  1.00 38.22    -0.223 NA
HETATM   22  C30   D T1001      10.178 -10.451   1.384  1.00 38.37     0.098 A 
HETATM   23  N29   D T1001       9.225 -11.020   0.569  1.00 38.67    -0.062 NA
ENDBRANCH  11  12
ENDBRANCH   6  11
ENDBRANCH   1   4
BRANCH   2  24
HETATM   24  C1    D T1001      10.465  -7.385  -5.586  1.00 38.65     0.058 A 
HETATM   25  C2    D T1001      11.755  -7.101  -5.035  1.00 37.93     0.004 A 
HETATM   26  C3    D T1001      12.832  -6.745  -5.873  1.00 37.95    -0.002 A 
HETATM   27  C4    D T1001      12.667  -6.662  -7.320  1.00 38.26     0.015 A 
HETATM   28  C5    D T1001      11.336  -6.956  -7.900  1.00 37.89     0.070 A 
HETATM   29  C6    D T1001      10.293  -7.303  -7.006  1.00 37.86     0.008 A 
BRANCH  27  30
HETATM   30  C11   D T1001      13.939  -6.263  -8.130  1.00 37.72     0.277 C 
BRANCH  30  31
HETATM   31  N12   D T1001      14.252  -4.823  -8.341  1.00 39.41     0.143 N 
HETATM   32  C13   D T1001      13.485  -3.867  -7.517  1.00 38.92     0.253 C 
HETATM   33  C14   D T1001      12.928  -2.845  -8.515  1.00 38.65     0.071 C 
HETATM   34  C15   D T1001      14.019  -2.898  -9.612  1.00 38.81     0.255 C 
HETATM   35  C16   D T1001      14.129  -4.394  -9.760  1.00 38.57     0.284 C 
BRANCH  34  36
HETATM   36  N17   D T1001      13.713  -2.157 -10.916  1.00 39.14     0.141 N 
HETATM   37  C18   D T1001      12.818  -2.851 -11.866  1.00 39.06     0.285 C 
HETATM   38  C19   D T1001      13.203  -0.772 -10.609  1.00 38.52     0.285 C 
ENDBRANCH  34  36
ENDBRANCH  30  31
ENDBRANCH  27  30
BRANCH  28  39
HETATM   39  C7    D T1001      10.983  -6.920  -9.432  1.00 38.38     0.418 C 
HETATM   40  F8    D T1001       9.630  -6.900  -9.581  1.00 39.18    -0.166 F 
HETATM   41  F9    D T1001      11.481  -8.010 -10.068  1.00 37.72    -0.166 F 
HETATM   42  F10   D T1001      11.431  -5.781 -10.051  1.00 39.32    -0.166 F 
ENDBRANCH  28  39
ENDBRANCH   2  24
TORSDOF 8
ENDMDL
