MODEL 1
REMARK VINA RESULT:    -9.945      0.000      0.000
REMARK INTER + INTRA:         -14.922
REMARK INTER:                 -14.597
REMARK INTRA:                  -0.326
REMARK UNBOUND:                -0.326
REMARK  8 active torsions:
REMARK  status: ('A' for Active; 'I' for Inactive)
REMARK    1  A    between atoms: C1_1  and  C41_41 
REMARK    2  A    between atoms: C4_4  and  C11_11 
REMARK    3  A    between atoms: C5_5  and  C7_7 
REMARK    4  A    between atoms: C11_11  and  N12_12 
REMARK    5  A    between atoms: C15_15  and  N17_17 
REMARK    6  A    between atoms: C28_28  and  N32_32 
REMARK    7  A    between atoms: N32_32  and  C38_38 
REMARK    8  A    between atoms: C34_34  and  N40_40 
REMARK       I    between atoms: N40_40  and  C41_41 
ROOT
HETATM    1  N40   D T1001       3.611   9.562   4.591  1.00 37.15    -0.208 NA
HETATM    2  C41   D T1001       2.490   9.478   5.307  1.00 37.79     0.279 C 
HETATM    3  O42   D T1001       1.549  10.245   5.097  1.00 38.78    -0.265 OA
ENDROOT
BRANCH   1   4
HETATM    4  C34   D T1001       3.945  10.262   3.378  1.00 37.97     0.086 A 
HETATM    5  C33   D T1001       3.117  10.242   2.188  1.00 37.70     0.039 A 
HETATM    6  C38   D T1001       3.515  10.956   1.044  1.00 38.49     0.097 A 
HETATM    7  C37   D T1001       4.721  11.705   1.029  1.00 38.20    -0.004 A 
HETATM    8  C36   D T1001       5.544  11.731   2.198  1.00 37.87    -0.001 A 
HETATM    9  C39   D T1001       5.230  12.513  -0.164  1.00 38.08     0.033 C 
HETATM   10  C35   D T1001       5.149  11.005   3.372  1.00 37.80     0.019 A 
BRANCH   6  11
HETATM   11  N32   D T1001       2.676  10.910  -0.072  1.00 38.25    -0.060 NA
BRANCH  11  12
HETATM   12  C28   D T1001       1.922  11.939  -0.620  1.00 38.40     0.750 A 
HETATM   13  N27   D T1001       2.387  12.431  -1.758  1.00 38.34    -0.063 NA
HETATM   14  C26   D T1001       1.728  13.456  -2.397  1.00 38.69     0.086 A 
HETATM   15  C24   D T1001       2.253  13.950  -3.598  1.00 38.59     0.053 A 
HETATM   16  C31   D T1001       0.498  13.999  -1.774  1.00 38.28     0.094 A 
HETATM   17  C23   D T1001       3.494  13.410  -4.202  1.00 37.81     0.103 A 
HETATM   18  C25   D T1001       1.689  15.030  -4.418  1.00 38.35     0.103 A 
HETATM   19  N22   D T1001       4.025  13.870  -5.365  1.00 38.06    -0.223 NA
HETATM   20  C21   D T1001       3.376  14.864  -5.987  1.00 38.54     0.199 A 
HETATM   21  N20   D T1001       2.243  15.459  -5.574  1.00 38.22    -0.223 NA
HETATM   22  C30   D T1001       0.107  13.390  -0.551  1.00 38.37     0.098 A 
HETATM   23  N29   D T1001       0.837  12.367   0.011  1.00 38.67    -0.062 NA
ENDBRANCH  11  12
ENDBRANCH   6  11
ENDBRANCH   1   4
BRANCH   2  24
HETATM   24  C1    D T1001       2.356   8.468   6.400  1.00 38.65     0.058 A 
HETATM   25  C2    D T1001       3.306   8.254   7.449  1.00 37.93     0.004 A 
HETATM   26  C3    D T1001       3.075   7.275   8.439  1.00 37.95    -0.002 A 
HETATM   27  C4    D T1001       1.864   6.462   8.428  1.00 38.26     0.015 A 
HETATM   28  C5    D T1001       0.874   6.679   7.347  1.00 37.89     0.070 A 
HETATM   29  C6    D T1001       1.165   7.672   6.379  1.00 37.86     0.008 A 
BRANCH  27  30
HETATM   30  C11   D T1001       1.729   5.422   9.583  1.00 37.72     0.277 C 
BRANCH  30  31
HETATM   31  N12   D T1001       2.727   4.324   9.700  1.00 39.41     0.143 N 
HETATM   32  C13   D T1001       2.694   3.553  10.959  1.00 38.92     0.253 C 
HETATM   33  C14   D T1001       4.144   3.551  11.456  1.00 38.65     0.071 C 
HETATM   34  C15   D T1001       4.904   3.645  10.111  1.00 38.81     0.255 C 
HETATM   35  C16   D T1001       4.127   4.774   9.483  1.00 38.57     0.284 C 
BRANCH  34  36
HETATM   36  N17   D T1001       6.413   3.889  10.195  1.00 39.14     0.141 N 
HETATM   37  C18   D T1001       6.950   4.964   9.334  1.00 39.06     0.285 C 
HETATM   38  C19   D T1001       6.818   4.097  11.633  1.00 38.52     0.285 C 
ENDBRANCH  34  36
ENDBRANCH  30  31
ENDBRANCH  27  30
BRANCH  28  39
HETATM   39  C7    D T1001      -0.482   5.900   7.186  1.00 38.38     0.418 C 
HETATM   40  F8    D T1001      -0.223   4.573   7.022  1.00 39.18    -0.166 F 
HETATM   41  F9    D T1001      -1.172   6.350   6.108  1.00 37.72    -0.166 F 
HETATM   42  F10   D T1001      -1.273   5.978   8.304  1.00 39.32    -0.166 F 
ENDBRANCH  28  39
ENDBRANCH   2  24
TORSDOF 8
ENDMDL
MODEL 2
REMARK VINA RESULT:    -9.920      3.531     13.588
REMARK INTER + INTRA:         -14.886
REMARK INTER:                 -13.942
REMARK INTRA:                  -0.944
REMARK UNBOUND:                -0.326
REMARK  8 active torsions:
REMARK  status: ('A' for Active; 'I' for Inactive)
REMARK    1  A    between atoms: C1_1  and  C41_41 
REMARK    2  A    between atoms: C4_4  and  C11_11 
REMARK    3  A    between atoms: C5_5  and  C7_7 
REMARK    4  A    between atoms: C11_11  and  N12_12 
REMARK    5  A    between atoms: C15_15  and  N17_17 
REMARK    6  A    between atoms: C28_28  and  N32_32 
REMARK    7  A    between atoms: N32_32  and  C38_38 
REMARK    8  A    between atoms: C34_34  and  N40_40 
REMARK       I    between atoms: N40_40  and  C41_41 
ROOT
HETATM    1  N40   D T1001       3.151  10.260   1.772  1.00 37.15    -0.208 NA
HETATM    2  C41   D T1001       2.714  11.508   1.609  1.00 37.79     0.279 C 
HETATM    3  O42   D T1001       2.324  12.170   2.571  1.00 38.78    -0.265 OA
ENDROOT
BRANCH   1   4
HETATM    4  C34   D T1001       3.505   9.493   2.938  1.00 37.97     0.086 A 
HETATM    5  C33   D T1001       2.683   9.424   4.130  1.00 37.70     0.039 A 
HETATM    6  C38   D T1001       3.100   8.648   5.226  1.00 38.49     0.097 A 
HETATM    7  C37   D T1001       4.319   7.921   5.190  1.00 38.20    -0.004 A 
HETATM    8  C36   D T1001       5.136   7.983   4.017  1.00 37.87    -0.001 A 
HETATM    9  C39   D T1001       4.850   7.051   6.328  1.00 38.08     0.033 C 
HETATM   10  C35   D T1001       4.721   8.772   2.892  1.00 37.80     0.019 A 
BRANCH   6  11
HETATM   11  N32   D T1001       2.266   8.609   6.346  1.00 38.25    -0.060 NA
BRANCH  11  12
HETATM   12  C28   D T1001       1.450   7.570   6.772  1.00 38.40     0.750 A 
HETATM   13  N27   D T1001       1.956   6.816   7.734  1.00 38.34    -0.063 NA
HETATM   14  C26   D T1001       1.242   5.753   8.239  1.00 38.69     0.086 A 
HETATM   15  C24   D T1001       1.813   4.978   9.255  1.00 38.59     0.053 A 
HETATM   16  C31   D T1001      -0.097   5.471   7.668  1.00 38.28     0.094 A 
HETATM   17  C23   D T1001       3.161   5.260   9.804  1.00 37.81     0.103 A 
HETATM   18  C25   D T1001       1.203   3.815   9.914  1.00 38.35     0.103 A 
HETATM   19  N22   D T1001       3.739   4.524  10.790  1.00 38.06    -0.223 NA
HETATM   20  C21   D T1001       3.036   3.494  11.282  1.00 38.54     0.199 A 
HETATM   21  N20   D T1001       1.807   3.109  10.896  1.00 38.22    -0.223 NA
HETATM   22  C30   D T1001      -0.525   6.351   6.637  1.00 38.37     0.098 A 
HETATM   23  N29   D T1001       0.267   7.389   6.200  1.00 38.67    -0.062 NA
ENDBRANCH  11  12
ENDBRANCH   6  11
ENDBRANCH   1   4
BRANCH   2  24
HETATM   24  C1    D T1001       2.663  12.128   0.250  1.00 38.65     0.058 A 
HETATM   25  C2    D T1001       3.798  12.583  -0.494  1.00 37.93     0.004 A 
HETATM   26  C3    D T1001       3.636  13.148  -1.777  1.00 37.95    -0.002 A 
HETATM   27  C4    D T1001       2.315  13.276  -2.384  1.00 38.26     0.015 A 
HETATM   28  C5    D T1001       1.136  12.805  -1.621  1.00 37.89     0.070 A 
HETATM   29  C6    D T1001       1.362  12.253  -0.337  1.00 37.86     0.008 A 
BRANCH  27  30
HETATM   30  C11   D T1001       2.278  13.911  -3.809  1.00 37.72     0.277 C 
BRANCH  30  31
HETATM   31  N12   D T1001       2.214  15.391  -3.950  1.00 39.41     0.143 N 
HETATM   32  C13   D T1001       2.003  16.149  -2.700  1.00 38.92     0.253 C 
HETATM   33  C14   D T1001       0.830  17.089  -3.004  1.00 38.65     0.071 C 
HETATM   34  C15   D T1001       1.016  17.289  -4.528  1.00 38.81     0.255 C 
HETATM   35  C16   D T1001       1.195  15.848  -4.932  1.00 38.57     0.284 C 
BRANCH  34  36
HETATM   36  N17   D T1001      -0.113  18.014  -5.264  1.00 39.14     0.141 N 
HETATM   37  C18   D T1001      -0.026  19.489  -5.305  1.00 39.06     0.285 C 
HETATM   38  C19   D T1001      -0.268  17.444  -6.652  1.00 38.52     0.285 C 
ENDBRANCH  34  36
ENDBRANCH  30  31
ENDBRANCH  27  30
BRANCH  28  39
HETATM   39  C7    D T1001      -0.353  12.862  -2.123  1.00 38.38     0.418 C 
HETATM   40  F8    D T1001      -0.542  14.000  -2.846  1.00 39.18    -0.166 F 
HETATM   41  F9    D T1001      -1.216  12.857  -1.076  1.00 37.72    -0.166 F 
HETATM   42  F10   D T1001      -0.663  11.834  -2.979  1.00 39.32    -0.166 F 
ENDBRANCH  28  39
ENDBRANCH   2  24
TORSDOF 8
ENDMDL
MODEL 3
REMARK VINA RESULT:    -9.543      3.435     13.407
REMARK INTER + INTRA:         -14.331
REMARK INTER:                 -13.069
REMARK INTRA:                  -1.262
REMARK UNBOUND:                -0.326
REMARK  8 active torsions:
REMARK  status: ('A' for Active; 'I' for Inactive)
REMARK    1  A    between atoms: C1_1  and  C41_41 
REMARK    2  A    between atoms: C4_4  and  C11_11 
REMARK    3  A    between atoms: C5_5  and  C7_7 
REMARK    4  A    between atoms: C11_11  and  N12_12 
REMARK    5  A    between atoms: C15_15  and  N17_17 
REMARK    6  A    between atoms: C28_28  and  N32_32 
REMARK    7  A    between atoms: N32_32  and  C38_38 
REMARK    8  A    between atoms: C34_34  and  N40_40 
REMARK       I    between atoms: N40_40  and  C41_41 
ROOT
HETATM    1  N40   D T1001       4.771  10.396   1.950  1.00 37.15    -0.208 NA
HETATM    2  C41   D T1001       3.632  10.622   1.295  1.00 37.79     0.279 C 
HETATM    3  O42   D T1001       2.625   9.955   1.534  1.00 38.78    -0.265 OA
ENDROOT
BRANCH   1   4
HETATM    4  C34   D T1001       5.086   9.628   3.125  1.00 37.97     0.086 A 
HETATM    5  C33   D T1001       4.277   9.637   4.328  1.00 37.70     0.039 A 
HETATM    6  C38   D T1001       4.654   8.855   5.434  1.00 38.49     0.097 A 
HETATM    7  C37   D T1001       5.820   8.044   5.397  1.00 38.20    -0.004 A 
HETATM    8  C36   D T1001       6.624   8.029   4.215  1.00 37.87    -0.001 A 
HETATM    9  C39   D T1001       6.303   7.161   6.545  1.00 38.08     0.033 C 
HETATM   10  C35   D T1001       6.249   8.824   3.080  1.00 37.80     0.019 A 
BRANCH   6  11
HETATM   11  N32   D T1001       3.834   8.894   6.564  1.00 38.25    -0.060 NA
BRANCH  11  12
HETATM   12  C28   D T1001       2.712   8.123   6.837  1.00 38.40     0.750 A 
HETATM   13  N27   D T1001       2.885   7.182   7.752  1.00 38.34    -0.063 NA
HETATM   14  C26   D T1001       1.847   6.352   8.107  1.00 38.69     0.086 A 
HETATM   15  C24   D T1001       2.071   5.368   9.078  1.00 38.59     0.053 A 
HETATM   16  C31   D T1001       0.540   6.531   7.430  1.00 38.28     0.094 A 
HETATM   17  C23   D T1001       3.388   5.188   9.734  1.00 37.81     0.103 A 
HETATM   18  C25   D T1001       1.089   4.400   9.583  1.00 38.35     0.103 A 
HETATM   19  N22   D T1001       3.633   4.242  10.679  1.00 38.06    -0.223 NA
HETATM   20  C21   D T1001       2.617   3.440  11.025  1.00 38.54     0.199 A 
HETATM   21  N20   D T1001       1.368   3.475  10.528  1.00 38.22    -0.223 NA
HETATM   22  C30   D T1001       0.485   7.571   6.464  1.00 38.37     0.098 A 
HETATM   23  N29   D T1001       1.584   8.350   6.178  1.00 38.67    -0.062 NA
ENDBRANCH  11  12
ENDBRANCH   6  11
ENDBRANCH   1   4
BRANCH   2  24
HETATM   24  C1    D T1001       3.556  11.674   0.236  1.00 38.65     0.058 A 
HETATM   25  C2    D T1001       4.626  12.547  -0.141  1.00 37.93     0.004 A 
HETATM   26  C3    D T1001       4.446  13.503  -1.164  1.00 37.95    -0.002 A 
HETATM   27  C4    D T1001       3.176  13.623  -1.870  1.00 38.26     0.015 A 
HETATM   28  C5    D T1001       2.064  12.721  -1.488  1.00 37.89     0.070 A 
HETATM   29  C6    D T1001       2.303  11.787  -0.450  1.00 37.86     0.008 A 
BRANCH  27  30
HETATM   30  C11   D T1001       3.114  14.714  -2.984  1.00 37.72     0.277 C 
BRANCH  30  31
HETATM   31  N12   D T1001       2.956  14.301  -4.405  1.00 39.41     0.143 N 
HETATM   32  C13   D T1001       3.887  13.260  -4.882  1.00 38.92     0.253 C 
HETATM   33  C14   D T1001       4.485  13.828  -6.174  1.00 38.65     0.071 C 
HETATM   34  C15   D T1001       3.316  14.723  -6.655  1.00 38.81     0.255 C 
HETATM   35  C16   D T1001       3.023  15.438  -5.361  1.00 38.57     0.284 C 
BRANCH  34  36
HETATM   36  N17   D T1001       3.609  15.653  -7.835  1.00 39.14     0.141 N 
HETATM   37  C18   D T1001       2.463  15.979  -8.711  1.00 39.06     0.285 C 
HETATM   38  C19   D T1001       4.285  16.908  -7.343  1.00 38.52     0.285 C 
ENDBRANCH  34  36
ENDBRANCH  30  31
ENDBRANCH  27  30
BRANCH  28  39
HETATM   39  C7    D T1001       0.636  12.709  -2.145  1.00 38.38     0.418 C 
HETATM   40  F8    D T1001      -0.253  12.146  -1.280  1.00 39.18    -0.166 F 
HETATM   41  F9    D T1001       0.641  11.994  -3.298  1.00 37.72    -0.166 F 
HETATM   42  F10   D T1001       0.155  13.971  -2.388  1.00 39.32    -0.166 F 
ENDBRANCH  28  39
ENDBRANCH   2  24
TORSDOF 8
ENDMDL
MODEL 4
REMARK VINA RESULT:    -9.499      3.119     12.009
REMARK INTER + INTRA:         -14.268
REMARK INTER:                 -13.438
REMARK INTRA:                  -0.830
REMARK UNBOUND:                -0.326
REMARK  8 active torsions:
REMARK  status: ('A' for Active; 'I' for Inactive)
REMARK    1  A    between atoms: C1_1  and  C41_41 
REMARK    2  A    between atoms: C4_4  and  C11_11 
REMARK    3  A    between atoms: C5_5  and  C7_7 
REMARK    4  A    between atoms: C11_11  and  N12_12 
REMARK    5  A    between atoms: C15_15  and  N17_17 
REMARK    6  A    between atoms: C28_28  and  N32_32 
REMARK    7  A    between atoms: N32_32  and  C38_38 
REMARK    8  A    between atoms: C34_34  and  N40_40 
REMARK       I    between atoms: N40_40  and  C41_41 
ROOT
HETATM    1  N40   D T1001       1.065   8.491   5.193  1.00 37.15    -0.208 NA
HETATM    2  C41   D T1001       2.196   9.192   5.265  1.00 37.79     0.279 C 
HETATM    3  O42   D T1001       2.885   9.172   6.286  1.00 38.78    -0.265 OA
ENDROOT
BRANCH   1   4
HETATM    4  C34   D T1001       0.502   7.455   6.019  1.00 37.97     0.086 A 
HETATM    5  C33   D T1001       1.047   7.075   7.307  1.00 37.70     0.039 A 
HETATM    6  C38   D T1001       0.435   6.053   8.054  1.00 38.49     0.097 A 
HETATM    7  C37   D T1001      -0.718   5.380   7.570  1.00 38.20    -0.004 A 
HETATM    8  C36   D T1001      -1.263   5.748   6.300  1.00 37.87    -0.001 A 
HETATM    9  C39   D T1001      -1.451   4.263   8.312  1.00 38.08     0.033 C 
HETATM   10  C35   D T1001      -0.646   6.790   5.529  1.00 37.80     0.019 A 
BRANCH   6  11
HETATM   11  N32   D T1001       0.995   5.732   9.293  1.00 38.25    -0.060 NA
BRANCH  11  12
HETATM   12  C28   D T1001       2.158   5.019   9.550  1.00 38.40     0.750 A 
HETATM   13  N27   D T1001       3.223   5.419   8.874  1.00 38.34    -0.063 NA
HETATM   14  C26   D T1001       4.435   4.788   9.042  1.00 38.69     0.086 A 
HETATM   15  C24   D T1001       5.538   5.240   8.308  1.00 38.59     0.053 A 
HETATM   16  C31   D T1001       4.510   3.646   9.985  1.00 38.28     0.094 A 
HETATM   17  C23   D T1001       5.445   6.371   7.354  1.00 37.81     0.103 A 
HETATM   18  C25   D T1001       6.902   4.697   8.357  1.00 38.35     0.103 A 
HETATM   19  N22   D T1001       6.500   6.831   6.629  1.00 38.06    -0.223 NA
HETATM   20  C21   D T1001       7.679   6.217   6.801  1.00 38.54     0.199 A 
HETATM   21  N20   D T1001       7.928   5.183   7.624  1.00 38.22    -0.223 NA
HETATM   22  C30   D T1001       3.296   3.312  10.643  1.00 38.37     0.098 A 
HETATM   23  N29   D T1001       2.130   4.006  10.406  1.00 38.67    -0.062 NA
ENDBRANCH  11  12
ENDBRANCH   6  11
ENDBRANCH   1   4
BRANCH   2  24
HETATM   24  C1    D T1001       2.644  10.040   4.120  1.00 38.65     0.058 A 
HETATM   25  C2    D T1001       1.970  11.209   3.643  1.00 37.93     0.004 A 
HETATM   26  C3    D T1001       2.488  11.942   2.553  1.00 37.95    -0.002 A 
HETATM   27  C4    D T1001       3.723  11.539   1.890  1.00 38.26     0.015 A 
HETATM   28  C5    D T1001       4.428  10.331   2.379  1.00 37.89     0.070 A 
HETATM   29  C6    D T1001       3.856   9.634   3.472  1.00 37.86     0.008 A 
BRANCH  27  30
HETATM   30  C11   D T1001       4.188  12.441   0.705  1.00 37.72     0.277 C 
BRANCH  30  31
HETATM   31  N12   D T1001       3.655  12.188  -0.661  1.00 39.41     0.143 N 
HETATM   32  C13   D T1001       3.899  13.251  -1.656  1.00 38.92     0.253 C 
HETATM   33  C14   D T1001       2.525  13.532  -2.276  1.00 38.65     0.071 C 
HETATM   34  C15   D T1001       1.857  12.144  -2.122  1.00 38.81     0.255 C 
HETATM   35  C16   D T1001       2.200  11.879  -0.679  1.00 38.57     0.284 C 
BRANCH  34  36
HETATM   36  N17   D T1001       0.361  12.068  -2.438  1.00 39.14     0.141 N 
HETATM   37  C18   D T1001      -0.196  10.714  -2.646  1.00 39.06     0.285 C 
HETATM   38  C19   D T1001      -0.422  12.817  -1.388  1.00 38.52     0.285 C 
ENDBRANCH  34  36
ENDBRANCH  30  31
ENDBRANCH  27  30
BRANCH  28  39
HETATM   39  C7    D T1001       5.767   9.758   1.788  1.00 38.38     0.418 C 
HETATM   40  F8    D T1001       6.790  10.608   2.083  1.00 39.18    -0.166 F 
HETATM   41  F9    D T1001       5.682   9.624   0.441  1.00 37.72    -0.166 F 
HETATM   42  F10   D T1001       6.122   8.557   2.349  1.00 39.32    -0.166 F 
ENDBRANCH  28  39
ENDBRANCH   2  24
TORSDOF 8
ENDMDL
MODEL 5
REMARK VINA RESULT:    -9.450      1.702      2.204
REMARK INTER + INTRA:         -14.195
REMARK INTER:                 -13.909
REMARK INTRA:                  -0.286
REMARK UNBOUND:                -0.326
REMARK  8 active torsions:
REMARK  status: ('A' for Active; 'I' for Inactive)
REMARK    1  A    between atoms: C1_1  and  C41_41 
REMARK    2  A    between atoms: C4_4  and  C11_11 
REMARK    3  A    between atoms: C5_5  and  C7_7 
REMARK    4  A    between atoms: C11_11  and  N12_12 
REMARK    5  A    between atoms: C15_15  and  N17_17 
REMARK    6  A    between atoms: C28_28  and  N32_32 
REMARK    7  A    between atoms: N32_32  and  C38_38 
REMARK    8  A    between atoms: C34_34  and  N40_40 
REMARK       I    between atoms: N40_40  and  C41_41 
ROOT
HETATM    1  N40   D T1001       4.769   9.742   3.895  1.00 37.15    -0.208 NA
HETATM    2  C41   D T1001       3.501   9.730   4.305  1.00 37.79     0.279 C 
HETATM    3  O42   D T1001       2.654  10.434   3.753  1.00 38.78    -0.265 OA
ENDROOT
BRANCH   1   4
HETATM    4  C34   D T1001       5.411  10.270   2.720  1.00 37.97     0.086 A 
HETATM    5  C33   D T1001       4.723  11.059   1.717  1.00 37.70     0.039 A 
HETATM    6  C38   D T1001       5.425  11.541   0.599  1.00 38.49     0.097 A 
HETATM    7  C37   D T1001       6.809  11.272   0.429  1.00 38.20    -0.004 A 
HETATM    8  C36   D T1001       7.496  10.494   1.412  1.00 37.87    -0.001 A 
HETATM    9  C39   D T1001       7.652  11.756  -0.749  1.00 38.08     0.033 C 
HETATM   10  C35   D T1001       6.790   9.996   2.558  1.00 37.80     0.019 A 
BRANCH   6  11
HETATM   11  N32   D T1001       4.715  12.304  -0.332  1.00 38.25    -0.060 NA
BRANCH  11  12
HETATM   12  C28   D T1001       3.412  12.123  -0.774  1.00 38.40     0.750 A 
HETATM   13  N27   D T1001       2.831  13.204  -1.270  1.00 38.34    -0.063 NA
HETATM   14  C26   D T1001       1.538  13.150  -1.739  1.00 38.69     0.086 A 
HETATM   15  C24   D T1001       0.960  14.317  -2.255  1.00 38.59     0.053 A 
HETATM   16  C31   D T1001       0.814  11.859  -1.661  1.00 38.28     0.094 A 
HETATM   17  C23   D T1001       1.689  15.606  -2.310  1.00 37.81     0.103 A 
HETATM   18  C25   D T1001      -0.398  14.450  -2.800  1.00 38.35     0.103 A 
HETATM   19  N22   D T1001       1.152  16.752  -2.806  1.00 38.06    -0.223 NA
HETATM   20  C21   D T1001      -0.105  16.693  -3.267  1.00 38.54     0.199 A 
HETATM   21  N20   D T1001      -0.898  15.607  -3.289  1.00 38.22    -0.223 NA
HETATM   22  C30   D T1001       1.545  10.776  -1.103  1.00 38.37     0.098 A 
HETATM   23  N29   D T1001       2.840  10.932  -0.659  1.00 38.67    -0.062 NA
ENDBRANCH  11  12
ENDBRANCH   6  11
ENDBRANCH   1   4
BRANCH   2  24
HETATM   24  C1    D T1001       3.080   8.883   5.462  1.00 38.65     0.058 A 
HETATM   25  C2    D T1001       3.909   8.532   6.575  1.00 37.93     0.004 A 
HETATM   26  C3    D T1001       3.405   7.730   7.621  1.00 37.95    -0.002 A 
HETATM   27  C4    D T1001       2.030   7.244   7.604  1.00 38.26     0.015 A 
HETATM   28  C5    D T1001       1.164   7.605   6.457  1.00 37.89     0.070 A 
HETATM   29  C6    D T1001       1.729   8.408   5.435  1.00 37.86     0.008 A 
BRANCH  27  30
HETATM   30  C11   D T1001       1.598   6.374   8.825  1.00 37.72     0.277 C 
BRANCH  30  31
HETATM   31  N12   D T1001       2.188   5.019   9.003  1.00 39.41     0.143 N 
HETATM   32  C13   D T1001       1.456   4.111   9.908  1.00 38.92     0.253 C 
HETATM   33  C14   D T1001       2.517   3.587  10.883  1.00 38.65     0.071 C 
HETATM   34  C15   D T1001       3.778   3.651   9.987  1.00 38.81     0.255 C 
HETATM   35  C16   D T1001       3.608   5.046   9.443  1.00 38.57     0.284 C 
BRANCH  34  36
HETATM   36  N17   D T1001       5.121   3.405  10.679  1.00 39.14     0.141 N 
HETATM   37  C18   D T1001       6.269   4.189  10.177  1.00 39.06     0.285 C 
HETATM   38  C19   D T1001       4.966   3.572  12.171  1.00 38.52     0.285 C 
ENDBRANCH  34  36
ENDBRANCH  30  31
ENDBRANCH  27  30
BRANCH  28  39
HETATM   39  C7    D T1001      -0.337   7.175   6.280  1.00 38.38     0.418 C 
HETATM   40  F8    D T1001      -0.795   7.621   5.077  1.00 39.18    -0.166 F 
HETATM   41  F9    D T1001      -1.109   7.699   7.266  1.00 37.72    -0.166 F 
HETATM   42  F10   D T1001      -0.497   5.812   6.246  1.00 39.32    -0.166 F 
ENDBRANCH  28  39
ENDBRANCH   2  24
TORSDOF 8
ENDMDL
MODEL 6
REMARK VINA RESULT:    -9.384      3.358     13.705
REMARK INTER + INTRA:         -14.098
REMARK INTER:                 -13.464
REMARK INTRA:                  -0.635
REMARK UNBOUND:                -0.326
REMARK  8 active torsions:
REMARK  status: ('A' for Active; 'I' for Inactive)
REMARK    1  A    between atoms: C1_1  and  C41_41 
REMARK    2  A    between atoms: C4_4  and  C11_11 
REMARK    3  A    between atoms: C5_5  and  C7_7 
REMARK    4  A    between atoms: C11_11  and  N12_12 
REMARK    5  A    between atoms: C15_15  and  N17_17 
REMARK    6  A    between atoms: C28_28  and  N32_32 
REMARK    7  A    between atoms: N32_32  and  C38_38 
REMARK    8  A    between atoms: C34_34  and  N40_40 
REMARK       I    between atoms: N40_40  and  C41_41 
ROOT
HETATM    1  N40   D T1001       2.572   7.326   7.067  1.00 37.15    -0.208 NA
HETATM    2  C41   D T1001       3.520   7.410   6.135  1.00 37.79     0.279 C 
HETATM    3  O42   D T1001       4.436   6.588   6.091  1.00 38.78    -0.265 OA
ENDROOT
BRANCH   1   4
HETATM    4  C34   D T1001       2.206   6.291   7.998  1.00 37.97     0.086 A 
HETATM    5  C33   D T1001       3.135   5.697   8.940  1.00 37.70     0.039 A 
HETATM    6  C38   D T1001       2.697   4.692   9.819  1.00 38.49     0.097 A 
HETATM    7  C37   D T1001       1.350   4.241   9.807  1.00 38.20    -0.004 A 
HETATM    8  C36   D T1001       0.427   4.820   8.880  1.00 37.87    -0.001 A 
HETATM    9  C39   D T1001       0.784   3.159  10.725  1.00 38.08     0.033 C 
HETATM   10  C35   D T1001       0.863   5.847   7.978  1.00 37.80     0.019 A 
BRANCH   6  11
HETATM   11  N32   D T1001       3.629   4.161  10.713  1.00 38.25    -0.060 NA
BRANCH  11  12
HETATM   12  C28   D T1001       5.014   4.262  10.669  1.00 38.40     0.750 A 
HETATM   13  N27   D T1001       5.623   4.150  11.839  1.00 38.34    -0.063 NA
HETATM   14  C26   D T1001       6.993   4.236  11.925  1.00 38.69     0.086 A 
HETATM   15  C24   D T1001       7.599   4.113  13.181  1.00 38.59     0.053 A 
HETATM   16  C31   D T1001       7.763   4.469  10.680  1.00 38.28     0.094 A 
HETATM   17  C23   D T1001       6.817   3.898  14.421  1.00 37.81     0.103 A 
HETATM   18  C25   D T1001       9.040   4.174  13.465  1.00 38.35     0.103 A 
HETATM   19  N22   D T1001       7.379   3.776  15.653  1.00 38.06    -0.223 NA
HETATM   20  C21   D T1001       8.715   3.854  15.729  1.00 38.54     0.199 A 
HETATM   21  N20   D T1001       9.564   4.043  14.704  1.00 38.22    -0.223 NA
HETATM   22  C30   D T1001       6.992   4.577   9.491  1.00 38.37     0.098 A 
HETATM   23  N29   D T1001       5.619   4.478   9.510  1.00 38.67    -0.062 NA
ENDBRANCH  11  12
ENDBRANCH   6  11
ENDBRANCH   1   4
BRANCH   2  24
HETATM   24  C1    D T1001       3.511   8.520   5.135  1.00 38.65     0.058 A 
HETATM   25  C2    D T1001       2.460   9.479   4.973  1.00 37.93     0.004 A 
HETATM   26  C3    D T1001       2.558  10.495   3.997  1.00 37.95    -0.002 A 
HETATM   27  C4    D T1001       3.731  10.603   3.136  1.00 38.26     0.015 A 
HETATM   28  C5    D T1001       4.824   9.616   3.299  1.00 37.89     0.070 A 
HETATM   29  C6    D T1001       4.664   8.617   4.291  1.00 37.86     0.008 A 
BRANCH  27  30
HETATM   30  C11   D T1001       3.715  11.776   2.107  1.00 37.72     0.277 C 
BRANCH  30  31
HETATM   31  N12   D T1001       3.396  11.493   0.681  1.00 39.41     0.143 N 
HETATM   32  C13   D T1001       4.221  12.202  -0.318  1.00 38.92     0.253 C 
HETATM   33  C14   D T1001       3.212  12.845  -1.276  1.00 38.65     0.071 C 
HETATM   34  C15   D T1001       2.038  11.843  -1.164  1.00 38.81     0.255 C 
HETATM   35  C16   D T1001       1.969  11.732   0.338  1.00 38.57     0.284 C 
BRANCH  34  36
HETATM   36  N17   D T1001       0.721  12.257  -1.826  1.00 39.14     0.141 N 
HETATM   37  C18   D T1001      -0.006  11.196  -2.555  1.00 39.06     0.285 C 
HETATM   38  C19   D T1001      -0.174  12.924  -0.812  1.00 38.52     0.285 C 
ENDBRANCH  34  36
ENDBRANCH  30  31
ENDBRANCH  27  30
BRANCH  28  39
HETATM   39  C7    D T1001       6.155   9.588   2.464  1.00 38.38     0.418 C 
HETATM   40  F8    D T1001       5.857   9.406   1.147  1.00 39.18    -0.166 F 
HETATM   41  F9    D T1001       6.963   8.579   2.876  1.00 37.72    -0.166 F 
HETATM   42  F10   D T1001       6.839  10.777   2.518  1.00 39.32    -0.166 F 
ENDBRANCH  28  39
ENDBRANCH   2  24
TORSDOF 8
ENDMDL
MODEL 7
REMARK VINA RESULT:    -9.369      4.572     13.914
REMARK INTER + INTRA:         -14.076
REMARK INTER:                 -12.819
REMARK INTRA:                  -1.257
REMARK UNBOUND:                -0.326
REMARK  8 active torsions:
REMARK  status: ('A' for Active; 'I' for Inactive)
REMARK    1  A    between atoms: C1_1  and  C41_41 
REMARK    2  A    between atoms: C4_4  and  C11_11 
REMARK    3  A    between atoms: C5_5  and  C7_7 
REMARK    4  A    between atoms: C11_11  and  N12_12 
REMARK    5  A    between atoms: C15_15  and  N17_17 
REMARK    6  A    between atoms: C28_28  and  N32_32 
REMARK    7  A    between atoms: N32_32  and  C38_38 
REMARK    8  A    between atoms: C34_34  and  N40_40 
REMARK       I    between atoms: N40_40  and  C41_41 
ROOT
HETATM    1  N40   D T1001       2.995  11.607   0.818  1.00 37.15    -0.208 NA
HETATM    2  C41   D T1001       2.220  11.342  -0.234  1.00 37.79     0.279 C 
HETATM    3  O42   D T1001       1.938  10.181  -0.532  1.00 38.78    -0.265 OA
ENDROOT
BRANCH   1   4
HETATM    4  C34   D T1001       3.458  10.802   1.918  1.00 37.97     0.086 A 
HETATM    5  C33   D T1001       2.716  10.631   3.152  1.00 37.70     0.039 A 
HETATM    6  C38   D T1001       3.237   9.824   4.178  1.00 38.49     0.097 A 
HETATM    7  C37   D T1001       4.487   9.165   4.031  1.00 38.20    -0.004 A 
HETATM    8  C36   D T1001       5.225   9.328   2.817  1.00 37.87    -0.001 A 
HETATM    9  C39   D T1001       5.129   8.268   5.088  1.00 38.08     0.033 C 
HETATM   10  C35   D T1001       4.703  10.150   1.763  1.00 37.80     0.019 A 
BRANCH   6  11
HETATM   11  N32   D T1001       2.477   9.686   5.342  1.00 38.25    -0.060 NA
BRANCH  11  12
HETATM   12  C28   D T1001       1.510   8.731   5.626  1.00 38.40     0.750 A 
HETATM   13  N27   D T1001       1.807   7.908   6.620  1.00 38.34    -0.063 NA
HETATM   14  C26   D T1001       0.929   6.918   6.994  1.00 38.69     0.086 A 
HETATM   15  C24   D T1001       1.281   6.067   8.049  1.00 38.59     0.053 A 
HETATM   16  C31   D T1001      -0.347   6.790   6.249  1.00 38.28     0.094 A 
HETATM   17  C23   D T1001       2.567   6.194   8.774  1.00 37.81     0.103 A 
HETATM   18  C25   D T1001       0.474   4.963   8.586  1.00 38.35     0.103 A 
HETATM   19  N22   D T1001       2.934   5.383   9.801  1.00 38.06    -0.223 NA
HETATM   20  C21   D T1001       2.072   4.424  10.165  1.00 38.54     0.199 A 
HETATM   21  N20   D T1001       0.870   4.179   9.614  1.00 38.22    -0.223 NA
HETATM   22  C30   D T1001      -0.544   7.729   5.201  1.00 38.37     0.098 A 
HETATM   23  N29   D T1001       0.400   8.686   4.902  1.00 38.67    -0.062 NA
ENDBRANCH  11  12
ENDBRANCH   6  11
ENDBRANCH   1   4
BRANCH   2  24
HETATM   24  C1    D T1001       1.697  12.446  -1.094  1.00 38.65     0.058 A 
HETATM   25  C2    D T1001       0.465  13.145  -0.884  1.00 37.93     0.004 A 
HETATM   26  C3    D T1001       0.069  14.181  -1.757  1.00 37.95    -0.002 A 
HETATM   27  C4    D T1001       0.902  14.575  -2.888  1.00 38.26     0.015 A 
HETATM   28  C5    D T1001       2.180  13.858  -3.111  1.00 37.89     0.070 A 
HETATM   29  C6    D T1001       2.520  12.824  -2.204  1.00 37.86     0.008 A 
BRANCH  27  30
HETATM   30  C11   D T1001       0.351  15.739  -3.769  1.00 37.72     0.277 C 
BRANCH  30  31
HETATM   31  N12   D T1001       1.101  17.022  -3.839  1.00 39.41     0.143 N 
HETATM   32  C13   D T1001       1.320  17.713  -2.553  1.00 38.92     0.253 C 
HETATM   33  C14   D T1001       0.846  19.151  -2.793  1.00 38.65     0.071 C 
HETATM   34  C15   D T1001       1.129  19.291  -4.309  1.00 38.81     0.255 C 
HETATM   35  C16   D T1001       0.504  18.004  -4.782  1.00 38.57     0.284 C 
BRANCH  34  36
HETATM   36  N17   D T1001       0.581  20.547  -4.992  1.00 39.14     0.141 N 
HETATM   37  C18   D T1001      -0.121  20.338  -6.276  1.00 39.06     0.285 C 
HETATM   38  C19   D T1001      -0.281  21.320  -4.025  1.00 38.52     0.285 C 
ENDBRANCH  34  36
ENDBRANCH  30  31
ENDBRANCH  27  30
BRANCH  28  39
HETATM   39  C7    D T1001       3.198  14.154  -4.271  1.00 38.38     0.418 C 
HETATM   40  F8    D T1001       3.838  13.002  -4.614  1.00 39.18    -0.166 F 
HETATM   41  F9    D T1001       4.119  15.072  -3.883  1.00 37.72    -0.166 F 
HETATM   42  F10   D T1001       2.581  14.581  -5.421  1.00 39.32    -0.166 F 
ENDBRANCH  28  39
ENDBRANCH   2  24
TORSDOF 8
ENDMDL
MODEL 8
REMARK VINA RESULT:    -9.314      6.812     10.044
REMARK INTER + INTRA:         -13.996
REMARK INTER:                 -12.792
REMARK INTRA:                  -1.204
REMARK UNBOUND:                -0.326
REMARK  8 active torsions:
REMARK  status: ('A' for Active; 'I' for Inactive)
REMARK    1  A    between atoms: C1_1  and  C41_41 
REMARK    2  A    between atoms: C4_4  and  C11_11 
REMARK    3  A    between atoms: C5_5  and  C7_7 
REMARK    4  A    between atoms: C11_11  and  N12_12 
REMARK    5  A    between atoms: C15_15  and  N17_17 
REMARK    6  A    between atoms: C28_28  and  N32_32 
REMARK    7  A    between atoms: N32_32  and  C38_38 
REMARK    8  A    between atoms: C34_34  and  N40_40 
REMARK       I    between atoms: N40_40  and  C41_41 
ROOT
HETATM    1  N40   D T1001       3.985   4.379  10.649  1.00 37.15    -0.208 NA
HETATM    2  C41   D T1001       5.118   3.758  10.325  1.00 37.79     0.279 C 
HETATM    3  O42   D T1001       5.134   2.888   9.453  1.00 38.78    -0.265 OA
ENDROOT
BRANCH   1   4
HETATM    4  C34   D T1001       2.689   4.434  10.026  1.00 37.97     0.086 A 
HETATM    5  C33   D T1001       2.245   5.538   9.198  1.00 37.70     0.039 A 
HETATM    6  C38   D T1001       0.962   5.514   8.623  1.00 38.49     0.097 A 
HETATM    7  C37   D T1001       0.083   4.418   8.835  1.00 38.20    -0.004 A 
HETATM    8  C36   D T1001       0.513   3.324   9.650  1.00 37.87    -0.001 A 
HETATM    9  C39   D T1001      -1.323   4.303   8.250  1.00 38.08     0.033 C 
HETATM   10  C35   D T1001       1.820   3.339  10.243  1.00 37.80     0.019 A 
BRANCH   6  11
HETATM   11  N32   D T1001       0.588   6.599   7.827  1.00 38.25    -0.060 NA
BRANCH  11  12
HETATM   12  C28   D T1001       1.367   7.307   6.922  1.00 38.40     0.750 A 
HETATM   13  N27   D T1001       2.673   7.134   7.048  1.00 38.34    -0.063 NA
HETATM   14  C26   D T1001       3.549   7.785   6.210  1.00 38.69     0.086 A 
HETATM   15  C24   D T1001       4.924   7.575   6.376  1.00 38.59     0.053 A 
HETATM   16  C31   D T1001       2.993   8.690   5.176  1.00 38.28     0.094 A 
HETATM   17  C23   D T1001       5.468   6.681   7.426  1.00 37.81     0.103 A 
HETATM   18  C25   D T1001       6.001   8.177   5.579  1.00 38.35     0.103 A 
HETATM   19  N22   D T1001       6.796   6.460   7.609  1.00 38.06    -0.223 NA
HETATM   20  C21   D T1001       7.645   7.092   6.786  1.00 38.54     0.199 A 
HETATM   21  N20   D T1001       7.314   7.930   5.788  1.00 38.22    -0.223 NA
HETATM   22  C30   D T1001       1.576   8.795   5.148  1.00 38.37     0.098 A 
HETATM   23  N29   D T1001       0.783   8.101   6.034  1.00 38.67    -0.062 NA
ENDBRANCH  11  12
ENDBRANCH   6  11
ENDBRANCH   1   4
BRANCH   2  24
HETATM   24  C1    D T1001       6.395   4.082  11.030  1.00 38.65     0.058 A 
HETATM   25  C2    D T1001       7.647   4.357  10.391  1.00 37.93     0.004 A 
HETATM   26  C3    D T1001       8.793   4.660  11.157  1.00 37.95    -0.002 A 
HETATM   27  C4    D T1001       8.736   4.710  12.614  1.00 38.26     0.015 A 
HETATM   28  C5    D T1001       7.445   4.429  13.283  1.00 37.89     0.070 A 
HETATM   29  C6    D T1001       6.331   4.125  12.461  1.00 37.86     0.008 A 
BRANCH  27  30
HETATM   30  C11   D T1001      10.072   5.065  13.337  1.00 37.72     0.277 C 
BRANCH  30  31
HETATM   31  N12   D T1001      10.385   6.487  13.642  1.00 39.41     0.143 N 
HETATM   32  C13   D T1001      10.057   6.941  15.008  1.00 38.92     0.253 C 
HETATM   33  C14   D T1001       9.239   8.223  14.811  1.00 38.65     0.071 C 
HETATM   34  C15   D T1001       9.829   8.730  13.472  1.00 38.81     0.255 C 
HETATM   35  C16   D T1001       9.766   7.445  12.688  1.00 38.57     0.284 C 
BRANCH  34  36
HETATM   36  N17   D T1001       9.107   9.908  12.812  1.00 39.14     0.141 N 
HETATM   37  C18   D T1001       8.646   9.695  11.423  1.00 39.06     0.285 C 
HETATM   38  C19   D T1001       7.972  10.371  13.691  1.00 38.52     0.285 C 
ENDBRANCH  34  36
ENDBRANCH  30  31
ENDBRANCH  27  30
BRANCH  28  39
HETATM   39  C7    D T1001       7.203   4.445  14.836  1.00 38.38     0.418 C 
HETATM   40  F8    D T1001       8.262   3.861  15.463  1.00 39.18    -0.166 F 
HETATM   41  F9    D T1001       6.073   3.766  15.156  1.00 37.72    -0.166 F 
HETATM   42  F10   D T1001       7.136   5.717  15.348  1.00 39.32    -0.166 F 
ENDBRANCH  28  39
ENDBRANCH   2  24
TORSDOF 8
ENDMDL
MODEL 9
REMARK VINA RESULT:    -9.217      2.867     11.991
REMARK INTER + INTRA:         -13.853
REMARK INTER:                 -12.237
REMARK INTRA:                  -1.616
REMARK UNBOUND:                -0.326
REMARK  8 active torsions:
REMARK  status: ('A' for Active; 'I' for Inactive)
REMARK    1  A    between atoms: C1_1  and  C41_41 
REMARK    2  A    between atoms: C4_4  and  C11_11 
REMARK    3  A    between atoms: C5_5  and  C7_7 
REMARK    4  A    between atoms: C11_11  and  N12_12 
REMARK    5  A    between atoms: C15_15  and  N17_17 
REMARK    6  A    between atoms: C28_28  and  N32_32 
REMARK    7  A    between atoms: N32_32  and  C38_38 
REMARK    8  A    between atoms: C34_34  and  N40_40 
REMARK       I    between atoms: N40_40  and  C41_41 
ROOT
HETATM    1  N40   D T1001       7.313   8.903   6.632  1.00 37.15    -0.208 NA
HETATM    2  C41   D T1001       7.487   8.962   5.312  1.00 37.79     0.279 C 
HETATM    3  O42   D T1001       8.393   8.330   4.767  1.00 38.78    -0.265 OA
ENDROOT
BRANCH   1   4
HETATM    4  C34   D T1001       7.846   8.037   7.650  1.00 37.97     0.086 A 
HETATM    5  C33   D T1001       7.296   6.732   7.959  1.00 37.70     0.039 A 
HETATM    6  C38   D T1001       7.879   5.945   8.968  1.00 38.49     0.097 A 
HETATM    7  C37   D T1001       9.008   6.405   9.698  1.00 38.20    -0.004 A 
HETATM    8  C36   D T1001       9.557   7.691   9.400  1.00 37.87    -0.001 A 
HETATM    9  C39   D T1001       9.708   5.620  10.806  1.00 38.08     0.033 C 
HETATM   10  C35   D T1001       8.970   8.503   8.372  1.00 37.80     0.019 A 
BRANCH   6  11
HETATM   11  N32   D T1001       7.315   4.692   9.219  1.00 38.25    -0.060 NA
BRANCH  11  12
HETATM   12  C28   D T1001       6.134   4.401   9.887  1.00 38.40     0.750 A 
HETATM   13  N27   D T1001       5.032   4.836   9.297  1.00 38.34    -0.063 NA
HETATM   14  C26   D T1001       3.799   4.611   9.864  1.00 38.69     0.086 A 
HETATM   15  C24   D T1001       2.658   5.089   9.208  1.00 38.59     0.053 A 
HETATM   16  C31   D T1001       3.739   3.882  11.153  1.00 38.28     0.094 A 
HETATM   17  C23   D T1001       2.732   5.832   7.927  1.00 37.81     0.103 A 
HETATM   18  C25   D T1001       1.267   4.941   9.657  1.00 38.35     0.103 A 
HETATM   19  N22   D T1001       1.641   6.307   7.270  1.00 38.06    -0.223 NA
HETATM   20  C21   D T1001       0.442   6.079   7.823  1.00 38.54     0.199 A 
HETATM   21  N20   D T1001       0.205   5.424   8.973  1.00 38.22    -0.223 NA
HETATM   22  C30   D T1001       4.991   3.473  11.687  1.00 38.37     0.098 A 
HETATM   23  N29   D T1001       6.176   3.749  11.041  1.00 38.67    -0.062 NA
ENDBRANCH  11  12
ENDBRANCH   6  11
ENDBRANCH   1   4
BRANCH   2  24
HETATM   24  C1    D T1001       6.604   9.817   4.462  1.00 38.65     0.058 A 
HETATM   25  C2    D T1001       7.041  10.926   3.669  1.00 37.93     0.004 A 
HETATM   26  C3    D T1001       6.120  11.663   2.895  1.00 37.95    -0.002 A 
HETATM   27  C4    D T1001       4.703  11.314   2.873  1.00 38.26     0.015 A 
HETATM   28  C5    D T1001       4.243  10.167   3.689  1.00 37.89     0.070 A 
HETATM   29  C6    D T1001       5.214   9.469   4.449  1.00 37.86     0.008 A 
BRANCH  27  30
HETATM   30  C11   D T1001       3.795  12.205   1.970  1.00 37.72     0.277 C 
BRANCH  30  31
HETATM   31  N12   D T1001       3.347  11.690   0.648  1.00 39.41     0.143 N 
HETATM   32  C13   D T1001       3.972  12.316  -0.534  1.00 38.92     0.253 C 
HETATM   33  C14   D T1001       2.798  12.720  -1.433  1.00 38.65     0.071 C 
HETATM   34  C15   D T1001       1.758  11.643  -1.038  1.00 38.81     0.255 C 
HETATM   35  C16   D T1001       1.873  11.748   0.461  1.00 38.57     0.284 C 
BRANCH  34  36
HETATM   36  N17   D T1001       0.338  11.837  -1.576  1.00 39.14     0.141 N 
HETATM   37  C18   D T1001       0.062  13.127  -2.244  1.00 39.06     0.285 C 
HETATM   38  C19   D T1001      -0.034  10.678  -2.468  1.00 38.52     0.285 C 
ENDBRANCH  34  36
ENDBRANCH  30  31
ENDBRANCH  27  30
BRANCH  28  39
HETATM   39  C7    D T1001       2.761   9.651   3.778  1.00 38.38     0.418 C 
HETATM   40  F8    D T1001       2.671   8.705   4.754  1.00 39.18    -0.166 F 
HETATM   41  F9    D T1001       2.367   9.106   2.600  1.00 37.72    -0.166 F 
HETATM   42  F10   D T1001       1.879  10.636   4.147  1.00 39.32    -0.166 F 
ENDBRANCH  28  39
ENDBRANCH   2  24
TORSDOF 8
ENDMDL
