MODEL 1
REMARK VINA RESULT:    -9.197      0.000      0.000
REMARK INTER + INTRA:         -14.482
REMARK INTER:                 -13.498
REMARK INTRA:                  -0.984
REMARK UNBOUND:                -0.984
REMARK  8 active torsions:
REMARK  status: ('A' for Active; 'I' for Inactive)
REMARK    1  A    between atoms: C1_1  and  C41_41 
REMARK    2  A    between atoms: C4_4  and  C11_11 
REMARK    3  A    between atoms: C5_5  and  C7_7 
REMARK    4  A    between atoms: C11_11  and  N12_12 
REMARK    5  A    between atoms: C15_15  and  N17_17 
REMARK    6  A    between atoms: C28_28  and  N32_32 
REMARK    7  A    between atoms: N32_32  and  C38_38 
REMARK    8  A    between atoms: C34_34  and  N40_40 
REMARK       I    between atoms: N40_40  and  C41_41 
ROOT
HETATM    1  N40   D T1001       9.656  -4.753   0.928  1.00 37.15    -0.208 NA
HETATM    2  C41   D T1001       8.891  -4.753  -0.165  1.00 37.79     0.279 C 
HETATM    3  O42   D T1001       8.009  -5.600  -0.315  1.00 38.78    -0.265 OA
ENDROOT
BRANCH   1   4
HETATM    4  C34   D T1001       9.557  -5.438   2.190  1.00 37.97     0.086 A 
HETATM    5  C33   D T1001       9.305  -6.860   2.311  1.00 37.70     0.039 A 
HETATM    6  C38   D T1001       9.225  -7.455   3.582  1.00 38.49     0.097 A 
HETATM    7  C37   D T1001       9.389  -6.684   4.764  1.00 38.20    -0.004 A 
HETATM    8  C36   D T1001       9.639  -5.280   4.654  1.00 37.87    -0.001 A 
HETATM    9  C39   D T1001       9.324  -7.241   6.185  1.00 38.08     0.033 C 
HETATM   10  C35   D T1001       9.721  -4.663   3.361  1.00 37.80     0.019 A 
BRANCH   6  11
HETATM   11  N32   D T1001       8.990  -8.830   3.641  1.00 38.25    -0.060 NA
BRANCH  11  12
HETATM   12  C28   D T1001       9.139  -9.770   2.629  1.00 38.40     0.750 A 
HETATM   13  N27   D T1001       8.420  -9.543   1.542  1.00 38.34    -0.063 NA
HETATM   14  C26   D T1001       8.482 -10.405   0.471  1.00 38.69     0.086 A 
HETATM   15  C24   D T1001       7.703 -10.132  -0.661  1.00 38.59     0.053 A 
HETATM   16  C31   D T1001       9.361 -11.594   0.575  1.00 38.28     0.094 A 
HETATM   17  C23   D T1001       6.816  -8.949  -0.744  1.00 37.81     0.103 A 
HETATM   18  C25   D T1001       7.643 -10.930  -1.892  1.00 38.35     0.103 A 
HETATM   19  N22   D T1001       6.051  -8.659  -1.830  1.00 38.06    -0.223 NA
HETATM   20  C21   D T1001       6.118  -9.498  -2.872  1.00 38.54     0.199 A 
HETATM   21  N20   D T1001       6.872 -10.610  -2.955  1.00 38.22    -0.223 NA
HETATM   22  C30   D T1001      10.075 -11.728   1.796  1.00 38.37     0.098 A 
HETATM   23  N29   D T1001       9.944 -10.807   2.812  1.00 38.67    -0.062 NA
ENDBRANCH  11  12
ENDBRANCH   6  11
ENDBRANCH   1   4
BRANCH   2  24
HETATM   24  C1    D T1001       9.105  -3.744  -1.245  1.00 38.65     0.058 A 
HETATM   25  C2    D T1001       9.135  -2.326  -1.061  1.00 37.93     0.004 A 
HETATM   26  C3    D T1001       9.353  -1.463  -2.156  1.00 37.95    -0.002 A 
HETATM   27  C4    D T1001       9.562  -1.987  -3.500  1.00 38.26     0.015 A 
HETATM   28  C5    D T1001       9.535  -3.455  -3.701  1.00 37.89     0.070 A 
HETATM   29  C6    D T1001       9.306  -4.269  -2.563  1.00 37.86     0.008 A 
BRANCH  27  30
HETATM   30  C11   D T1001       9.799  -0.925  -4.618  1.00 37.72     0.277 C 
BRANCH  30  31
HETATM   31  N12   D T1001       8.636  -0.201  -5.199  1.00 39.41     0.143 N 
HETATM   32  C13   D T1001       7.629  -1.038  -5.882  1.00 38.92     0.253 C 
HETATM   33  C14   D T1001       7.428  -0.374  -7.249  1.00 38.65     0.071 C 
HETATM   34  C15   D T1001       7.743   1.100  -6.897  1.00 38.81     0.255 C 
HETATM   35  C16   D T1001       9.026   0.889  -6.134  1.00 38.57     0.284 C 
BRANCH  34  36
HETATM   36  N17   D T1001       7.863   2.072  -8.074  1.00 39.14     0.141 N 
HETATM   37  C18   D T1001       6.593   2.559  -8.651  1.00 39.06     0.285 C 
HETATM   38  C19   D T1001       8.759   3.225  -7.694  1.00 38.52     0.285 C 
ENDBRANCH  34  36
ENDBRANCH  30  31
ENDBRANCH  27  30
BRANCH  28  39
HETATM   39  C7    D T1001       9.746  -4.189  -5.075  1.00 38.38     0.418 C 
HETATM   40  F8    D T1001       8.815  -3.752  -5.967  1.00 39.18    -0.166 F 
HETATM   41  F9    D T1001       9.620  -5.533  -4.929  1.00 37.72    -0.166 F 
HETATM   42  F10   D T1001      10.960  -3.901  -5.647  1.00 39.32    -0.166 F 
ENDBRANCH  28  39
ENDBRANCH   2  24
TORSDOF 8
ENDMDL
MODEL 2
REMARK VINA RESULT:    -8.881      3.899     11.959
REMARK INTER + INTRA:         -14.019
REMARK INTER:                 -12.766
REMARK INTRA:                  -1.253
REMARK UNBOUND:                -0.984
REMARK  8 active torsions:
REMARK  status: ('A' for Active; 'I' for Inactive)
REMARK    1  A    between atoms: C1_1  and  C41_41 
REMARK    2  A    between atoms: C4_4  and  C11_11 
REMARK    3  A    between atoms: C5_5  and  C7_7 
REMARK    4  A    between atoms: C11_11  and  N12_12 
REMARK    5  A    between atoms: C15_15  and  N17_17 
REMARK    6  A    between atoms: C28_28  and  N32_32 
REMARK    7  A    between atoms: N32_32  and  C38_38 
REMARK    8  A    between atoms: C34_34  and  N40_40 
REMARK       I    between atoms: N40_40  and  C41_41 
ROOT
HETATM    1  N40   D T1001       8.750  -6.520  -0.413  1.00 37.15    -0.208 NA
HETATM    2  C41   D T1001       7.702  -7.333  -0.548  1.00 37.79     0.279 C 
HETATM    3  O42   D T1001       6.588  -6.884  -0.822  1.00 38.78    -0.265 OA
ENDROOT
BRANCH   1   4
HETATM    4  C34   D T1001       8.961  -5.135  -0.744  1.00 37.97     0.086 A 
HETATM    5  C33   D T1001       9.273  -4.671  -2.082  1.00 37.70     0.039 A 
HETATM    6  C38   D T1001       9.463  -3.300  -2.324  1.00 38.49     0.097 A 
HETATM    7  C37   D T1001       9.352  -2.348  -1.275  1.00 38.20    -0.004 A 
HETATM    8  C36   D T1001       9.044  -2.797   0.048  1.00 37.87    -0.001 A 
HETATM    9  C39   D T1001       9.536  -0.840  -1.442  1.00 38.08     0.033 C 
HETATM   10  C35   D T1001       8.850  -4.196   0.306  1.00 37.80     0.019 A 
BRANCH   6  11
HETATM   11  N32   D T1001       9.752  -2.906  -3.631  1.00 38.25    -0.060 NA
BRANCH  11  12
HETATM   12  C28   D T1001       8.862  -2.541  -4.634  1.00 38.40     0.750 A 
HETATM   13  N27   D T1001       9.011  -1.311  -5.097  1.00 38.34    -0.063 NA
HETATM   14  C26   D T1001       8.188  -0.834  -6.092  1.00 38.69     0.086 A 
HETATM   15  C24   D T1001       8.376   0.475  -6.553  1.00 38.59     0.053 A 
HETATM   16  C31   D T1001       7.129  -1.728  -6.617  1.00 38.28     0.094 A 
HETATM   17  C23   D T1001       9.429   1.363  -6.007  1.00 37.81     0.103 A 
HETATM   18  C25   D T1001       7.603   1.150  -7.604  1.00 38.35     0.103 A 
HETATM   19  N22   D T1001       9.634   2.637  -6.437  1.00 38.06    -0.223 NA
HETATM   20  C21   D T1001       8.834   3.095  -7.409  1.00 38.54     0.199 A 
HETATM   21  N20   D T1001       7.838   2.418  -8.008  1.00 38.22    -0.223 NA
HETATM   22  C30   D T1001       7.069  -3.021  -6.033  1.00 38.37     0.098 A 
HETATM   23  N29   D T1001       7.941  -3.405  -5.039  1.00 38.67    -0.062 NA
ENDBRANCH  11  12
ENDBRANCH   6  11
ENDBRANCH   1   4
BRANCH   2  24
HETATM   24  C1    D T1001       7.848  -8.806  -0.341  1.00 38.65     0.058 A 
HETATM   25  C2    D T1001       8.242  -9.747  -1.343  1.00 37.93     0.004 A 
HETATM   26  C3    D T1001       8.356 -11.120  -1.035  1.00 37.95    -0.002 A 
HETATM   27  C4    D T1001       8.084 -11.617   0.309  1.00 38.26     0.015 A 
HETATM   28  C5    D T1001       7.676 -10.648   1.354  1.00 37.89     0.070 A 
HETATM   29  C6    D T1001       7.575  -9.285   0.981  1.00 37.86     0.008 A 
BRANCH  27  30
HETATM   30  C11   D T1001       8.254 -13.154   0.516  1.00 37.72     0.277 C 
BRANCH  30  31
HETATM   31  N12   D T1001       8.451 -14.035  -0.667  1.00 39.41     0.143 N 
HETATM   32  C13   D T1001       7.260 -14.774  -1.128  1.00 38.92     0.253 C 
HETATM   33  C14   D T1001       7.720 -16.232  -1.241  1.00 38.65     0.071 C 
HETATM   34  C15   D T1001       9.221 -16.031  -1.560  1.00 38.81     0.255 C 
HETATM   35  C16   D T1001       9.553 -15.019  -0.492  1.00 38.57     0.284 C 
BRANCH  34  36
HETATM   36  N17   D T1001      10.099 -17.285  -1.533  1.00 39.14     0.141 N 
HETATM   37  C18   D T1001      11.257 -17.252  -0.617  1.00 39.06     0.285 C 
HETATM   38  C19   D T1001       9.244 -18.502  -1.277  1.00 38.52     0.285 C 
ENDBRANCH  34  36
ENDBRANCH  30  31
ENDBRANCH  27  30
BRANCH  28  39
HETATM   39  C7    D T1001       7.352 -11.007   2.849  1.00 38.38     0.418 C 
HETATM   40  F8    D T1001       8.496 -11.391   3.479  1.00 39.18    -0.166 F 
HETATM   41  F9    D T1001       6.451 -12.020   2.919  1.00 37.72    -0.166 F 
HETATM   42  F10   D T1001       6.889  -9.931   3.564  1.00 39.32    -0.166 F 
ENDBRANCH  28  39
ENDBRANCH   2  24
TORSDOF 8
ENDMDL
MODEL 3
REMARK VINA RESULT:    -8.702      2.321      3.511
REMARK INTER + INTRA:         -13.756
REMARK INTER:                 -12.347
REMARK INTRA:                  -1.409
REMARK UNBOUND:                -0.984
REMARK  8 active torsions:
REMARK  status: ('A' for Active; 'I' for Inactive)
REMARK    1  A    between atoms: C1_1  and  C41_41 
REMARK    2  A    between atoms: C4_4  and  C11_11 
REMARK    3  A    between atoms: C5_5  and  C7_7 
REMARK    4  A    between atoms: C11_11  and  N12_12 
REMARK    5  A    between atoms: C15_15  and  N17_17 
REMARK    6  A    between atoms: C28_28  and  N32_32 
REMARK    7  A    between atoms: N32_32  and  C38_38 
REMARK    8  A    between atoms: C34_34  and  N40_40 
REMARK       I    between atoms: N40_40  and  C41_41 
ROOT
HETATM    1  N40   D T1001       9.924  -5.295   1.113  1.00 37.15    -0.208 NA
HETATM    2  C41   D T1001       9.134  -5.020   0.074  1.00 37.79     0.279 C 
HETATM    3  O42   D T1001       8.117  -5.683  -0.136  1.00 38.78    -0.265 OA
ENDROOT
BRANCH   1   4
HETATM    4  C34   D T1001       9.754  -6.123   2.278  1.00 37.97     0.086 A 
HETATM    5  C33   D T1001       9.985  -7.554   2.284  1.00 37.70     0.039 A 
HETATM    6  C38   D T1001       9.798  -8.291   3.465  1.00 38.49     0.097 A 
HETATM    7  C37   D T1001       9.384  -7.658   4.668  1.00 38.20    -0.004 A 
HETATM    8  C36   D T1001       9.154  -6.246   4.671  1.00 37.87    -0.001 A 
HETATM    9  C39   D T1001       9.160  -8.374   5.999  1.00 38.08     0.033 C 
HETATM   10  C35   D T1001       9.341  -5.484   3.469  1.00 37.80     0.019 A 
BRANCH   6  11
HETATM   11  N32   D T1001      10.044  -9.665   3.418  1.00 38.25    -0.060 NA
BRANCH  11  12
HETATM   12  C28   D T1001       9.251 -10.659   2.860  1.00 38.40     0.750 A 
HETATM   13  N27   D T1001       8.713 -11.501   3.727  1.00 38.34    -0.063 NA
HETATM   14  C26   D T1001       7.908 -12.531   3.295  1.00 38.69     0.086 A 
HETATM   15  C24   D T1001       7.360 -13.403   4.244  1.00 38.59     0.053 A 
HETATM   16  C31   D T1001       7.674 -12.676   1.838  1.00 38.28     0.094 A 
HETATM   17  C23   D T1001       7.617 -13.255   5.695  1.00 37.81     0.103 A 
HETATM   18  C25   D T1001       6.481 -14.547   3.972  1.00 38.35     0.103 A 
HETATM   19  N22   D T1001       7.096 -14.086   6.638  1.00 38.06    -0.223 NA
HETATM   20  C21   D T1001       6.309 -15.083   6.213  1.00 38.54     0.199 A 
HETATM   21  N20   D T1001       5.979 -15.350   4.936  1.00 38.22    -0.223 NA
HETATM   22  C30   D T1001       8.313 -11.713   1.012  1.00 38.37     0.098 A 
HETATM   23  N29   D T1001       9.102 -10.717   1.544  1.00 38.67    -0.062 NA
ENDBRANCH  11  12
ENDBRANCH   6  11
ENDBRANCH   1   4
BRANCH   2  24
HETATM   24  C1    D T1001       9.478  -3.920  -0.876  1.00 38.65     0.058 A 
HETATM   25  C2    D T1001       9.741  -2.562  -0.511  1.00 37.93     0.004 A 
HETATM   26  C3    D T1001      10.066  -1.603  -1.494  1.00 37.95    -0.002 A 
HETATM   27  C4    D T1001      10.151  -1.966  -2.904  1.00 38.26     0.015 A 
HETATM   28  C5    D T1001       9.882  -3.371  -3.292  1.00 37.89     0.070 A 
HETATM   29  C6    D T1001       9.556  -4.286  -2.259  1.00 37.86     0.008 A 
BRANCH  27  30
HETATM   30  C11   D T1001      10.526  -0.813  -3.884  1.00 37.72     0.277 C 
BRANCH  30  31
HETATM   31  N12   D T1001       9.465   0.115  -4.364  1.00 39.41     0.143 N 
HETATM   32  C13   D T1001       8.103  -0.448  -4.446  1.00 38.92     0.253 C 
HETATM   33  C14   D T1001       7.619  -0.105  -5.859  1.00 38.65     0.071 C 
HETATM   34  C15   D T1001       8.410   1.200  -6.120  1.00 38.81     0.255 C 
HETATM   35  C16   D T1001       9.776   0.737  -5.679  1.00 38.57     0.284 C 
BRANCH  34  36
HETATM   36  N17   D T1001       8.363   1.753  -7.547  1.00 39.14     0.141 N 
HETATM   37  C18   D T1001       7.070   1.633  -8.251  1.00 39.06     0.285 C 
HETATM   38  C19   D T1001       8.851   3.181  -7.557  1.00 38.52     0.285 C 
ENDBRANCH  34  36
ENDBRANCH  30  31
ENDBRANCH  27  30
BRANCH  28  39
HETATM   39  C7    D T1001       9.935  -3.936  -4.757  1.00 38.38     0.418 C 
HETATM   40  F8    D T1001       9.612  -5.258  -4.743  1.00 39.18    -0.166 F 
HETATM   41  F9    D T1001      11.177  -3.792  -5.286  1.00 37.72    -0.166 F 
HETATM   42  F10   D T1001       9.013  -3.347  -5.585  1.00 39.32    -0.166 F 
ENDBRANCH  28  39
ENDBRANCH   2  24
TORSDOF 8
ENDMDL
MODEL 4
REMARK VINA RESULT:    -8.693      1.898      2.467
REMARK INTER + INTRA:         -13.743
REMARK INTER:                 -12.389
REMARK INTRA:                  -1.354
REMARK UNBOUND:                -0.984
REMARK  8 active torsions:
REMARK  status: ('A' for Active; 'I' for Inactive)
REMARK    1  A    between atoms: C1_1  and  C41_41 
REMARK    2  A    between atoms: C4_4  and  C11_11 
REMARK    3  A    between atoms: C5_5  and  C7_7 
REMARK    4  A    between atoms: C11_11  and  N12_12 
REMARK    5  A    between atoms: C15_15  and  N17_17 
REMARK    6  A    between atoms: C28_28  and  N32_32 
REMARK    7  A    between atoms: N32_32  and  C38_38 
REMARK    8  A    between atoms: C34_34  and  N40_40 
REMARK       I    between atoms: N40_40  and  C41_41 
ROOT
HETATM    1  N40   D T1001       9.722  -4.915   1.026  1.00 37.15    -0.208 NA
HETATM    2  C41   D T1001       8.974  -4.911  -0.079  1.00 37.79     0.279 C 
HETATM    3  O42   D T1001       8.092  -5.755  -0.245  1.00 38.78    -0.265 OA
ENDROOT
BRANCH   1   4
HETATM    4  C34   D T1001       9.602  -5.604   2.284  1.00 37.97     0.086 A 
HETATM    5  C33   D T1001       9.744  -7.039   2.428  1.00 37.70     0.039 A 
HETATM    6  C38   D T1001       9.615  -7.636   3.693  1.00 38.49     0.097 A 
HETATM    7  C37   D T1001       9.347  -6.853   4.849  1.00 38.20    -0.004 A 
HETATM    8  C36   D T1001       9.207  -5.436   4.717  1.00 37.87    -0.001 A 
HETATM    9  C39   D T1001       9.196  -7.410   6.263  1.00 38.08     0.033 C 
HETATM   10  C35   D T1001       9.335  -4.817   3.428  1.00 37.80     0.019 A 
BRANCH   6  11
HETATM   11  N32   D T1001       9.770  -9.020   3.777  1.00 38.25    -0.060 NA
BRANCH  11  12
HETATM   12  C28   D T1001       8.992 -10.008   3.186  1.00 38.40     0.750 A 
HETATM   13  N27   D T1001       9.647 -10.839   2.391  1.00 38.34    -0.063 NA
HETATM   14  C26   D T1001       8.984 -11.859   1.748  1.00 38.69     0.086 A 
HETATM   15  C24   D T1001       9.713 -12.716   0.912  1.00 38.59     0.053 A 
HETATM   16  C31   D T1001       7.523 -11.992   1.958  1.00 38.28     0.094 A 
HETATM   17  C23   D T1001      11.170 -12.560   0.698  1.00 37.81     0.103 A 
HETATM   18  C25   D T1001       9.181 -13.854   0.153  1.00 38.35     0.103 A 
HETATM   19  N22   D T1001      11.902 -13.378  -0.105  1.00 38.06    -0.223 NA
HETATM   20  C21   D T1001      11.254 -14.373  -0.725  1.00 38.54     0.199 A 
HETATM   21  N20   D T1001       9.940 -14.648  -0.635  1.00 38.22    -0.223 NA
HETATM   22  C30   D T1001       6.937 -11.034   2.829  1.00 38.37     0.098 A 
HETATM   23  N29   D T1001       7.689 -10.047   3.427  1.00 38.67    -0.062 NA
ENDBRANCH  11  12
ENDBRANCH   6  11
ENDBRANCH   1   4
BRANCH   2  24
HETATM   24  C1    D T1001       9.206  -3.899  -1.153  1.00 38.65     0.058 A 
HETATM   25  C2    D T1001       9.321  -2.488  -0.951  1.00 37.93     0.004 A 
HETATM   26  C3    D T1001       9.548  -1.621  -2.042  1.00 37.95    -0.002 A 
HETATM   27  C4    D T1001       9.682  -2.136  -3.399  1.00 38.26     0.015 A 
HETATM   28  C5    D T1001       9.567  -3.598  -3.618  1.00 37.89     0.070 A 
HETATM   29  C6    D T1001       9.332  -4.414  -2.484  1.00 37.86     0.008 A 
BRANCH  27  30
HETATM   30  C11   D T1001       9.939  -1.072  -4.511  1.00 37.72     0.277 C 
BRANCH  30  31
HETATM   31  N12   D T1001       8.800  -0.271  -5.035  1.00 39.41     0.143 N 
HETATM   32  C13   D T1001       7.684  -1.039  -5.622  1.00 38.92     0.253 C 
HETATM   33  C14   D T1001       7.442  -0.397  -6.992  1.00 38.65     0.071 C 
HETATM   34  C15   D T1001       7.898   1.055  -6.709  1.00 38.81     0.255 C 
HETATM   35  C16   D T1001       9.210   0.759  -6.027  1.00 38.57     0.284 C 
BRANCH  34  36
HETATM   36  N17   D T1001       8.014   1.983  -7.921  1.00 39.14     0.141 N 
HETATM   37  C18   D T1001       6.748   2.339  -8.594  1.00 39.06     0.285 C 
HETATM   38  C19   D T1001       8.790   3.221  -7.544  1.00 38.52     0.285 C 
ENDBRANCH  34  36
ENDBRANCH  30  31
ENDBRANCH  27  30
BRANCH  28  39
HETATM   39  C7    D T1001       9.690  -4.321  -5.008  1.00 38.38     0.418 C 
HETATM   40  F8    D T1001       9.452  -5.652  -4.846  1.00 39.18    -0.166 F 
HETATM   41  F9    D T1001      10.932  -4.157  -5.530  1.00 37.72    -0.166 F 
HETATM   42  F10   D T1001       8.751  -3.893  -5.913  1.00 39.32    -0.166 F 
ENDBRANCH  28  39
ENDBRANCH   2  24
TORSDOF 8
ENDMDL
MODEL 5
REMARK VINA RESULT:    -8.515      2.203      5.317
REMARK INTER + INTRA:         -13.482
REMARK INTER:                 -11.804
REMARK INTRA:                  -1.678
REMARK UNBOUND:                -0.984
REMARK  8 active torsions:
REMARK  status: ('A' for Active; 'I' for Inactive)
REMARK    1  A    between atoms: C1_1  and  C41_41 
REMARK    2  A    between atoms: C4_4  and  C11_11 
REMARK    3  A    between atoms: C5_5  and  C7_7 
REMARK    4  A    between atoms: C11_11  and  N12_12 
REMARK    5  A    between atoms: C15_15  and  N17_17 
REMARK    6  A    between atoms: C28_28  and  N32_32 
REMARK    7  A    between atoms: N32_32  and  C38_38 
REMARK    8  A    between atoms: C34_34  and  N40_40 
REMARK       I    between atoms: N40_40  and  C41_41 
ROOT
HETATM    1  N40   D T1001       9.093  -7.510  -0.167  1.00 37.15    -0.208 NA
HETATM    2  C41   D T1001       8.425  -6.471  -0.670  1.00 37.79     0.279 C 
HETATM    3  O42   D T1001       7.197  -6.497  -0.762  1.00 38.78    -0.265 OA
ENDROOT
BRANCH   1   4
HETATM    4  C34   D T1001       8.675  -8.683   0.555  1.00 37.97     0.086 A 
HETATM    5  C33   D T1001       8.365  -8.684   1.971  1.00 37.70     0.039 A 
HETATM    6  C38   D T1001       7.961  -9.872   2.602  1.00 38.49     0.097 A 
HETATM    7  C37   D T1001       7.848 -11.087   1.874  1.00 38.20    -0.004 A 
HETATM    8  C36   D T1001       8.152 -11.096   0.477  1.00 37.87    -0.001 A 
HETATM    9  C39   D T1001       7.414 -12.425   2.472  1.00 38.08     0.033 C 
HETATM   10  C35   D T1001       8.567  -9.887  -0.177  1.00 37.80     0.019 A 
BRANCH   6  11
HETATM   11  N32   D T1001       7.664  -9.815   3.965  1.00 38.25    -0.060 NA
BRANCH  11  12
HETATM   12  C28   D T1001       8.545  -9.875   5.038  1.00 38.40     0.750 A 
HETATM   13  N27   D T1001       8.795  -8.715   5.625  1.00 38.34    -0.063 NA
HETATM   14  C26   D T1001       9.653  -8.646   6.699  1.00 38.69     0.086 A 
HETATM   15  C24   D T1001       9.894  -7.400   7.291  1.00 38.59     0.053 A 
HETATM   16  C31   D T1001      10.295  -9.897   7.168  1.00 38.28     0.094 A 
HETATM   17  C23   D T1001       9.258  -6.155   6.800  1.00 37.81     0.103 A 
HETATM   18  C25   D T1001      10.769  -7.134   8.440  1.00 38.35     0.103 A 
HETATM   19  N22   D T1001       9.473  -4.933   7.356  1.00 38.06    -0.223 NA
HETATM   20  C21   D T1001      10.304  -4.871   8.405  1.00 38.54     0.199 A 
HETATM   21  N20   D T1001      10.956  -5.905   8.969  1.00 38.22    -0.223 NA
HETATM   22  C30   D T1001       9.949 -11.074   6.451  1.00 38.37     0.098 A 
HETATM   23  N29   D T1001       9.077 -11.039   5.385  1.00 38.67    -0.062 NA
ENDBRANCH  11  12
ENDBRANCH   6  11
ENDBRANCH   1   4
BRANCH   2  24
HETATM   24  C1    D T1001       9.152  -5.262  -1.161  1.00 38.65     0.058 A 
HETATM   25  C2    D T1001       9.774  -4.277  -0.331  1.00 37.93     0.004 A 
HETATM   26  C3    D T1001      10.444  -3.173  -0.903  1.00 37.95    -0.002 A 
HETATM   27  C4    D T1001      10.529  -3.010  -2.350  1.00 38.26     0.015 A 
HETATM   28  C5    D T1001       9.889  -4.027  -3.218  1.00 37.89     0.070 A 
HETATM   29  C6    D T1001       9.227  -5.108  -2.583  1.00 37.86     0.008 A 
BRANCH  27  30
HETATM   30  C11   D T1001      11.303  -1.752  -2.850  1.00 37.72     0.277 C 
BRANCH  30  31
HETATM   31  N12   D T1001      10.544  -0.539  -3.261  1.00 39.41     0.143 N 
HETATM   32  C13   D T1001       9.143  -0.468  -2.801  1.00 38.92     0.253 C 
HETATM   33  C14   D T1001       8.330  -0.160  -4.063  1.00 38.65     0.071 C 
HETATM   34  C15   D T1001       9.377   0.626  -4.890  1.00 38.81     0.255 C 
HETATM   35  C16   D T1001      10.549  -0.309  -4.731  1.00 38.57     0.284 C 
BRANCH  34  36
HETATM   36  N17   D T1001       9.009   0.932  -6.344  1.00 39.14     0.141 N 
HETATM   37  C18   D T1001       7.619   0.629  -6.743  1.00 39.06     0.285 C 
HETATM   38  C19   D T1001       9.363   2.362  -6.670  1.00 38.52     0.285 C 
ENDBRANCH  34  36
ENDBRANCH  30  31
ENDBRANCH  27  30
BRANCH  28  39
HETATM   39  C7    D T1001       9.888  -4.011  -4.789  1.00 38.38     0.418 C 
HETATM   40  F8    D T1001       9.490  -5.228  -5.252  1.00 39.18    -0.166 F 
HETATM   41  F9    D T1001      11.129  -3.742  -5.270  1.00 37.72    -0.166 F 
HETATM   42  F10   D T1001       8.989  -3.115  -5.309  1.00 39.32    -0.166 F 
ENDBRANCH  28  39
ENDBRANCH   2  24
TORSDOF 8
ENDMDL
MODEL 6
REMARK VINA RESULT:    -8.470      2.458      4.587
REMARK INTER + INTRA:         -13.416
REMARK INTER:                 -11.945
REMARK INTRA:                  -1.470
REMARK UNBOUND:                -0.984
REMARK  8 active torsions:
REMARK  status: ('A' for Active; 'I' for Inactive)
REMARK    1  A    between atoms: C1_1  and  C41_41 
REMARK    2  A    between atoms: C4_4  and  C11_11 
REMARK    3  A    between atoms: C5_5  and  C7_7 
REMARK    4  A    between atoms: C11_11  and  N12_12 
REMARK    5  A    between atoms: C15_15  and  N17_17 
REMARK    6  A    between atoms: C28_28  and  N32_32 
REMARK    7  A    between atoms: N32_32  and  C38_38 
REMARK    8  A    between atoms: C34_34  and  N40_40 
REMARK       I    between atoms: N40_40  and  C41_41 
ROOT
HETATM    1  N40   D T1001       8.838  -7.289  -1.494  1.00 37.15    -0.208 NA
HETATM    2  C41   D T1001       8.969  -6.205  -0.729  1.00 37.79     0.279 C 
HETATM    3  O42   D T1001       8.792  -6.268   0.489  1.00 38.78    -0.265 OA
ENDROOT
BRANCH   1   4
HETATM    4  C34   D T1001       8.732  -8.692  -1.190  1.00 37.97     0.086 A 
HETATM    5  C33   D T1001       9.521  -9.352  -0.167  1.00 37.70     0.039 A 
HETATM    6  C38   D T1001       9.356 -10.727   0.070  1.00 38.49     0.097 A 
HETATM    7  C37   D T1001       8.422 -11.493  -0.677  1.00 38.20    -0.004 A 
HETATM    8  C36   D T1001       7.639 -10.851  -1.687  1.00 37.87    -0.001 A 
HETATM    9  C39   D T1001       8.171 -12.988  -0.487  1.00 38.08     0.033 C 
HETATM   10  C35   D T1001       7.801  -9.447  -1.939  1.00 37.80     0.019 A 
BRANCH   6  11
HETATM   11  N32   D T1001      10.133 -11.309   1.073  1.00 38.25    -0.060 NA
BRANCH  11  12
HETATM   12  C28   D T1001       9.914 -11.298   2.444  1.00 38.40     0.750 A 
HETATM   13  N27   D T1001       9.033 -12.185   2.879  1.00 38.34    -0.063 NA
HETATM   14  C26   D T1001       8.730 -12.270   4.219  1.00 38.69     0.086 A 
HETATM   15  C24   D T1001       7.790 -13.219   4.639  1.00 38.59     0.053 A 
HETATM   16  C31   D T1001       9.404 -11.337   5.153  1.00 38.28     0.094 A 
HETATM   17  C23   D T1001       7.111 -14.134   3.692  1.00 37.81     0.103 A 
HETATM   18  C25   D T1001       7.346 -13.457   6.019  1.00 38.35     0.103 A 
HETATM   19  N22   D T1001       6.196 -15.065   4.072  1.00 38.06    -0.223 NA
HETATM   20  C21   D T1001       5.909 -15.148   5.378  1.00 38.54     0.199 A 
HETATM   21  N20   D T1001       6.436 -14.395   6.361  1.00 38.22    -0.223 NA
HETATM   22  C30   D T1001      10.323 -10.430   4.562  1.00 38.37     0.098 A 
HETATM   23  N29   D T1001      10.558 -10.423   3.204  1.00 38.67    -0.062 NA
ENDBRANCH  11  12
ENDBRANCH   6  11
ENDBRANCH   1   4
BRANCH   2  24
HETATM   24  C1    D T1001       9.307  -4.881  -1.334  1.00 38.65     0.058 A 
HETATM   25  C2    D T1001       9.369  -3.639  -0.627  1.00 37.93     0.004 A 
HETATM   26  C3    D T1001       9.707  -2.445  -1.300  1.00 37.95    -0.002 A 
HETATM   27  C4    D T1001      10.011  -2.442  -2.726  1.00 38.26     0.015 A 
HETATM   28  C5    D T1001       9.951  -3.726  -3.467  1.00 37.89     0.070 A 
HETATM   29  C6    D T1001       9.600  -4.888  -2.736  1.00 37.86     0.008 A 
BRANCH  27  30
HETATM   30  C11   D T1001      10.376  -1.058  -3.344  1.00 37.72     0.277 C 
BRANCH  30  31
HETATM   31  N12   D T1001       9.304  -0.216  -3.941  1.00 39.41     0.143 N 
HETATM   32  C13   D T1001       8.014  -0.890  -4.188  1.00 38.92     0.253 C 
HETATM   33  C14   D T1001       7.673  -0.567  -5.646  1.00 38.65     0.071 C 
HETATM   34  C15   D T1001       8.374   0.804  -5.804  1.00 38.81     0.255 C 
HETATM   35  C16   D T1001       9.713   0.451  -5.207  1.00 38.57     0.284 C 
BRANCH  34  36
HETATM   36  N17   D T1001       8.448   1.374  -7.223  1.00 39.14     0.141 N 
HETATM   37  C18   D T1001       7.199   1.330  -8.010  1.00 39.06     0.285 C 
HETATM   38  C19   D T1001       9.011   2.773  -7.183  1.00 38.52     0.285 C 
ENDBRANCH  34  36
ENDBRANCH  30  31
ENDBRANCH  27  30
BRANCH  28  39
HETATM   39  C7    D T1001      10.252  -3.906  -4.998  1.00 38.38     0.418 C 
HETATM   40  F8    D T1001      10.248  -5.233  -5.305  1.00 39.18    -0.166 F 
HETATM   41  F9    D T1001      11.463  -3.383  -5.318  1.00 37.72    -0.166 F 
HETATM   42  F10   D T1001       9.285  -3.348  -5.797  1.00 39.32    -0.166 F 
ENDBRANCH  28  39
ENDBRANCH   2  24
TORSDOF 8
ENDMDL
MODEL 7
REMARK VINA RESULT:    -8.436      2.406      4.962
REMARK INTER + INTRA:         -13.366
REMARK INTER:                 -11.907
REMARK INTRA:                  -1.459
REMARK UNBOUND:                -0.984
REMARK  8 active torsions:
REMARK  status: ('A' for Active; 'I' for Inactive)
REMARK    1  A    between atoms: C1_1  and  C41_41 
REMARK    2  A    between atoms: C4_4  and  C11_11 
REMARK    3  A    between atoms: C5_5  and  C7_7 
REMARK    4  A    between atoms: C11_11  and  N12_12 
REMARK    5  A    between atoms: C15_15  and  N17_17 
REMARK    6  A    between atoms: C28_28  and  N32_32 
REMARK    7  A    between atoms: N32_32  and  C38_38 
REMARK    8  A    between atoms: C34_34  and  N40_40 
REMARK       I    between atoms: N40_40  and  C41_41 
ROOT
HETATM    1  N40   D T1001       9.216  -7.344  -1.892  1.00 37.15    -0.208 NA
HETATM    2  C41   D T1001       8.793  -6.160  -1.446  1.00 37.79     0.279 C 
HETATM    3  O42   D T1001       7.868  -6.087  -0.636  1.00 38.78    -0.265 OA
ENDROOT
BRANCH   1   4
HETATM    4  C34   D T1001       8.971  -8.695  -1.461  1.00 37.97     0.086 A 
HETATM    5  C33   D T1001       9.601  -9.292  -0.301  1.00 37.70     0.039 A 
HETATM    6  C38   D T1001       9.306 -10.619   0.056  1.00 38.49     0.097 A 
HETATM    7  C37   D T1001       8.391 -11.396  -0.705  1.00 38.20    -0.004 A 
HETATM    8  C36   D T1001       7.764 -10.816  -1.851  1.00 37.87    -0.001 A 
HETATM    9  C39   D T1001       8.006 -12.841  -0.393  1.00 38.08     0.033 C 
HETATM   10  C35   D T1001       8.060  -9.461  -2.224  1.00 37.80     0.019 A 
BRANCH   6  11
HETATM   11  N32   D T1001       9.934 -11.142   1.188  1.00 38.25    -0.060 NA
BRANCH  11  12
HETATM   12  C28   D T1001       9.716 -10.811   2.519  1.00 38.40     0.750 A 
HETATM   13  N27   D T1001       9.649  -9.513   2.772  1.00 38.34    -0.063 NA
HETATM   14  C26   D T1001       9.438  -9.061   4.054  1.00 38.69     0.086 A 
HETATM   15  C24   D T1001       9.377  -7.680   4.281  1.00 38.59     0.053 A 
HETATM   16  C31   D T1001       9.301 -10.061   5.140  1.00 38.28     0.094 A 
HETATM   17  C23   D T1001       9.533  -6.691   3.189  1.00 37.81     0.103 A 
HETATM   18  C25   D T1001       9.156  -7.017   5.572  1.00 38.35     0.103 A 
HETATM   19  N22   D T1001       9.477  -5.346   3.380  1.00 38.06    -0.223 NA
HETATM   20  C21   D T1001       9.265  -4.911   4.629  1.00 38.54     0.199 A 
HETATM   21  N20   D T1001       9.102  -5.675   5.725  1.00 38.22    -0.223 NA
HETATM   22  C30   D T1001       9.397 -11.421   4.740  1.00 38.37     0.098 A 
HETATM   23  N29   D T1001       9.611 -11.773   3.425  1.00 38.67    -0.062 NA
ENDBRANCH  11  12
ENDBRANCH   6  11
ENDBRANCH   1   4
BRANCH   2  24
HETATM   24  C1    D T1001       9.412  -4.894  -1.940  1.00 38.65     0.058 A 
HETATM   25  C2    D T1001       9.626  -4.557  -3.313  1.00 37.93     0.004 A 
HETATM   26  C3    D T1001      10.215  -3.324  -3.668  1.00 37.95    -0.002 A 
HETATM   27  C4    D T1001      10.614  -2.358  -2.652  1.00 38.26     0.015 A 
HETATM   28  C5    D T1001      10.394  -2.697  -1.226  1.00 37.89     0.070 A 
HETATM   29  C6    D T1001       9.804  -3.952  -0.934  1.00 37.86     0.008 A 
BRANCH  27  30
HETATM   30  C11   D T1001      11.246  -1.033  -3.180  1.00 37.72     0.277 C 
BRANCH  30  31
HETATM   31  N12   D T1001      10.358   0.072  -3.635  1.00 39.41     0.143 N 
HETATM   32  C13   D T1001       8.940  -0.032  -3.238  1.00 38.92     0.253 C 
HETATM   33  C14   D T1001       8.152   0.164  -4.537  1.00 38.65     0.071 C 
HETATM   34  C15   D T1001       9.127   1.072  -5.326  1.00 38.81     0.255 C 
HETATM   35  C16   D T1001      10.400   0.293  -5.106  1.00 38.57     0.284 C 
BRANCH  34  36
HETATM   36  N17   D T1001       8.789   1.322  -6.797  1.00 39.14     0.141 N 
HETATM   37  C18   D T1001       7.416   0.975  -7.220  1.00 39.06     0.285 C 
HETATM   38  C19   D T1001       9.120   2.748  -7.163  1.00 38.52     0.285 C 
ENDBRANCH  34  36
ENDBRANCH  30  31
ENDBRANCH  27  30
BRANCH  28  39
HETATM   39  C7    D T1001      10.757  -1.776  -0.005  1.00 38.38     0.418 C 
HETATM   40  F8    D T1001       9.854  -0.760   0.077  1.00 39.18    -0.166 F 
HETATM   41  F9    D T1001      11.999  -1.249  -0.150  1.00 37.72    -0.166 F 
HETATM   42  F10   D T1001      10.673  -2.432   1.197  1.00 39.32    -0.166 F 
ENDBRANCH  28  39
ENDBRANCH   2  24
TORSDOF 8
ENDMDL
MODEL 8
REMARK VINA RESULT:    -8.353      3.072      5.124
REMARK INTER + INTRA:         -13.245
REMARK INTER:                 -11.764
REMARK INTRA:                  -1.481
REMARK UNBOUND:                -0.984
REMARK  8 active torsions:
REMARK  status: ('A' for Active; 'I' for Inactive)
REMARK    1  A    between atoms: C1_1  and  C41_41 
REMARK    2  A    between atoms: C4_4  and  C11_11 
REMARK    3  A    between atoms: C5_5  and  C7_7 
REMARK    4  A    between atoms: C11_11  and  N12_12 
REMARK    5  A    between atoms: C15_15  and  N17_17 
REMARK    6  A    between atoms: C28_28  and  N32_32 
REMARK    7  A    between atoms: N32_32  and  C38_38 
REMARK    8  A    between atoms: C34_34  and  N40_40 
REMARK       I    between atoms: N40_40  and  C41_41 
ROOT
HETATM    1  N40   D T1001       9.204  -7.339  -1.855  1.00 37.15    -0.208 NA
HETATM    2  C41   D T1001       8.835  -6.167  -1.337  1.00 37.79     0.279 C 
HETATM    3  O42   D T1001       7.979  -6.110  -0.453  1.00 38.78    -0.265 OA
ENDROOT
BRANCH   1   4
HETATM    4  C34   D T1001       8.974  -8.701  -1.451  1.00 37.97     0.086 A 
HETATM    5  C33   D T1001       9.714  -9.358  -0.391  1.00 37.70     0.039 A 
HETATM    6  C38   D T1001       9.427 -10.691  -0.054  1.00 38.49     0.097 A 
HETATM    7  C37   D T1001       8.415 -11.418  -0.737  1.00 38.20    -0.004 A 
HETATM    8  C36   D T1001       7.679 -10.779  -1.783  1.00 37.87    -0.001 A 
HETATM    9  C39   D T1001       8.030 -12.867  -0.439  1.00 38.08     0.033 C 
HETATM   10  C35   D T1001       7.966  -9.417  -2.136  1.00 37.80     0.019 A 
BRANCH   6  11
HETATM   11  N32   D T1001      10.163 -11.272   0.980  1.00 38.25    -0.060 NA
BRANCH  11  12
HETATM   12  C28   D T1001       9.920 -11.208   2.346  1.00 38.40     0.750 A 
HETATM   13  N27   D T1001       9.101 -12.136   2.815  1.00 38.34    -0.063 NA
HETATM   14  C26   D T1001       8.783 -12.176   4.154  1.00 38.69     0.086 A 
HETATM   15  C24   D T1001       7.909 -13.171   4.610  1.00 38.59     0.053 A 
HETATM   16  C31   D T1001       9.369 -11.149   5.047  1.00 38.28     0.094 A 
HETATM   17  C23   D T1001       7.317 -14.181   3.702  1.00 37.81     0.103 A 
HETATM   18  C25   D T1001       7.462 -13.371   5.994  1.00 38.35     0.103 A 
HETATM   19  N22   D T1001       6.468 -15.158   4.118  1.00 38.06    -0.223 NA
HETATM   20  C21   D T1001       6.165 -15.196   5.422  1.00 38.54     0.199 A 
HETATM   21  N20   D T1001       6.618 -14.358   6.372  1.00 38.22    -0.223 NA
HETATM   22  C30   D T1001      10.228 -10.205   4.421  1.00 38.37     0.098 A 
HETATM   23  N29   D T1001      10.484 -10.250   3.069  1.00 38.67    -0.062 NA
ENDBRANCH  11  12
ENDBRANCH   6  11
ENDBRANCH   1   4
BRANCH   2  24
HETATM   24  C1    D T1001       9.431  -4.891  -1.837  1.00 38.65     0.058 A 
HETATM   25  C2    D T1001       9.646  -4.560  -3.211  1.00 37.93     0.004 A 
HETATM   26  C3    D T1001      10.212  -3.318  -3.572  1.00 37.95    -0.002 A 
HETATM   27  C4    D T1001      10.584  -2.336  -2.561  1.00 38.26     0.015 A 
HETATM   28  C5    D T1001      10.363  -2.670  -1.133  1.00 37.89     0.070 A 
HETATM   29  C6    D T1001       9.798  -3.935  -0.835  1.00 37.86     0.008 A 
BRANCH  27  30
HETATM   30  C11   D T1001      11.192  -1.003  -3.095  1.00 37.72     0.277 C 
BRANCH  30  31
HETATM   31  N12   D T1001      10.286   0.071  -3.584  1.00 39.41     0.143 N 
HETATM   32  C13   D T1001       8.866  -0.056  -3.201  1.00 38.92     0.253 C 
HETATM   33  C14   D T1001       8.089   0.095  -4.513  1.00 38.65     0.071 C 
HETATM   34  C15   D T1001       9.053   1.007  -5.310  1.00 38.81     0.255 C 
HETATM   35  C16   D T1001      10.339   0.262  -5.059  1.00 38.57     0.284 C 
BRANCH  34  36
HETATM   36  N17   D T1001       8.726   1.218  -6.790  1.00 39.14     0.141 N 
HETATM   37  C18   D T1001       7.357   0.860  -7.214  1.00 39.06     0.285 C 
HETATM   38  C19   D T1001       9.061   2.634  -7.191  1.00 38.52     0.285 C 
ENDBRANCH  34  36
ENDBRANCH  30  31
ENDBRANCH  27  30
BRANCH  28  39
HETATM   39  C7    D T1001      10.700  -1.732   0.082  1.00 38.38     0.418 C 
HETATM   40  F8    D T1001       9.788  -0.722   0.138  1.00 39.18    -0.166 F 
HETATM   41  F9    D T1001      11.941  -1.198  -0.048  1.00 37.72    -0.166 F 
HETATM   42  F10   D T1001      10.601  -2.375   1.290  1.00 39.32    -0.166 F 
ENDBRANCH  28  39
ENDBRANCH   2  24
TORSDOF 8
ENDMDL
MODEL 9
REMARK VINA RESULT:    -8.320      2.676      3.286
REMARK INTER + INTRA:         -13.195
REMARK INTER:                 -11.807
REMARK INTRA:                  -1.388
REMARK UNBOUND:                -0.984
REMARK  8 active torsions:
REMARK  status: ('A' for Active; 'I' for Inactive)
REMARK    1  A    between atoms: C1_1  and  C41_41 
REMARK    2  A    between atoms: C4_4  and  C11_11 
REMARK    3  A    between atoms: C5_5  and  C7_7 
REMARK    4  A    between atoms: C11_11  and  N12_12 
REMARK    5  A    between atoms: C15_15  and  N17_17 
REMARK    6  A    between atoms: C28_28  and  N32_32 
REMARK    7  A    between atoms: N32_32  and  C38_38 
REMARK    8  A    between atoms: C34_34  and  N40_40 
REMARK       I    between atoms: N40_40  and  C41_41 
ROOT
HETATM    1  N40   D T1001       9.555  -6.063   0.631  1.00 37.15    -0.208 NA
HETATM    2  C41   D T1001       8.824  -5.365  -0.239  1.00 37.79     0.279 C 
HETATM    3  O42   D T1001       7.658  -5.683  -0.480  1.00 38.78    -0.265 OA
ENDROOT
BRANCH   1   4
HETATM    4  C34   D T1001       9.218  -7.067   1.606  1.00 37.97     0.086 A 
HETATM    5  C33   D T1001       8.639  -8.352   1.265  1.00 37.70     0.039 A 
HETATM    6  C38   D T1001       8.341  -9.280   2.276  1.00 38.49     0.097 A 
HETATM    7  C37   D T1001       8.599  -8.984   3.642  1.00 38.20    -0.004 A 
HETATM    8  C36   D T1001       9.171  -7.720   3.988  1.00 37.87    -0.001 A 
HETATM    9  C39   D T1001       8.314  -9.929   4.808  1.00 38.08     0.033 C 
HETATM   10  C35   D T1001       9.478  -6.764   2.962  1.00 37.80     0.019 A 
BRANCH   6  11
HETATM   11  N32   D T1001       7.794 -10.505   1.892  1.00 38.25    -0.060 NA
BRANCH  11  12
HETATM   12  C28   D T1001       8.463 -11.664   1.517  1.00 38.40     0.750 A 
HETATM   13  N27   D T1001       7.718 -12.757   1.488  1.00 38.34    -0.063 NA
HETATM   14  C26   D T1001       8.268 -13.968   1.133  1.00 38.69     0.086 A 
HETATM   15  C24   D T1001       7.447 -15.103   1.117  1.00 38.59     0.053 A 
HETATM   16  C31   D T1001       9.712 -14.014   0.799  1.00 38.28     0.094 A 
HETATM   17  C23   D T1001       6.010 -15.045   1.470  1.00 37.81     0.103 A 
HETATM   18  C25   D T1001       7.854 -16.469   0.763  1.00 38.35     0.103 A 
HETATM   19  N22   D T1001       5.190 -16.130   1.462  1.00 38.06    -0.223 NA
HETATM   20  C21   D T1001       5.729 -17.305   1.110  1.00 38.54     0.199 A 
HETATM   21  N20   D T1001       7.010 -17.524   0.762  1.00 38.22    -0.223 NA
HETATM   22  C30   D T1001      10.401 -12.774   0.873  1.00 38.37     0.098 A 
HETATM   23  N29   D T1001       9.759 -11.613   1.241  1.00 38.67    -0.062 NA
ENDBRANCH  11  12
ENDBRANCH   6  11
ENDBRANCH   1   4
BRANCH   2  24
HETATM   24  C1    D T1001       9.411  -4.198  -0.965  1.00 38.65     0.058 A 
HETATM   25  C2    D T1001       9.873  -2.991  -0.354  1.00 37.93     0.004 A 
HETATM   26  C3    D T1001      10.419  -1.951  -1.138  1.00 37.95    -0.002 A 
HETATM   27  C4    D T1001      10.535  -2.079  -2.586  1.00 38.26     0.015 A 
HETATM   28  C5    D T1001      10.060  -3.329  -3.228  1.00 37.89     0.070 A 
HETATM   29  C6    D T1001       9.517  -4.332  -2.387  1.00 37.86     0.008 A 
BRANCH  27  30
HETATM   30  C11   D T1001      11.162  -0.861  -3.331  1.00 37.72     0.277 C 
BRANCH  30  31
HETATM   31  N12   D T1001      10.281   0.239  -3.807  1.00 39.41     0.143 N 
HETATM   32  C13   D T1001       8.858   0.139  -3.426  1.00 38.92     0.253 C 
HETATM   33  C14   D T1001       8.085   0.324  -4.737  1.00 38.65     0.071 C 
HETATM   34  C15   D T1001       9.071   1.225  -5.521  1.00 38.81     0.255 C 
HETATM   35  C16   D T1001      10.340   0.448  -5.279  1.00 38.57     0.284 C 
BRANCH  34  36
HETATM   36  N17   D T1001       8.750   1.462  -6.999  1.00 39.14     0.141 N 
HETATM   37  C18   D T1001       7.426   0.998  -7.463  1.00 39.06     0.285 C 
HETATM   38  C19   D T1001       8.960   2.917  -7.340  1.00 38.52     0.285 C 
ENDBRANCH  34  36
ENDBRANCH  30  31
ENDBRANCH  27  30
BRANCH  28  39
HETATM   39  C7    D T1001      10.114  -3.637  -4.768  1.00 38.38     0.418 C 
HETATM   40  F8    D T1001       9.302  -2.768  -5.430  1.00 39.18    -0.166 F 
HETATM   41  F9    D T1001       9.702  -4.905  -5.022  1.00 37.72    -0.166 F 
HETATM   42  F10   D T1001      11.363  -3.444  -5.303  1.00 39.32    -0.166 F 
ENDBRANCH  28  39
ENDBRANCH   2  24
TORSDOF 8
ENDMDL
