MODEL 1
REMARK VINA RESULT:    -7.106      0.000      0.000
REMARK INTER + INTRA:         -13.237
REMARK INTER:                 -12.091
REMARK INTRA:                  -1.146
REMARK UNBOUND:                -1.146
REMARK  12 active torsions:
REMARK  status: ('A' for Active; 'I' for Inactive)
REMARK    1  A    between atoms: CAK_2  and  CAM_3 
REMARK    2  A    between atoms: CAM_3  and  NAS_4 
REMARK    3  A    between atoms: NAS_4  and  CAO_5 
REMARK    4  A    between atoms: CAO_5  and  CAQ_6 
REMARK    5  A    between atoms: CAQ_6  and  NAU_7 
REMARK    6  A    between atoms: NAU_7  and  CAY_8 
REMARK    7  A    between atoms: CAZ_25  and  NAV_26 
REMARK    8  A    between atoms: NAV_26  and  CAR_27 
REMARK    9  A    between atoms: CAR_27  and  CAP_28 
REMARK   10  A    between atoms: CAP_28  and  NAT_29 
REMARK   11  A    between atoms: NAT_29  and  CAN_30 
REMARK   12  A    between atoms: CAN_30  and  CAL_31 
ROOT
HETATM    1  CAY   D T 539     -12.571   4.961  -3.797  1.00 91.53     0.079 A 
HETATM    2  CAI   D T 539     -13.748   5.289  -3.141  1.00 91.56     0.020 A 
HETATM    3  CAJ   D T 539     -14.944   4.651  -3.446  1.00 91.57     0.020 A 
HETATM    4  CBE   D T 539     -12.602   3.976  -4.767  1.00 91.36     0.061 A 
HETATM    5  CBA   D T 539     -11.419   3.654  -5.413  1.00 91.28     0.199 A 
HETATM    6  OAA   D T 539     -10.381   4.245  -5.110  1.00 91.36    -0.286 OA
HETATM    7  CBC   D T 539     -11.418   2.667  -6.388  1.00 91.28     0.069 A 
HETATM    8  CAW   D T 539     -10.247   2.326  -7.044  1.00 91.39     0.134 A 
HETATM    9  OAE   D T 539      -9.095   2.950  -6.733  1.00 91.60    -0.190 OA
HETATM   10  CAG   D T 539     -10.243   1.356  -8.028  1.00 91.43     0.030 A 
HETATM   11  CAH   D T 539     -11.433   0.716  -8.347  1.00 91.48     0.030 A 
HETATM   12  CAX   D T 539     -12.613   1.043  -7.698  1.00 91.18     0.134 A 
HETATM   13  OAF   D T 539     -13.767   0.411  -8.016  1.00 91.01    -0.190 OA
HETATM   14  CBD   D T 539     -12.599   2.017  -6.718  1.00 91.30     0.069 A 
HETATM   15  CBB   D T 539     -13.779   2.336  -6.074  1.00 91.65     0.199 A 
HETATM   16  OAB   D T 539     -14.792   1.726  -6.411  1.00 91.77    -0.286 OA
HETATM   17  CBF   D T 539     -13.801   3.322  -5.082  1.00 91.49     0.061 A 
HETATM   18  CAZ   D T 539     -14.984   3.669  -4.416  1.00 91.40     0.079 A 
ENDROOT
BRANCH   1  19
HETATM   19  NAU   D T 539     -11.423   5.570  -3.500  1.00 91.78    -0.268 NA
BRANCH  19  20
HETATM   20  CAQ   D T 539     -11.131   6.051  -2.142  1.00 95.07     0.164 C 
BRANCH  20  21
HETATM   21  CAO   D T 539     -10.871   7.562  -2.157  1.00 97.10     0.316 C 
BRANCH  21  22
HETATM   22  NAS   D T 539     -12.165   8.261  -2.310  1.00100.56     0.344 N 
BRANCH  22  23
HETATM   23  CAM   D T 539     -12.453   9.193  -1.190  1.00103.43     0.326 C 
BRANCH  23  24
HETATM   24  CAK   D T 539     -12.587  10.641  -1.700  1.00104.61     0.221 C 
HETATM   25  OAC   D T 539     -12.654  10.653  -3.145  1.00105.31    -0.218 OA
ENDBRANCH  23  24
ENDBRANCH  22  23
ENDBRANCH  21  22
ENDBRANCH  20  21
ENDBRANCH  19  20
ENDBRANCH   1  19
BRANCH  18  26
HETATM   26  NAV   D T 539     -16.160   3.103  -4.661  1.00 91.54    -0.268 NA
BRANCH  26  27
HETATM   27  CAR   D T 539     -17.403   3.773  -4.286  1.00 93.33     0.164 C 
BRANCH  27  28
HETATM   28  CAP   D T 539     -18.287   2.702  -3.671  1.00 95.29     0.316 C 
BRANCH  28  29
HETATM   29  NAT   D T 539     -18.948   3.241  -2.474  1.00 97.82     0.344 N 
BRANCH  29  30
HETATM   30  CAN   D T 539     -17.997   3.963  -1.587  1.00 99.13     0.326 C 
BRANCH  30  31
HETATM   31  CAL   D T 539     -17.436   3.011  -0.502  1.00100.48     0.221 C 
HETATM   32  OAD   D T 539     -16.140   2.466  -0.850  1.00101.70    -0.218 OA
ENDBRANCH  30  31
ENDBRANCH  29  30
ENDBRANCH  28  29
ENDBRANCH  27  28
ENDBRANCH  26  27
ENDBRANCH  18  26
TORSDOF 12
ENDMDL
MODEL 2
REMARK VINA RESULT:    -7.017      0.787      5.672
REMARK INTER + INTRA:         -13.085
REMARK INTER:                 -11.874
REMARK INTRA:                  -1.211
REMARK UNBOUND:                -1.146
REMARK  12 active torsions:
REMARK  status: ('A' for Active; 'I' for Inactive)
REMARK    1  A    between atoms: CAK_2  and  CAM_3 
REMARK    2  A    between atoms: CAM_3  and  NAS_4 
REMARK    3  A    between atoms: NAS_4  and  CAO_5 
REMARK    4  A    between atoms: CAO_5  and  CAQ_6 
REMARK    5  A    between atoms: CAQ_6  and  NAU_7 
REMARK    6  A    between atoms: NAU_7  and  CAY_8 
REMARK    7  A    between atoms: CAZ_25  and  NAV_26 
REMARK    8  A    between atoms: NAV_26  and  CAR_27 
REMARK    9  A    between atoms: CAR_27  and  CAP_28 
REMARK   10  A    between atoms: CAP_28  and  NAT_29 
REMARK   11  A    between atoms: NAT_29  and  CAN_30 
REMARK   12  A    between atoms: CAN_30  and  CAL_31 
ROOT
HETATM    1  CAY   D T 539     -14.939   3.605  -4.558  1.00 91.53     0.079 A 
HETATM    2  CAI   D T 539     -14.882   4.622  -3.615  1.00 91.56     0.020 A 
HETATM    3  CAJ   D T 539     -13.685   5.266  -3.326  1.00 91.57     0.020 A 
HETATM    4  CBE   D T 539     -13.779   3.240  -5.215  1.00 91.36     0.061 A 
HETATM    5  CBA   D T 539     -13.851   2.226  -6.158  1.00 91.28     0.199 A 
HETATM    6  OAA   D T 539     -14.933   1.682  -6.384  1.00 91.36    -0.286 OA
HETATM    7  CBC   D T 539     -12.704   1.841  -6.837  1.00 91.28     0.069 A 
HETATM    8  CAW   D T 539     -12.752   0.833  -7.786  1.00 91.39     0.134 A 
HETATM    9  OAE   D T 539     -13.921   0.221  -8.059  1.00 91.60    -0.190 OA
HETATM   10  CAG   D T 539     -11.610   0.433  -8.452  1.00 91.43     0.030 A 
HETATM   11  CAH   D T 539     -10.407   1.064  -8.166  1.00 91.48     0.030 A 
HETATM   12  CAX   D T 539     -10.342   2.077  -7.223  1.00 91.18     0.134 A 
HETATM   13  OAF   D T 539      -9.164   2.687  -6.952  1.00 91.01    -0.190 OA
HETATM   14  CBD   D T 539     -11.494   2.463  -6.563  1.00 91.30     0.069 A 
HETATM   15  CBB   D T 539     -11.422   3.475  -5.625  1.00 91.65     0.199 A 
HETATM   16  OAB   D T 539     -10.321   3.986  -5.426  1.00 91.77    -0.286 OA
HETATM   17  CBF   D T 539     -12.567   3.884  -4.935  1.00 91.49     0.061 A 
HETATM   18  CAZ   D T 539     -12.522   4.905  -3.975  1.00 91.40     0.079 A 
ENDROOT
BRANCH   1  19
HETATM   19  NAU   D T 539     -16.089   2.991  -4.840  1.00 91.78    -0.268 NA
BRANCH  19  20
HETATM   20  CAQ   D T 539     -17.389   3.617  -4.562  1.00 95.07     0.164 C 
BRANCH  20  21
HETATM   21  CAO   D T 539     -17.991   3.044  -3.273  1.00 97.10     0.316 C 
BRANCH  21  22
HETATM   22  NAS   D T 539     -18.386   4.169  -2.397  1.00100.56     0.344 N 
BRANCH  22  23
HETATM   23  CAM   D T 539     -17.654   4.179  -1.106  1.00103.43     0.326 C 
BRANCH  23  24
HETATM   24  CAK   D T 539     -16.979   2.817  -0.846  1.00104.61     0.221 C 
HETATM   25  OAC   D T 539     -15.580   3.009  -0.537  1.00105.31    -0.218 OA
ENDBRANCH  23  24
ENDBRANCH  22  23
ENDBRANCH  21  22
ENDBRANCH  20  21
ENDBRANCH  19  20
ENDBRANCH   1  19
BRANCH  18  26
HETATM   26  NAV   D T 539     -11.413   5.558  -3.648  1.00 91.54    -0.268 NA
BRANCH  26  27
HETATM   27  CAR   D T 539     -11.099   5.839  -2.248  1.00 93.33     0.164 C 
BRANCH  27  28
HETATM   28  CAP   D T 539     -10.581   7.267  -2.214  1.00 95.29     0.316 C 
BRANCH  28  29
HETATM   29  NAT   D T 539     -11.658   8.187  -2.607  1.00 97.82     0.344 N 
BRANCH  29  30
HETATM   30  CAN   D T 539     -12.550   8.524  -1.466  1.00 99.13     0.326 C 
BRANCH  30  31
HETATM   31  CAL   D T 539     -12.190   9.914  -0.885  1.00100.48     0.221 C 
HETATM   32  OAD   D T 539     -12.790  10.153   0.411  1.00101.70    -0.218 OA
ENDBRANCH  30  31
ENDBRANCH  29  30
ENDBRANCH  28  29
ENDBRANCH  27  28
ENDBRANCH  26  27
ENDBRANCH  18  26
TORSDOF 12
ENDMDL
MODEL 3
REMARK VINA RESULT:    -6.943      1.053      5.899
REMARK INTER + INTRA:         -12.961
REMARK INTER:                 -11.950
REMARK INTRA:                  -1.010
REMARK UNBOUND:                -1.146
REMARK  12 active torsions:
REMARK  status: ('A' for Active; 'I' for Inactive)
REMARK    1  A    between atoms: CAK_2  and  CAM_3 
REMARK    2  A    between atoms: CAM_3  and  NAS_4 
REMARK    3  A    between atoms: NAS_4  and  CAO_5 
REMARK    4  A    between atoms: CAO_5  and  CAQ_6 
REMARK    5  A    between atoms: CAQ_6  and  NAU_7 
REMARK    6  A    between atoms: NAU_7  and  CAY_8 
REMARK    7  A    between atoms: CAZ_25  and  NAV_26 
REMARK    8  A    between atoms: NAV_26  and  CAR_27 
REMARK    9  A    between atoms: CAR_27  and  CAP_28 
REMARK   10  A    between atoms: CAP_28  and  NAT_29 
REMARK   11  A    between atoms: NAT_29  and  CAN_30 
REMARK   12  A    between atoms: CAN_30  and  CAL_31 
ROOT
HETATM    1  CAY   D T 539     -14.992   3.600  -4.480  1.00 91.53     0.079 A 
HETATM    2  CAI   D T 539     -15.015   4.589  -3.508  1.00 91.56     0.020 A 
HETATM    3  CAJ   D T 539     -13.859   5.275  -3.154  1.00 91.57     0.020 A 
HETATM    4  CBE   D T 539     -13.793   3.306  -5.103  1.00 91.36     0.061 A 
HETATM    5  CBA   D T 539     -13.785   2.319  -6.076  1.00 91.28     0.199 A 
HETATM    6  OAA   D T 539     -14.832   1.736  -6.359  1.00 91.36    -0.286 OA
HETATM    7  CBC   D T 539     -12.597   2.004  -6.721  1.00 91.28     0.069 A 
HETATM    8  CAW   D T 539     -12.565   1.024  -7.700  1.00 91.39     0.134 A 
HETATM    9  OAE   D T 539     -13.694   0.371  -8.035  1.00 91.60    -0.190 OA
HETATM   10  CAG   D T 539     -11.382   0.695  -8.333  1.00 91.43     0.030 A 
HETATM   11  CAH   D T 539     -10.220   1.369  -7.982  1.00 91.48     0.030 A 
HETATM   12  CAX   D T 539     -10.235   2.354  -7.009  1.00 91.18     0.134 A 
HETATM   13  OAF   D T 539      -9.096   3.006  -6.676  1.00 91.01    -0.190 OA
HETATM   14  CBD   D T 539     -11.427   2.670  -6.384  1.00 91.30     0.069 A 
HETATM   15  CBB   D T 539     -11.434   3.655  -5.415  1.00 91.65     0.199 A 
HETATM   16  OAB   D T 539     -10.366   4.207  -5.159  1.00 91.77    -0.286 OA
HETATM   17  CBF   D T 539     -12.621   3.993  -4.758  1.00 91.49     0.061 A 
HETATM   18  CAZ   D T 539     -12.658   4.985  -3.768  1.00 91.40     0.079 A 
ENDROOT
BRANCH   1  19
HETATM   19  NAU   D T 539     -16.102   2.945  -4.824  1.00 91.78    -0.268 NA
BRANCH  19  20
HETATM   20  CAQ   D T 539     -17.431   3.557  -4.696  1.00 95.07     0.164 C 
BRANCH  20  21
HETATM   21  CAO   D T 539     -18.340   2.678  -3.829  1.00 97.10     0.316 C 
BRANCH  21  22
HETATM   22  NAS   D T 539     -18.017   2.925  -2.407  1.00100.56     0.344 N 
BRANCH  22  23
HETATM   23  CAM   D T 539     -18.449   4.266  -1.941  1.00103.43     0.326 C 
BRANCH  23  24
HETATM   24  CAK   D T 539     -19.957   4.474  -2.187  1.00104.61     0.221 C 
HETATM   25  OAC   D T 539     -20.456   5.533  -1.339  1.00105.31    -0.218 OA
ENDBRANCH  23  24
ENDBRANCH  22  23
ENDBRANCH  21  22
ENDBRANCH  20  21
ENDBRANCH  19  20
ENDBRANCH   1  19
BRANCH  18  26
HETATM   26  NAV   D T 539     -11.592   5.676  -3.379  1.00 91.54    -0.268 NA
BRANCH  26  27
HETATM   27  CAR   D T 539     -11.449   6.107  -1.990  1.00 93.33     0.164 C 
BRANCH  27  28
HETATM   28  CAP   D T 539     -11.064   7.575  -2.045  1.00 95.29     0.316 C 
BRANCH  28  29
HETATM   29  NAT   D T 539     -12.277   8.402  -1.975  1.00 97.82     0.344 N 
BRANCH  29  30
HETATM   30  CAN   D T 539     -12.087   9.604  -1.120  1.00 99.13     0.326 C 
BRANCH  30  31
HETATM   31  CAL   D T 539     -12.649  10.865  -1.821  1.00100.48     0.221 C 
HETATM   32  OAD   D T 539     -12.680  10.739  -3.263  1.00101.70    -0.218 OA
ENDBRANCH  30  31
ENDBRANCH  29  30
ENDBRANCH  28  29
ENDBRANCH  27  28
ENDBRANCH  26  27
ENDBRANCH  18  26
TORSDOF 12
ENDMDL
MODEL 4
REMARK VINA RESULT:    -6.846      1.920      6.808
REMARK INTER + INTRA:         -12.795
REMARK INTER:                 -11.827
REMARK INTRA:                  -0.968
REMARK UNBOUND:                -1.146
REMARK  12 active torsions:
REMARK  status: ('A' for Active; 'I' for Inactive)
REMARK    1  A    between atoms: CAK_2  and  CAM_3 
REMARK    2  A    between atoms: CAM_3  and  NAS_4 
REMARK    3  A    between atoms: NAS_4  and  CAO_5 
REMARK    4  A    between atoms: CAO_5  and  CAQ_6 
REMARK    5  A    between atoms: CAQ_6  and  NAU_7 
REMARK    6  A    between atoms: NAU_7  and  CAY_8 
REMARK    7  A    between atoms: CAZ_25  and  NAV_26 
REMARK    8  A    between atoms: NAV_26  and  CAR_27 
REMARK    9  A    between atoms: CAR_27  and  CAP_28 
REMARK   10  A    between atoms: CAP_28  and  NAT_29 
REMARK   11  A    between atoms: NAT_29  and  CAN_30 
REMARK   12  A    between atoms: CAN_30  and  CAL_31 
ROOT
HETATM    1  CAY   D T 539     -15.116   2.670  -5.096  1.00 91.53     0.079 A 
HETATM    2  CAI   D T 539     -15.439   3.603  -4.122  1.00 91.56     0.020 A 
HETATM    3  CAJ   D T 539     -14.482   4.472  -3.614  1.00 91.57     0.020 A 
HETATM    4  CBE   D T 539     -13.817   2.619  -5.565  1.00 91.36     0.061 A 
HETATM    5  CBA   D T 539     -13.508   1.685  -6.542  1.00 91.28     0.199 A 
HETATM    6  OAA   D T 539     -14.388   0.934  -6.964  1.00 91.36    -0.286 OA
HETATM    7  CBC   D T 539     -12.212   1.613  -7.034  1.00 91.28     0.069 A 
HETATM    8  CAW   D T 539     -11.881   0.691  -8.013  1.00 91.39     0.134 A 
HETATM    9  OAE   D T 539     -12.822  -0.142  -8.499  1.00 91.60    -0.190 OA
HETATM   10  CAG   D T 539     -10.589   0.603  -8.495  1.00 91.43     0.030 A 
HETATM   11  CAH   D T 539      -9.623   1.462  -7.990  1.00 91.48     0.030 A 
HETATM   12  CAX   D T 539      -9.938   2.392  -7.013  1.00 91.18     0.134 A 
HETATM   13  OAF   D T 539      -8.987   3.226  -6.529  1.00 91.01    -0.190 OA
HETATM   14  CBD   D T 539     -11.235   2.465  -6.541  1.00 91.30     0.069 A 
HETATM   15  CBB   D T 539     -11.541   3.397  -5.569  1.00 91.65     0.199 A 
HETATM   16  OAB   D T 539     -10.632   4.123  -5.171  1.00 91.77    -0.286 OA
HETATM   17  CBF   D T 539     -12.842   3.493  -5.064  1.00 91.49     0.061 A 
HETATM   18  CAZ   D T 539     -13.181   4.425  -4.074  1.00 91.40     0.079 A 
ENDROOT
BRANCH   1  19
HETATM   19  NAU   D T 539     -16.037   1.839  -5.587  1.00 91.78    -0.268 NA
BRANCH  19  20
HETATM   20  CAQ   D T 539     -17.470   2.157  -5.538  1.00 95.07     0.164 C 
BRANCH  20  21
HETATM   21  CAO   D T 539     -18.299   0.868  -5.493  1.00 97.10     0.316 C 
BRANCH  21  22
HETATM   22  NAS   D T 539     -17.556  -0.196  -6.204  1.00100.56     0.344 N 
BRANCH  22  23
HETATM   23  CAM   D T 539     -17.823  -1.550  -5.657  1.00103.43     0.326 C 
BRANCH  23  24
HETATM   24  CAK   D T 539     -16.513  -2.350  -5.509  1.00104.61     0.221 C 
HETATM   25  OAC   D T 539     -15.628  -2.059  -6.614  1.00105.31    -0.218 OA
ENDBRANCH  23  24
ENDBRANCH  22  23
ENDBRANCH  21  22
ENDBRANCH  20  21
ENDBRANCH  19  20
ENDBRANCH   1  19
BRANCH  18  26
HETATM   26  NAV   D T 539     -12.316   5.282  -3.543  1.00 91.54    -0.268 NA
BRANCH  26  27
HETATM   27  CAR   D T 539     -12.757   6.594  -3.075  1.00 93.33     0.164 C 
BRANCH  27  28
HETATM   28  CAP   D T 539     -11.906   6.912  -1.858  1.00 95.29     0.316 C 
BRANCH  28  29
HETATM   29  NAT   D T 539     -11.593   8.348  -1.841  1.00 97.82     0.344 N 
BRANCH  29  30
HETATM   30  CAN   D T 539     -12.641   9.142  -1.145  1.00 99.13     0.326 C 
BRANCH  30  31
HETATM   31  CAL   D T 539     -12.541  10.637  -1.536  1.00100.48     0.221 C 
HETATM   32  OAD   D T 539     -12.686  10.856  -2.960  1.00101.70    -0.218 OA
ENDBRANCH  30  31
ENDBRANCH  29  30
ENDBRANCH  28  29
ENDBRANCH  27  28
ENDBRANCH  26  27
ENDBRANCH  18  26
TORSDOF 12
ENDMDL
MODEL 5
REMARK VINA RESULT:    -6.796      1.770      2.277
REMARK INTER + INTRA:         -12.710
REMARK INTER:                 -11.686
REMARK INTRA:                  -1.025
REMARK UNBOUND:                -1.146
REMARK  12 active torsions:
REMARK  status: ('A' for Active; 'I' for Inactive)
REMARK    1  A    between atoms: CAK_2  and  CAM_3 
REMARK    2  A    between atoms: CAM_3  and  NAS_4 
REMARK    3  A    between atoms: NAS_4  and  CAO_5 
REMARK    4  A    between atoms: CAO_5  and  CAQ_6 
REMARK    5  A    between atoms: CAQ_6  and  NAU_7 
REMARK    6  A    between atoms: NAU_7  and  CAY_8 
REMARK    7  A    between atoms: CAZ_25  and  NAV_26 
REMARK    8  A    between atoms: NAV_26  and  CAR_27 
REMARK    9  A    between atoms: CAR_27  and  CAP_28 
REMARK   10  A    between atoms: CAP_28  and  NAT_29 
REMARK   11  A    between atoms: NAT_29  and  CAN_30 
REMARK   12  A    between atoms: CAN_30  and  CAL_31 
ROOT
HETATM    1  CAY   D T 539     -12.618   4.735  -4.052  1.00 91.53     0.079 A 
HETATM    2  CAI   D T 539     -13.875   4.955  -3.509  1.00 91.56     0.020 A 
HETATM    3  CAJ   D T 539     -14.976   4.217  -3.923  1.00 91.57     0.020 A 
HETATM    4  CBE   D T 539     -12.472   3.757  -5.019  1.00 91.36     0.061 A 
HETATM    5  CBA   D T 539     -11.210   3.544  -5.551  1.00 91.28     0.199 A 
HETATM    6  OAA   D T 539     -10.261   4.222  -5.154  1.00 91.36    -0.286 OA
HETATM    7  CBC   D T 539     -11.033   2.567  -6.520  1.00 91.28     0.069 A 
HETATM    8  CAW   D T 539      -9.780   2.334  -7.064  1.00 91.39     0.134 A 
HETATM    9  OAE   D T 539      -8.721   3.054  -6.648  1.00 91.60    -0.190 OA
HETATM   10  CAG   D T 539      -9.600   1.374  -8.042  1.00 91.43     0.030 A 
HETATM   11  CAH   D T 539     -10.695   0.635  -8.469  1.00 91.48     0.030 A 
HETATM   12  CAX   D T 539     -11.954   0.853  -7.933  1.00 91.18     0.134 A 
HETATM   13  OAF   D T 539     -13.014   0.126  -8.357  1.00 91.01    -0.190 OA
HETATM   14  CBD   D T 539     -12.116   1.819  -6.958  1.00 91.30     0.069 A 
HETATM   15  CBB   D T 539     -13.374   2.029  -6.427  1.00 91.65     0.199 A 
HETATM   16  OAB   D T 539     -14.294   1.336  -6.856  1.00 91.77    -0.286 OA
HETATM   17  CBF   D T 539     -13.574   3.003  -5.444  1.00 91.49     0.061 A 
HETATM   18  CAZ   D T 539     -14.840   3.242  -4.890  1.00 91.40     0.079 A 
ENDROOT
BRANCH   1  19
HETATM   19  NAU   D T 539     -11.560   5.440  -3.650  1.00 91.78    -0.268 NA
BRANCH  19  20
HETATM   20  CAQ   D T 539     -11.435   5.929  -2.270  1.00 95.07     0.164 C 
BRANCH  20  21
HETATM   21  CAO   D T 539     -10.806   7.327  -2.256  1.00 97.10     0.316 C 
BRANCH  21  22
HETATM   22  NAS   D T 539     -11.865   8.324  -2.527  1.00100.56     0.344 N 
BRANCH  22  23
HETATM   23  CAM   D T 539     -12.621   8.708  -1.308  1.00103.43     0.326 C 
BRANCH  23  24
HETATM   24  CAK   D T 539     -12.526  10.227  -1.060  1.00104.61     0.221 C 
HETATM   25  OAC   D T 539     -12.715  10.944  -2.302  1.00105.31    -0.218 OA
ENDBRANCH  23  24
ENDBRANCH  22  23
ENDBRANCH  21  22
ENDBRANCH  20  21
ENDBRANCH  19  20
ENDBRANCH   1  19
BRANCH  18  26
HETATM   26  NAV   D T 539     -15.934   2.576  -5.243  1.00 91.54    -0.268 NA
BRANCH  26  27
HETATM   27  CAR   D T 539     -17.258   3.062  -4.861  1.00 93.33     0.164 C 
BRANCH  27  28
HETATM   28  CAP   D T 539     -18.202   1.885  -5.036  1.00 95.29     0.316 C 
BRANCH  28  29
HETATM   29  NAT   D T 539     -18.068   1.347  -6.397  1.00 97.82     0.344 N 
BRANCH  29  30
HETATM   30  CAN   D T 539     -18.251  -0.129  -6.437  1.00 99.13     0.326 C 
BRANCH  30  31
HETATM   31  CAL   D T 539     -16.903  -0.837  -6.724  1.00100.48     0.221 C 
HETATM   32  OAD   D T 539     -16.464  -1.672  -5.626  1.00101.70    -0.218 OA
ENDBRANCH  30  31
ENDBRANCH  29  30
ENDBRANCH  28  29
ENDBRANCH  27  28
ENDBRANCH  26  27
ENDBRANCH  18  26
TORSDOF 12
ENDMDL
MODEL 6
REMARK VINA RESULT:    -6.663      1.555      1.740
REMARK INTER + INTRA:         -12.483
REMARK INTER:                 -11.668
REMARK INTRA:                  -0.815
REMARK UNBOUND:                -1.146
REMARK  12 active torsions:
REMARK  status: ('A' for Active; 'I' for Inactive)
REMARK    1  A    between atoms: CAK_2  and  CAM_3 
REMARK    2  A    between atoms: CAM_3  and  NAS_4 
REMARK    3  A    between atoms: NAS_4  and  CAO_5 
REMARK    4  A    between atoms: CAO_5  and  CAQ_6 
REMARK    5  A    between atoms: CAQ_6  and  NAU_7 
REMARK    6  A    between atoms: NAU_7  and  CAY_8 
REMARK    7  A    between atoms: CAZ_25  and  NAV_26 
REMARK    8  A    between atoms: NAV_26  and  CAR_27 
REMARK    9  A    between atoms: CAR_27  and  CAP_28 
REMARK   10  A    between atoms: CAP_28  and  NAT_29 
REMARK   11  A    between atoms: NAT_29  and  CAN_30 
REMARK   12  A    between atoms: CAN_30  and  CAL_31 
ROOT
HETATM    1  CAY   D T 539     -12.555   4.752  -3.929  1.00 91.53     0.079 A 
HETATM    2  CAI   D T 539     -13.768   5.038  -3.321  1.00 91.56     0.020 A 
HETATM    3  CAJ   D T 539     -14.931   4.375  -3.692  1.00 91.57     0.020 A 
HETATM    4  CBE   D T 539     -12.516   3.785  -4.917  1.00 91.36     0.061 A 
HETATM    5  CBA   D T 539     -11.296   3.506  -5.514  1.00 91.28     0.199 A 
HETATM    6  OAA   D T 539     -10.290   4.118  -5.154  1.00 91.36    -0.286 OA
HETATM    7  CBC   D T 539     -11.226   2.538  -6.506  1.00 91.28     0.069 A 
HETATM    8  CAW   D T 539     -10.018   2.239  -7.114  1.00 91.39     0.134 A 
HETATM    9  OAE   D T 539      -8.898   2.887  -6.740  1.00 91.60    -0.190 OA
HETATM   10  CAG   D T 539      -9.945   1.289  -8.114  1.00 91.43     0.030 A 
HETATM   11  CAH   D T 539     -11.102   0.625  -8.498  1.00 91.48     0.030 A 
HETATM   12  CAX   D T 539     -12.318   0.909  -7.898  1.00 91.18     0.134 A 
HETATM   13  OAF   D T 539     -13.440   0.255  -8.280  1.00 91.01    -0.190 OA
HETATM   14  CBD   D T 539     -12.373   1.865  -6.901  1.00 91.30     0.069 A 
HETATM   15  CBB   D T 539     -13.589   2.141  -6.305  1.00 91.65     0.199 A 
HETATM   16  OAB   D T 539     -14.569   1.513  -6.699  1.00 91.77    -0.286 OA
HETATM   17  CBF   D T 539     -13.681   3.107  -5.298  1.00 91.49     0.061 A 
HETATM   18  CAZ   D T 539     -14.902   3.412  -4.680  1.00 91.40     0.079 A 
ENDROOT
BRANCH   1  19
HETATM   19  NAU   D T 539     -11.437   5.385  -3.570  1.00 91.78    -0.268 NA
BRANCH  19  20
HETATM   20  CAQ   D T 539     -11.215   5.838  -2.190  1.00 95.07     0.164 C 
BRANCH  20  21
HETATM   21  CAO   D T 539     -10.762   7.303  -2.177  1.00 97.10     0.316 C 
BRANCH  21  22
HETATM   22  NAS   D T 539     -11.928   8.160  -2.480  1.00100.56     0.344 N 
BRANCH  22  23
HETATM   23  CAM   D T 539     -12.553   8.735  -1.262  1.00103.43     0.326 C 
BRANCH  23  24
HETATM   24  CAK   D T 539     -12.275  10.248  -1.164  1.00104.61     0.221 C 
HETATM   25  OAC   D T 539     -11.515  10.537   0.032  1.00105.31    -0.218 OA
ENDBRANCH  23  24
ENDBRANCH  22  23
ENDBRANCH  21  22
ENDBRANCH  20  21
ENDBRANCH  19  20
ENDBRANCH   1  19
BRANCH  18  26
HETATM   26  NAV   D T 539     -16.050   2.820  -4.989  1.00 91.54    -0.268 NA
BRANCH  26  27
HETATM   27  CAR   D T 539     -17.327   3.461  -4.679  1.00 93.33     0.164 C 
BRANCH  27  28
HETATM   28  CAP   D T 539     -18.245   2.353  -4.192  1.00 95.29     0.316 C 
BRANCH  28  29
HETATM   29  NAT   D T 539     -19.018   2.830  -3.037  1.00 97.82     0.344 N 
BRANCH  29  30
HETATM   30  CAN   D T 539     -20.464   2.978  -3.354  1.00 99.13     0.326 C 
BRANCH  30  31
HETATM   31  CAL   D T 539     -20.793   4.445  -3.725  1.00100.48     0.221 C 
HETATM   32  OAD   D T 539     -22.113   4.851  -3.291  1.00101.70    -0.218 OA
ENDBRANCH  30  31
ENDBRANCH  29  30
ENDBRANCH  28  29
ENDBRANCH  27  28
ENDBRANCH  26  27
ENDBRANCH  18  26
TORSDOF 12
ENDMDL
MODEL 7
REMARK VINA RESULT:    -6.623      2.446      5.859
REMARK INTER + INTRA:         -12.415
REMARK INTER:                 -11.195
REMARK INTRA:                  -1.220
REMARK UNBOUND:                -1.146
REMARK  12 active torsions:
REMARK  status: ('A' for Active; 'I' for Inactive)
REMARK    1  A    between atoms: CAK_2  and  CAM_3 
REMARK    2  A    between atoms: CAM_3  and  NAS_4 
REMARK    3  A    between atoms: NAS_4  and  CAO_5 
REMARK    4  A    between atoms: CAO_5  and  CAQ_6 
REMARK    5  A    between atoms: CAQ_6  and  NAU_7 
REMARK    6  A    between atoms: NAU_7  and  CAY_8 
REMARK    7  A    between atoms: CAZ_25  and  NAV_26 
REMARK    8  A    between atoms: NAV_26  and  CAR_27 
REMARK    9  A    between atoms: CAR_27  and  CAP_28 
REMARK   10  A    between atoms: CAP_28  and  NAT_29 
REMARK   11  A    between atoms: NAT_29  and  CAN_30 
REMARK   12  A    between atoms: CAN_30  and  CAL_31 
ROOT
HETATM    1  CAY   D T 539     -13.478   2.525  -5.833  1.00 91.53     0.079 A 
HETATM    2  CAI   D T 539     -14.791   2.101  -5.973  1.00 91.56     0.020 A 
HETATM    3  CAJ   D T 539     -15.816   2.681  -5.235  1.00 91.57     0.020 A 
HETATM    4  CBE   D T 539     -13.199   3.547  -4.944  1.00 91.36     0.061 A 
HETATM    5  CBA   D T 539     -11.883   3.964  -4.817  1.00 91.28     0.199 A 
HETATM    6  OAA   D T 539     -11.006   3.422  -5.490  1.00 91.36    -0.286 OA
HETATM    7  CBC   D T 539     -11.574   4.990  -3.935  1.00 91.28     0.069 A 
HETATM    8  CAW   D T 539     -10.266   5.427  -3.794  1.00 91.39     0.134 A 
HETATM    9  OAE   D T 539      -9.285   4.858  -4.520  1.00 91.60    -0.190 OA
HETATM   10  CAG   D T 539      -9.949   6.437  -2.905  1.00 91.43     0.030 A 
HETATM   11  CAH   D T 539     -10.964   7.019  -2.158  1.00 91.48     0.030 A 
HETATM   12  CAX   D T 539     -12.277   6.597  -2.290  1.00 91.18     0.134 A 
HETATM   13  OAF   D T 539     -13.259   7.173  -1.557  1.00 91.01    -0.190 OA
HETATM   14  CBD   D T 539     -12.576   5.584  -3.182  1.00 91.30     0.069 A 
HETATM   15  CBB   D T 539     -13.888   5.170  -3.309  1.00 91.65     0.199 A 
HETATM   16  OAB   D T 539     -14.731   5.733  -2.613  1.00 91.77    -0.286 OA
HETATM   17  CBF   D T 539     -14.223   4.143  -4.197  1.00 91.49     0.061 A 
HETATM   18  CAZ   D T 539     -15.545   3.699  -4.343  1.00 91.40     0.079 A 
ENDROOT
BRANCH   1  19
HETATM   19  NAU   D T 539     -12.495   1.972  -6.544  1.00 91.78    -0.268 NA
BRANCH  19  20
HETATM   20  CAQ   D T 539     -12.769   1.041  -7.648  1.00 95.07     0.164 C 
BRANCH  20  21
HETATM   21  CAO   D T 539     -11.459   0.454  -8.186  1.00 97.10     0.316 C 
BRANCH  21  22
HETATM   22  NAS   D T 539     -10.420   1.507  -8.148  1.00100.56     0.344 N 
BRANCH  22  23
HETATM   23  CAM   D T 539      -9.088   0.988  -7.749  1.00103.43     0.326 C 
BRANCH  23  24
HETATM   24  CAK   D T 539      -8.424   1.919  -6.714  1.00104.61     0.221 C 
HETATM   25  OAC   D T 539      -7.482   1.173  -5.910  1.00105.31    -0.218 OA
ENDBRANCH  23  24
ENDBRANCH  22  23
ENDBRANCH  21  22
ENDBRANCH  20  21
ENDBRANCH  19  20
ENDBRANCH   1  19
BRANCH  18  26
HETATM   26  NAV   D T 539     -16.570   4.206  -3.668  1.00 91.54    -0.268 NA
BRANCH  26  27
HETATM   27  CAR   D T 539     -17.510   3.331  -2.970  1.00 93.33     0.164 C 
BRANCH  27  28
HETATM   28  CAP   D T 539     -17.499   3.778  -1.518  1.00 95.29     0.316 C 
BRANCH  28  29
HETATM   29  NAT   D T 539     -18.724   4.537  -1.231  1.00 97.82     0.344 N 
BRANCH  29  30
HETATM   30  CAN   D T 539     -18.430   5.894  -0.696  1.00 99.13     0.326 C 
BRANCH  30  31
HETATM   31  CAL   D T 539     -17.090   5.894   0.080  1.00100.48     0.221 C 
HETATM   32  OAD   D T 539     -16.387   7.157  -0.015  1.00101.70    -0.218 OA
ENDBRANCH  30  31
ENDBRANCH  29  30
ENDBRANCH  28  29
ENDBRANCH  27  28
ENDBRANCH  26  27
ENDBRANCH  18  26
TORSDOF 12
ENDMDL
MODEL 8
REMARK VINA RESULT:    -6.478      2.388      3.810
REMARK INTER + INTRA:         -12.168
REMARK INTER:                 -10.703
REMARK INTRA:                  -1.465
REMARK UNBOUND:                -1.146
REMARK  12 active torsions:
REMARK  status: ('A' for Active; 'I' for Inactive)
REMARK    1  A    between atoms: CAK_2  and  CAM_3 
REMARK    2  A    between atoms: CAM_3  and  NAS_4 
REMARK    3  A    between atoms: NAS_4  and  CAO_5 
REMARK    4  A    between atoms: CAO_5  and  CAQ_6 
REMARK    5  A    between atoms: CAQ_6  and  NAU_7 
REMARK    6  A    between atoms: NAU_7  and  CAY_8 
REMARK    7  A    between atoms: CAZ_25  and  NAV_26 
REMARK    8  A    between atoms: NAV_26  and  CAR_27 
REMARK    9  A    between atoms: CAR_27  and  CAP_28 
REMARK   10  A    between atoms: CAP_28  and  NAT_29 
REMARK   11  A    between atoms: NAT_29  and  CAN_30 
REMARK   12  A    between atoms: CAN_30  and  CAL_31 
ROOT
HETATM    1  CAY   D T 539     -13.682   3.990  -4.466  1.00 91.53     0.079 A 
HETATM    2  CAI   D T 539     -15.027   3.909  -4.136  1.00 91.56     0.020 A 
HETATM    3  CAJ   D T 539     -15.861   2.979  -4.743  1.00 91.57     0.020 A 
HETATM    4  CBE   D T 539     -13.175   3.120  -5.414  1.00 91.36     0.061 A 
HETATM    5  CBA   D T 539     -11.829   3.207  -5.732  1.00 91.28     0.199 A 
HETATM    6  OAA   D T 539     -11.125   4.047  -5.169  1.00 91.36    -0.286 OA
HETATM    7  CBC   D T 539     -11.291   2.345  -6.676  1.00 91.28     0.069 A 
HETATM    8  CAW   D T 539      -9.948   2.411  -7.007  1.00 91.39     0.134 A 
HETATM    9  OAE   D T 539      -9.150   3.315  -6.406  1.00 91.60    -0.190 OA
HETATM   10  CAG   D T 539      -9.411   1.566  -7.960  1.00 91.43     0.030 A 
HETATM   11  CAH   D T 539     -10.236   0.638  -8.578  1.00 91.48     0.030 A 
HETATM   12  CAX   D T 539     -11.581   0.555  -8.256  1.00 91.18     0.134 A 
HETATM   13  OAF   D T 539     -12.377  -0.356  -8.865  1.00 91.01    -0.190 OA
HETATM   14  CBD   D T 539     -12.102   1.409  -7.303  1.00 91.30     0.069 A 
HETATM   15  CBB   D T 539     -13.444   1.320  -6.986  1.00 91.65     0.199 A 
HETATM   16  OAB   D T 539     -14.111   0.472  -7.576  1.00 91.77    -0.286 OA
HETATM   17  CBF   D T 539     -14.005   2.174  -6.031  1.00 91.49     0.061 A 
HETATM   18  CAZ   D T 539     -15.364   2.109  -5.693  1.00 91.40     0.079 A 
ENDROOT
BRANCH   1  19
HETATM   19  NAU   D T 539     -12.880   4.879  -3.880  1.00 91.78    -0.268 NA
BRANCH  19  20
HETATM   20  CAQ   D T 539     -13.380   5.826  -2.873  1.00 95.07     0.164 C 
BRANCH  20  21
HETATM   21  CAO   D T 539     -12.525   5.753  -1.603  1.00 97.10     0.316 C 
BRANCH  21  22
HETATM   22  NAS   D T 539     -13.131   4.766  -0.682  1.00100.56     0.344 N 
BRANCH  22  23
HETATM   23  CAM   D T 539     -14.610   4.876  -0.613  1.00103.43     0.326 C 
BRANCH  23  24
HETATM   24  CAK   D T 539     -15.251   3.497  -0.357  1.00104.61     0.221 C 
HETATM   25  OAC   D T 539     -16.565   3.442  -0.960  1.00105.31    -0.218 OA
ENDBRANCH  23  24
ENDBRANCH  22  23
ENDBRANCH  21  22
ENDBRANCH  20  21
ENDBRANCH  19  20
ENDBRANCH   1  19
BRANCH  18  26
HETATM   26  NAV   D T 539     -16.216   1.248  -6.236  1.00 91.54    -0.268 NA
BRANCH  26  27
HETATM   27  CAR   D T 539     -17.590   1.149  -5.747  1.00 93.33     0.164 C 
BRANCH  27  28
HETATM   28  CAP   D T 539     -17.977  -0.314  -5.878  1.00 95.29     0.316 C 
BRANCH  28  29
HETATM   29  NAT   D T 539     -17.325  -0.888  -7.064  1.00 97.82     0.344 N 
BRANCH  29  30
HETATM   30  CAN   D T 539     -16.987  -2.325  -6.876  1.00 99.13     0.326 C 
BRANCH  30  31
HETATM   31  CAL   D T 539     -16.227  -2.536  -5.543  1.00100.48     0.221 C 
HETATM   32  OAD   D T 539     -14.813  -2.245  -5.651  1.00101.70    -0.218 OA
ENDBRANCH  30  31
ENDBRANCH  29  30
ENDBRANCH  28  29
ENDBRANCH  27  28
ENDBRANCH  26  27
ENDBRANCH  18  26
TORSDOF 12
ENDMDL
