MODEL 1
REMARK VINA RESULT:    -6.913      0.000      0.000
REMARK INTER + INTRA:         -13.209
REMARK INTER:                 -11.763
REMARK INTRA:                  -1.446
REMARK UNBOUND:                -1.446
REMARK  12 active torsions:
REMARK  status: ('A' for Active; 'I' for Inactive)
REMARK    1  A    between atoms: CAK_2  and  CAM_3 
REMARK    2  A    between atoms: CAM_3  and  NAS_4 
REMARK    3  A    between atoms: NAS_4  and  CAO_5 
REMARK    4  A    between atoms: CAO_5  and  CAQ_6 
REMARK    5  A    between atoms: CAQ_6  and  NAU_7 
REMARK    6  A    between atoms: NAU_7  and  CAY_8 
REMARK    7  A    between atoms: CAZ_25  and  NAV_26 
REMARK    8  A    between atoms: NAV_26  and  CAR_27 
REMARK    9  A    between atoms: CAR_27  and  CAP_28 
REMARK   10  A    between atoms: CAP_28  and  NAT_29 
REMARK   11  A    between atoms: NAT_29  and  CAN_30 
REMARK   12  A    between atoms: CAN_30  and  CAL_31 
ROOT
HETATM    1  CAY   D T 539      -3.429   0.140 -12.406  1.00 91.53     0.079 A 
HETATM    2  CAI   D T 539      -3.306   1.466 -12.017  1.00 91.56     0.020 A 
HETATM    3  CAJ   D T 539      -2.229   1.893 -11.251  1.00 91.57     0.020 A 
HETATM    4  CBE   D T 539      -2.454  -0.760 -12.022  1.00 91.36     0.061 A 
HETATM    5  CBA   D T 539      -2.586  -2.082 -12.420  1.00 91.28     0.199 A 
HETATM    6  OAA   D T 539      -3.557  -2.417 -13.099  1.00 91.36    -0.286 OA
HETATM    7  CBC   D T 539      -1.620  -3.008 -12.052  1.00 91.28     0.069 A 
HETATM    8  CAW   D T 539      -1.729  -4.332 -12.442  1.00 91.39     0.134 A 
HETATM    9  OAE   D T 539      -2.777  -4.730 -13.189  1.00 91.60    -0.190 OA
HETATM   10  CAG   D T 539      -0.781  -5.262 -12.064  1.00 91.43     0.030 A 
HETATM   11  CAH   D T 539       0.297  -4.848 -11.292  1.00 91.48     0.030 A 
HETATM   12  CAX   D T 539       0.424  -3.527 -10.897  1.00 91.18     0.134 A 
HETATM   13  OAF   D T 539       1.479  -3.135 -10.146  1.00 91.01    -0.190 OA
HETATM   14  CBD   D T 539      -0.536  -2.610 -11.281  1.00 91.30     0.069 A 
HETATM   15  CBB   D T 539      -0.402  -1.293 -10.885  1.00 91.65     0.199 A 
HETATM   16  OAB   D T 539       0.578  -1.004 -10.204  1.00 91.77    -0.286 OA
HETATM   17  CBF   D T 539      -1.359  -0.342 -11.252  1.00 91.49     0.061 A 
HETATM   18  CAZ   D T 539      -1.253   0.999 -10.860  1.00 91.40     0.079 A 
ENDROOT
BRANCH   1  19
HETATM   19  NAU   D T 539      -4.462  -0.268 -13.146  1.00 91.78    -0.268 NA
BRANCH  19  20
HETATM   20  CAQ   D T 539      -5.748   0.441 -13.138  1.00 95.07     0.164 C 
BRANCH  20  21
HETATM   21  CAO   D T 539      -6.631  -0.072 -11.994  1.00 97.10     0.316 C 
BRANCH  21  22
HETATM   22  NAS   D T 539      -7.173  -1.395 -12.374  1.00100.56     0.344 N 
BRANCH  22  23
HETATM   23  CAM   D T 539      -6.823  -2.461 -11.402  1.00103.43     0.326 C 
BRANCH  23  24
HETATM   24  CAK   D T 539      -6.460  -3.771 -12.130  1.00104.61     0.221 C 
HETATM   25  OAC   D T 539      -5.528  -4.538 -11.335  1.00105.31    -0.218 OA
ENDBRANCH  23  24
ENDBRANCH  22  23
ENDBRANCH  21  22
ENDBRANCH  20  21
ENDBRANCH  19  20
ENDBRANCH   1  19
BRANCH  18  26
HETATM   26  NAV   D T 539      -0.253   1.473 -10.126  1.00 91.54    -0.268 NA
BRANCH  26  27
HETATM   27  CAR   D T 539      -0.445   2.639  -9.266  1.00 93.33     0.164 C 
BRANCH  27  28
HETATM   28  CAP   D T 539       0.486   3.712  -9.799  1.00 95.29     0.316 C 
BRANCH  28  29
HETATM   29  NAT   D T 539      -0.305   4.789 -10.409  1.00 97.82     0.344 N 
BRANCH  29  30
HETATM   30  CAN   D T 539       0.308   5.291 -11.668  1.00 99.13     0.326 C 
BRANCH  30  31
HETATM   31  CAL   D T 539       0.621   4.115 -12.627  1.00100.48     0.221 C 
HETATM   32  OAD   D T 539      -0.433   3.880 -13.590  1.00101.70    -0.218 OA
ENDBRANCH  30  31
ENDBRANCH  29  30
ENDBRANCH  28  29
ENDBRANCH  27  28
ENDBRANCH  26  27
ENDBRANCH  18  26
TORSDOF 12
ENDMDL
MODEL 2
REMARK VINA RESULT:    -6.876      0.780      6.364
REMARK INTER + INTRA:         -13.147
REMARK INTER:                 -11.720
REMARK INTRA:                  -1.427
REMARK UNBOUND:                -1.446
REMARK  12 active torsions:
REMARK  status: ('A' for Active; 'I' for Inactive)
REMARK    1  A    between atoms: CAK_2  and  CAM_3 
REMARK    2  A    between atoms: CAM_3  and  NAS_4 
REMARK    3  A    between atoms: NAS_4  and  CAO_5 
REMARK    4  A    between atoms: CAO_5  and  CAQ_6 
REMARK    5  A    between atoms: CAQ_6  and  NAU_7 
REMARK    6  A    between atoms: NAU_7  and  CAY_8 
REMARK    7  A    between atoms: CAZ_25  and  NAV_26 
REMARK    8  A    between atoms: NAV_26  and  CAR_27 
REMARK    9  A    between atoms: CAR_27  and  CAP_28 
REMARK   10  A    between atoms: CAP_28  and  NAT_29 
REMARK   11  A    between atoms: NAT_29  and  CAN_30 
REMARK   12  A    between atoms: CAN_30  and  CAL_31 
ROOT
HETATM    1  CAY   D T 539      -1.414   1.305 -10.408  1.00 91.53     0.079 A 
HETATM    2  CAI   D T 539      -2.455   2.096 -10.872  1.00 91.56     0.020 A 
HETATM    3  CAJ   D T 539      -3.419   1.584 -11.731  1.00 91.57     0.020 A 
HETATM    4  CBE   D T 539      -1.349  -0.015 -10.811  1.00 91.36     0.061 A 
HETATM    5  CBA   D T 539      -0.306  -0.795 -10.336  1.00 91.28     0.199 A 
HETATM    6  OAA   D T 539       0.527  -0.300  -9.577  1.00 91.36    -0.286 OA
HETATM    7  CBC   D T 539      -0.217  -2.126 -10.721  1.00 91.28     0.069 A 
HETATM    8  CAW   D T 539       0.814  -2.926 -10.257  1.00 91.39     0.134 A 
HETATM    9  OAE   D T 539       1.738  -2.415  -9.421  1.00 91.60    -0.190 OA
HETATM   10  CAG   D T 539       0.917  -4.246 -10.650  1.00 91.43     0.030 A 
HETATM   11  CAH   D T 539      -0.037  -4.767 -11.514  1.00 91.48     0.030 A 
HETATM   12  CAX   D T 539      -1.077  -3.983 -11.984  1.00 91.18     0.134 A 
HETATM   13  OAF   D T 539      -2.001  -4.503 -12.824  1.00 91.01    -0.190 OA
HETATM   14  CBD   D T 539      -1.164  -2.663 -11.583  1.00 91.30     0.069 A 
HETATM   15  CBB   D T 539      -2.204  -1.887 -12.055  1.00 91.65     0.199 A 
HETATM   16  OAB   D T 539      -3.009  -2.419 -12.815  1.00 91.77    -0.286 OA
HETATM   17  CBF   D T 539      -2.318  -0.546 -11.674  1.00 91.49     0.061 A 
HETATM   18  CAZ   D T 539      -3.359   0.267 -12.141  1.00 91.40     0.079 A 
ENDROOT
BRANCH   1  19
HETATM   19  NAU   D T 539      -0.491   1.798  -9.579  1.00 91.78    -0.268 NA
BRANCH  19  20
HETATM   20  CAQ   D T 539      -0.211   3.238  -9.501  1.00 95.07     0.164 C 
BRANCH  20  21
HETATM   21  CAO   D T 539       1.006   3.591 -10.365  1.00 97.10     0.316 C 
BRANCH  21  22
HETATM   22  NAS   D T 539       0.880   4.998 -10.806  1.00100.56     0.344 N 
BRANCH  22  23
HETATM   23  CAM   D T 539      -0.061   5.162 -11.943  1.00103.43     0.326 C 
BRANCH  23  24
HETATM   24  CAK   D T 539       0.358   4.279 -13.134  1.00104.61     0.221 C 
HETATM   25  OAC   D T 539      -0.777   3.525 -13.616  1.00105.31    -0.218 OA
ENDBRANCH  23  24
ENDBRANCH  22  23
ENDBRANCH  21  22
ENDBRANCH  20  21
ENDBRANCH  19  20
ENDBRANCH   1  19
BRANCH  18  26
HETATM   26  NAV   D T 539      -4.310  -0.158 -12.964  1.00 91.54    -0.268 NA
BRANCH  26  27
HETATM   27  CAR   D T 539      -5.440   0.704 -13.307  1.00 93.33     0.164 C 
BRANCH  27  28
HETATM   28  CAP   D T 539      -6.643  -0.213 -13.438  1.00 95.29     0.316 C 
BRANCH  28  29
HETATM   29  NAT   D T 539      -7.143  -0.558 -12.100  1.00 97.82     0.344 N 
BRANCH  29  30
HETATM   30  CAN   D T 539      -7.363  -2.021 -11.944  1.00 99.13     0.326 C 
BRANCH  30  31
HETATM   31  CAL   D T 539      -6.180  -2.670 -11.181  1.00100.48     0.221 C 
HETATM   32  OAD   D T 539      -5.979  -4.059 -11.536  1.00101.70    -0.218 OA
ENDBRANCH  30  31
ENDBRANCH  29  30
ENDBRANCH  28  29
ENDBRANCH  27  28
ENDBRANCH  26  27
ENDBRANCH  18  26
TORSDOF 12
ENDMDL
MODEL 3
REMARK VINA RESULT:    -6.838      1.734      2.017
REMARK INTER + INTRA:         -13.082
REMARK INTER:                 -11.795
REMARK INTRA:                  -1.287
REMARK UNBOUND:                -1.446
REMARK  12 active torsions:
REMARK  status: ('A' for Active; 'I' for Inactive)
REMARK    1  A    between atoms: CAK_2  and  CAM_3 
REMARK    2  A    between atoms: CAM_3  and  NAS_4 
REMARK    3  A    between atoms: NAS_4  and  CAO_5 
REMARK    4  A    between atoms: CAO_5  and  CAQ_6 
REMARK    5  A    between atoms: CAQ_6  and  NAU_7 
REMARK    6  A    between atoms: NAU_7  and  CAY_8 
REMARK    7  A    between atoms: CAZ_25  and  NAV_26 
REMARK    8  A    between atoms: NAV_26  and  CAR_27 
REMARK    9  A    between atoms: CAR_27  and  CAP_28 
REMARK   10  A    between atoms: CAP_28  and  NAT_29 
REMARK   11  A    between atoms: NAT_29  and  CAN_30 
REMARK   12  A    between atoms: CAN_30  and  CAL_31 
ROOT
HETATM    1  CAY   D T 539      -3.452  -0.169 -12.243  1.00 91.53     0.079 A 
HETATM    2  CAI   D T 539      -3.785   1.146 -11.952  1.00 91.56     0.020 A 
HETATM    3  CAJ   D T 539      -3.025   1.901 -11.068  1.00 91.57     0.020 A 
HETATM    4  CBE   D T 539      -2.340  -0.724 -11.640  1.00 91.36     0.061 A 
HETATM    5  CBA   D T 539      -2.016  -2.037 -11.943  1.00 91.28     0.199 A 
HETATM    6  OAA   D T 539      -2.718  -2.670 -12.732  1.00 91.36    -0.286 OA
HETATM    7  CBC   D T 539      -0.903  -2.621 -11.354  1.00 91.28     0.069 A 
HETATM    8  CAW   D T 539      -0.557  -3.930 -11.645  1.00 91.39     0.134 A 
HETATM    9  OAE   D T 539      -1.302  -4.647 -12.508  1.00 91.60    -0.190 OA
HETATM   10  CAG   D T 539       0.540  -4.521 -11.050  1.00 91.43     0.030 A 
HETATM   11  CAH   D T 539       1.303  -3.779 -10.159  1.00 91.48     0.030 A 
HETATM   12  CAX   D T 539       0.975  -2.467  -9.860  1.00 91.18     0.134 A 
HETATM   13  OAF   D T 539       1.728  -1.753  -8.991  1.00 91.01    -0.190 OA
HETATM   14  CBD   D T 539      -0.127  -1.892 -10.463  1.00 91.30     0.069 A 
HETATM   15  CBB   D T 539      -0.448  -0.582 -10.162  1.00 91.65     0.199 A 
HETATM   16  OAB   D T 539       0.275   0.009  -9.365  1.00 91.77    -0.286 OA
HETATM   17  CBF   D T 539      -1.561   0.027 -10.749  1.00 91.49     0.061 A 
HETATM   18  CAZ   D T 539      -1.914   1.352 -10.458  1.00 91.40     0.079 A 
ENDROOT
BRANCH   1  19
HETATM   19  NAU   D T 539      -4.181  -0.891 -13.097  1.00 91.78    -0.268 NA
BRANCH  19  20
HETATM   20  CAQ   D T 539      -5.646  -0.784 -13.147  1.00 95.07     0.164 C 
BRANCH  20  21
HETATM   21  CAO   D T 539      -6.270  -1.457 -11.919  1.00 97.10     0.316 C 
BRANCH  21  22
HETATM   22  NAS   D T 539      -7.178  -2.531 -12.380  1.00100.56     0.344 N 
BRANCH  22  23
HETATM   23  CAM   D T 539      -6.498  -3.844 -12.508  1.00103.43     0.326 C 
BRANCH  23  24
HETATM   24  CAK   D T 539      -5.619  -4.129 -11.274  1.00104.61     0.221 C 
HETATM   25  OAC   D T 539      -4.526  -5.003 -11.636  1.00105.31    -0.218 OA
ENDBRANCH  23  24
ENDBRANCH  22  23
ENDBRANCH  21  22
ENDBRANCH  20  21
ENDBRANCH  19  20
ENDBRANCH   1  19
BRANCH  18  26
HETATM   26  NAV   D T 539      -1.234   2.127  -9.622  1.00 91.54    -0.268 NA
BRANCH  26  27
HETATM   27  CAR   D T 539      -0.851   3.485 -10.006  1.00 93.33     0.164 C 
BRANCH  27  28
HETATM   28  CAP   D T 539       0.511   3.366 -10.665  1.00 95.29     0.316 C 
BRANCH  28  29
HETATM   29  NAT   D T 539       1.562   3.487  -9.645  1.00 97.82     0.344 N 
BRANCH  29  30
HETATM   30  CAN   D T 539       2.700   4.324 -10.110  1.00 99.13     0.326 C 
BRANCH  30  31
HETATM   31  CAL   D T 539       3.588   4.749  -8.913  1.00100.48     0.221 C 
HETATM   32  OAD   D T 539       4.677   3.828  -8.667  1.00101.70    -0.218 OA
ENDBRANCH  30  31
ENDBRANCH  29  30
ENDBRANCH  28  29
ENDBRANCH  27  28
ENDBRANCH  26  27
ENDBRANCH  18  26
TORSDOF 12
ENDMDL
MODEL 4
REMARK VINA RESULT:    -6.732      1.714      5.756
REMARK INTER + INTRA:         -12.900
REMARK INTER:                 -11.183
REMARK INTRA:                  -1.718
REMARK UNBOUND:                -1.446
REMARK  12 active torsions:
REMARK  status: ('A' for Active; 'I' for Inactive)
REMARK    1  A    between atoms: CAK_2  and  CAM_3 
REMARK    2  A    between atoms: CAM_3  and  NAS_4 
REMARK    3  A    between atoms: NAS_4  and  CAO_5 
REMARK    4  A    between atoms: CAO_5  and  CAQ_6 
REMARK    5  A    between atoms: CAQ_6  and  NAU_7 
REMARK    6  A    between atoms: NAU_7  and  CAY_8 
REMARK    7  A    between atoms: CAZ_25  and  NAV_26 
REMARK    8  A    between atoms: NAV_26  and  CAR_27 
REMARK    9  A    between atoms: CAR_27  and  CAP_28 
REMARK   10  A    between atoms: CAP_28  and  NAT_29 
REMARK   11  A    between atoms: NAT_29  and  CAN_30 
REMARK   12  A    between atoms: CAN_30  and  CAL_31 
ROOT
HETATM    1  CAY   D T 539      -1.948   0.674  -9.030  1.00 91.53     0.079 A 
HETATM    2  CAI   D T 539      -3.130   1.389  -9.156  1.00 91.56     0.020 A 
HETATM    3  CAJ   D T 539      -4.156   0.943  -9.979  1.00 91.57     0.020 A 
HETATM    4  CBE   D T 539      -1.804  -0.504  -9.737  1.00 91.36     0.061 A 
HETATM    5  CBA   D T 539      -0.619  -1.212  -9.599  1.00 91.28     0.199 A 
HETATM    6  OAA   D T 539       0.264  -0.779  -8.858  1.00 91.36    -0.286 OA
HETATM    7  CBC   D T 539      -0.447  -2.400 -10.295  1.00 91.28     0.069 A 
HETATM    8  CAW   D T 539       0.726  -3.126 -10.170  1.00 91.39     0.134 A 
HETATM    9  OAE   D T 539       1.710  -2.682  -9.364  1.00 91.60    -0.190 OA
HETATM   10  CAG   D T 539       0.910  -4.300 -10.873  1.00 91.43     0.030 A 
HETATM   11  CAH   D T 539      -0.106  -4.753 -11.705  1.00 91.48     0.030 A 
HETATM   12  CAX   D T 539      -1.286  -4.042 -11.838  1.00 91.18     0.134 A 
HETATM   13  OAF   D T 539      -2.270  -4.494 -12.650  1.00 91.01    -0.190 OA
HETATM   14  CBD   D T 539      -1.453  -2.868 -11.129  1.00 91.30     0.069 A 
HETATM   15  CBB   D T 539      -2.634  -2.164 -11.266  1.00 91.65     0.199 A 
HETATM   16  OAB   D T 539      -3.486  -2.629 -12.020  1.00 91.77    -0.286 OA
HETATM   17  CBF   D T 539      -2.832  -0.969 -10.568  1.00 91.49     0.061 A 
HETATM   18  CAZ   D T 539      -4.017  -0.231 -10.692  1.00 91.40     0.079 A 
ENDROOT
BRANCH   1  19
HETATM   19  NAU   D T 539      -0.965   1.101  -8.234  1.00 91.78    -0.268 NA
BRANCH  19  20
HETATM   20  CAQ   D T 539      -0.446   2.474  -8.315  1.00 95.07     0.164 C 
BRANCH  20  21
HETATM   21  CAO   D T 539       0.300   2.684  -9.638  1.00 97.10     0.316 C 
BRANCH  21  22
HETATM   22  NAS   D T 539       1.281   3.776  -9.458  1.00100.56     0.344 N 
BRANCH  22  23
HETATM   23  CAM   D T 539       1.734   4.361 -10.745  1.00103.43     0.326 C 
BRANCH  23  24
HETATM   24  CAK   D T 539       0.715   4.077 -11.866  1.00104.61     0.221 C 
HETATM   25  OAC   D T 539       1.388   4.021 -13.144  1.00105.31    -0.218 OA
ENDBRANCH  23  24
ENDBRANCH  22  23
ENDBRANCH  21  22
ENDBRANCH  20  21
ENDBRANCH  19  20
ENDBRANCH   1  19
BRANCH  18  26
HETATM   26  NAV   D T 539      -5.034  -0.599 -11.462  1.00 91.54    -0.268 NA
BRANCH  26  27
HETATM   27  CAR   D T 539      -5.843   0.401 -12.159  1.00 93.33     0.164 C 
BRANCH  27  28
HETATM   28  CAP   D T 539      -5.489   0.276 -13.630  1.00 95.29     0.316 C 
BRANCH  28  29
HETATM   29  NAT   D T 539      -4.187   0.911 -13.876  1.00 97.82     0.344 N 
BRANCH  29  30
HETATM   30  CAN   D T 539      -4.209   2.367 -13.576  1.00 99.13     0.326 C 
BRANCH  30  31
HETATM   31  CAL   D T 539      -2.794   2.863 -13.184  1.00100.48     0.221 C 
HETATM   32  OAD   D T 539      -1.950   1.805 -12.672  1.00101.70    -0.218 OA
ENDBRANCH  30  31
ENDBRANCH  29  30
ENDBRANCH  28  29
ENDBRANCH  27  28
ENDBRANCH  26  27
ENDBRANCH  18  26
TORSDOF 12
ENDMDL
MODEL 5
REMARK VINA RESULT:    -6.723      1.953      6.653
REMARK INTER + INTRA:         -12.885
REMARK INTER:                 -11.730
REMARK INTRA:                  -1.155
REMARK UNBOUND:                -1.446
REMARK  12 active torsions:
REMARK  status: ('A' for Active; 'I' for Inactive)
REMARK    1  A    between atoms: CAK_2  and  CAM_3 
REMARK    2  A    between atoms: CAM_3  and  NAS_4 
REMARK    3  A    between atoms: NAS_4  and  CAO_5 
REMARK    4  A    between atoms: CAO_5  and  CAQ_6 
REMARK    5  A    between atoms: CAQ_6  and  NAU_7 
REMARK    6  A    between atoms: NAU_7  and  CAY_8 
REMARK    7  A    between atoms: CAZ_25  and  NAV_26 
REMARK    8  A    between atoms: NAV_26  and  CAR_27 
REMARK    9  A    between atoms: CAR_27  and  CAP_28 
REMARK   10  A    between atoms: CAP_28  and  NAT_29 
REMARK   11  A    between atoms: NAT_29  and  CAN_30 
REMARK   12  A    between atoms: CAN_30  and  CAL_31 
ROOT
HETATM    1  CAY   D T 539      -2.142   0.758 -11.538  1.00 91.53     0.079 A 
HETATM    2  CAI   D T 539      -3.286   1.469 -11.872  1.00 91.56     0.020 A 
HETATM    3  CAJ   D T 539      -4.396   0.832 -12.412  1.00 91.57     0.020 A 
HETATM    4  CBE   D T 539      -2.122  -0.607 -11.746  1.00 91.36     0.061 A 
HETATM    5  CBA   D T 539      -0.975  -1.307 -11.404  1.00 91.28     0.199 A 
HETATM    6  OAA   D T 539      -0.014  -0.701 -10.928  1.00 91.36    -0.286 OA
HETATM    7  CBC   D T 539      -0.927  -2.680 -11.600  1.00 91.28     0.069 A 
HETATM    8  CAW   D T 539       0.208  -3.400 -11.261  1.00 91.39     0.134 A 
HETATM    9  OAE   D T 539       1.274  -2.768 -10.735  1.00 91.60    -0.190 OA
HETATM   10  CAG   D T 539       0.268  -4.764 -11.469  1.00 91.43     0.030 A 
HETATM   11  CAH   D T 539      -0.833  -5.410 -12.015  1.00 91.48     0.030 A 
HETATM   12  CAX   D T 539      -1.976  -4.707 -12.355  1.00 91.18     0.134 A 
HETATM   13  OAF   D T 539      -3.043  -5.348 -12.885  1.00 91.01    -0.190 OA
HETATM   14  CBD   D T 539      -2.019  -3.342 -12.143  1.00 91.30     0.069 A 
HETATM   15  CBB   D T 539      -3.163  -2.646 -12.482  1.00 91.65     0.199 A 
HETATM   16  OAB   D T 539      -4.096  -3.288 -12.960  1.00 91.77    -0.286 OA
HETATM   17  CBF   D T 539      -3.236  -1.264 -12.287  1.00 91.49     0.061 A 
HETATM   18  CAZ   D T 539      -4.382  -0.532 -12.627  1.00 91.40     0.079 A 
ENDROOT
BRANCH   1  19
HETATM   19  NAU   D T 539      -1.079   1.371 -11.014  1.00 91.78    -0.268 NA
BRANCH  19  20
HETATM   20  CAQ   D T 539      -1.210   2.581 -10.191  1.00 95.07     0.164 C 
BRANCH  20  21
HETATM   21  CAO   D T 539      -0.817   3.822 -11.002  1.00 97.10     0.316 C 
BRANCH  21  22
HETATM   22  NAS   D T 539       0.493   3.570 -11.643  1.00100.56     0.344 N 
BRANCH  22  23
HETATM   23  CAM   D T 539       0.539   4.022 -13.056  1.00103.43     0.326 C 
BRANCH  23  24
HETATM   24  CAK   D T 539       0.125   2.884 -14.010  1.00104.61     0.221 C 
HETATM   25  OAC   D T 539      -1.258   3.042 -14.399  1.00105.31    -0.218 OA
ENDBRANCH  23  24
ENDBRANCH  22  23
ENDBRANCH  21  22
ENDBRANCH  20  21
ENDBRANCH  19  20
ENDBRANCH   1  19
BRANCH  18  26
HETATM   26  NAV   D T 539      -5.474  -1.077 -13.149  1.00 91.54    -0.268 NA
BRANCH  26  27
HETATM   27  CAR   D T 539      -6.795  -0.777 -12.598  1.00 93.33     0.164 C 
BRANCH  27  28
HETATM   28  CAP   D T 539      -7.337  -2.092 -12.068  1.00 95.29     0.316 C 
BRANCH  28  29
HETATM   29  NAT   D T 539      -8.732  -2.256 -12.500  1.00 97.82     0.344 N 
BRANCH  29  30
HETATM   30  CAN   D T 539      -9.077  -1.359 -13.635  1.00 99.13     0.326 C 
BRANCH  30  31
HETATM   31  CAL   D T 539     -10.334  -1.877 -14.377  1.00100.48     0.221 C 
HETATM   32  OAD   D T 539     -11.401  -0.901 -14.422  1.00101.70    -0.218 OA
ENDBRANCH  30  31
ENDBRANCH  29  30
ENDBRANCH  28  29
ENDBRANCH  27  28
ENDBRANCH  26  27
ENDBRANCH  18  26
TORSDOF 12
ENDMDL
MODEL 6
REMARK VINA RESULT:    -6.708      1.640      6.944
REMARK INTER + INTRA:         -12.861
REMARK INTER:                 -11.775
REMARK INTRA:                  -1.086
REMARK UNBOUND:                -1.446
REMARK  12 active torsions:
REMARK  status: ('A' for Active; 'I' for Inactive)
REMARK    1  A    between atoms: CAK_2  and  CAM_3 
REMARK    2  A    between atoms: CAM_3  and  NAS_4 
REMARK    3  A    between atoms: NAS_4  and  CAO_5 
REMARK    4  A    between atoms: CAO_5  and  CAQ_6 
REMARK    5  A    between atoms: CAQ_6  and  NAU_7 
REMARK    6  A    between atoms: NAU_7  and  CAY_8 
REMARK    7  A    between atoms: CAZ_25  and  NAV_26 
REMARK    8  A    between atoms: NAV_26  and  CAR_27 
REMARK    9  A    between atoms: CAR_27  and  CAP_28 
REMARK   10  A    between atoms: CAP_28  and  NAT_29 
REMARK   11  A    between atoms: NAT_29  and  CAN_30 
REMARK   12  A    between atoms: CAN_30  and  CAL_31 
ROOT
HETATM    1  CAY   D T 539      -1.450   0.992 -10.926  1.00 91.53     0.079 A 
HETATM    2  CAI   D T 539      -2.491   1.795 -11.370  1.00 91.56     0.020 A 
HETATM    3  CAJ   D T 539      -3.530   1.271 -12.128  1.00 91.57     0.020 A 
HETATM    4  CBE   D T 539      -1.463  -0.352 -11.246  1.00 91.36     0.061 A 
HETATM    5  CBA   D T 539      -0.420  -1.144 -10.792  1.00 91.28     0.199 A 
HETATM    6  OAA   D T 539       0.482  -0.638 -10.124  1.00 91.36    -0.286 OA
HETATM    7  CBC   D T 539      -0.407  -2.498 -11.096  1.00 91.28     0.069 A 
HETATM    8  CAW   D T 539       0.623  -3.311 -10.650  1.00 91.39     0.134 A 
HETATM    9  OAE   D T 539       1.621  -2.788  -9.912  1.00 91.60    -0.190 OA
HETATM   10  CAG   D T 539       0.650  -4.655 -10.963  1.00 91.43     0.030 A 
HETATM   11  CAH   D T 539      -0.380  -5.189 -11.726  1.00 91.48     0.030 A 
HETATM   12  CAX   D T 539      -1.419  -4.393 -12.176  1.00 91.18     0.134 A 
HETATM   13  OAF   D T 539      -2.419  -4.925 -12.917  1.00 91.01    -0.190 OA
HETATM   14  CBD   D T 539      -1.429  -3.049 -11.856  1.00 91.30     0.069 A 
HETATM   15  CBB   D T 539      -2.471  -2.260 -12.307  1.00 91.65     0.199 A 
HETATM   16  OAB   D T 539      -3.345  -2.805 -12.976  1.00 91.77    -0.286 OA
HETATM   17  CBF   D T 539      -2.508  -0.895 -12.006  1.00 91.49     0.061 A 
HETATM   18  CAZ   D T 539      -3.548  -0.070 -12.455  1.00 91.40     0.079 A 
ENDROOT
BRANCH   1  19
HETATM   19  NAU   D T 539      -0.455   1.497 -10.194  1.00 91.78    -0.268 NA
BRANCH  19  20
HETATM   20  CAQ   D T 539       0.108   2.826 -10.465  1.00 95.07     0.164 C 
BRANCH  20  21
HETATM   21  CAO   D T 539       1.127   3.204  -9.383  1.00 97.10     0.316 C 
BRANCH  21  22
HETATM   22  NAS   D T 539       1.771   4.480  -9.766  1.00100.56     0.344 N 
BRANCH  22  23
HETATM   23  CAM   D T 539       3.181   4.307 -10.197  1.00103.43     0.326 C 
BRANCH  23  24
HETATM   24  CAK   D T 539       4.018   3.647  -9.083  1.00104.61     0.221 C 
HETATM   25  OAC   D T 539       4.427   4.640  -8.116  1.00105.31    -0.218 OA
ENDBRANCH  23  24
ENDBRANCH  22  23
ENDBRANCH  21  22
ENDBRANCH  20  21
ENDBRANCH  19  20
ENDBRANCH   1  19
BRANCH  18  26
HETATM   26  NAV   D T 539      -4.568  -0.505 -13.184  1.00 91.54    -0.268 NA
BRANCH  26  27
HETATM   27  CAR   D T 539      -5.672   0.389 -13.533  1.00 93.33     0.164 C 
BRANCH  27  28
HETATM   28  CAP   D T 539      -6.940  -0.433 -13.387  1.00 95.29     0.316 C 
BRANCH  28  29
HETATM   29  NAT   D T 539      -7.093  -0.853 -11.988  1.00 97.82     0.344 N 
BRANCH  29  30
HETATM   30  CAN   D T 539      -7.730  -2.192 -11.872  1.00 99.13     0.326 C 
BRANCH  30  31
HETATM   31  CAL   D T 539      -6.799  -3.290 -12.446  1.00100.48     0.221 C 
HETATM   32  OAD   D T 539      -6.022  -3.956 -11.423  1.00101.70    -0.218 OA
ENDBRANCH  30  31
ENDBRANCH  29  30
ENDBRANCH  28  29
ENDBRANCH  27  28
ENDBRANCH  26  27
ENDBRANCH  18  26
TORSDOF 12
ENDMDL
MODEL 7
REMARK VINA RESULT:    -6.584      1.512      2.657
REMARK INTER + INTRA:         -12.648
REMARK INTER:                 -11.127
REMARK INTRA:                  -1.521
REMARK UNBOUND:                -1.446
REMARK  12 active torsions:
REMARK  status: ('A' for Active; 'I' for Inactive)
REMARK    1  A    between atoms: CAK_2  and  CAM_3 
REMARK    2  A    between atoms: CAM_3  and  NAS_4 
REMARK    3  A    between atoms: NAS_4  and  CAO_5 
REMARK    4  A    between atoms: CAO_5  and  CAQ_6 
REMARK    5  A    between atoms: CAQ_6  and  NAU_7 
REMARK    6  A    between atoms: NAU_7  and  CAY_8 
REMARK    7  A    between atoms: CAZ_25  and  NAV_26 
REMARK    8  A    between atoms: NAV_26  and  CAR_27 
REMARK    9  A    between atoms: CAR_27  and  CAP_28 
REMARK   10  A    between atoms: CAP_28  and  NAT_29 
REMARK   11  A    between atoms: NAT_29  and  CAN_30 
REMARK   12  A    between atoms: CAN_30  and  CAL_31 
ROOT
HETATM    1  CAY   D T 539      -4.415  -0.613 -10.964  1.00 91.53     0.079 A 
HETATM    2  CAI   D T 539      -4.573   0.572 -10.262  1.00 91.56     0.020 A 
HETATM    3  CAJ   D T 539      -3.562   1.064  -9.446  1.00 91.57     0.020 A 
HETATM    4  CBE   D T 539      -3.225  -1.305 -10.845  1.00 91.36     0.061 A 
HETATM    5  CBA   D T 539      -3.078  -2.486 -11.556  1.00 91.28     0.199 A 
HETATM    6  OAA   D T 539      -4.000  -2.886 -12.267  1.00 91.36    -0.286 OA
HETATM    7  CBC   D T 539      -1.892  -3.201 -11.458  1.00 91.28     0.069 A 
HETATM    8  CAW   D T 539      -1.721  -4.382 -12.162  1.00 91.39     0.134 A 
HETATM    9  OAE   D T 539      -2.709  -4.843 -12.952  1.00 91.60    -0.190 OA
HETATM   10  CAG   D T 539      -0.551  -5.106 -12.055  1.00 91.43     0.030 A 
HETATM   11  CAH   D T 539       0.464  -4.628 -11.237  1.00 91.48     0.030 A 
HETATM   12  CAX   D T 539       0.312  -3.447 -10.530  1.00 91.18     0.134 A 
HETATM   13  OAF   D T 539       1.309  -2.990  -9.737  1.00 91.01    -0.190 OA
HETATM   14  CBD   D T 539      -0.867  -2.736 -10.646  1.00 91.30     0.069 A 
HETATM   15  CBB   D T 539      -1.012  -1.558  -9.939  1.00 91.65     0.199 A 
HETATM   16  OAB   D T 539      -0.069  -1.200  -9.236  1.00 91.77    -0.286 OA
HETATM   17  CBF   D T 539      -2.195  -0.818 -10.028  1.00 91.49     0.061 A 
HETATM   18  CAZ   D T 539      -2.372   0.377  -9.318  1.00 91.40     0.079 A 
ENDROOT
BRANCH   1  19
HETATM   19  NAU   D T 539      -5.385  -1.082 -11.752  1.00 91.78    -0.268 NA
BRANCH  19  20
HETATM   20  CAQ   D T 539      -6.504  -0.235 -12.188  1.00 95.07     0.164 C 
BRANCH  20  21
HETATM   21  CAO   D T 539      -6.172   0.438 -13.525  1.00 97.10     0.316 C 
BRANCH  21  22
HETATM   22  NAS   D T 539      -5.936   1.878 -13.282  1.00100.56     0.344 N 
BRANCH  22  23
HETATM   23  CAM   D T 539      -4.529   2.281 -13.530  1.00103.43     0.326 C 
BRANCH  23  24
HETATM   24  CAK   D T 539      -4.169   3.545 -12.725  1.00104.61     0.221 C 
HETATM   25  OAC   D T 539      -2.893   3.369 -12.070  1.00105.31    -0.218 OA
ENDBRANCH  23  24
ENDBRANCH  22  23
ENDBRANCH  21  22
ENDBRANCH  20  21
ENDBRANCH  19  20
ENDBRANCH   1  19
BRANCH  18  26
HETATM   26  NAV   D T 539      -1.449   0.901  -8.520  1.00 91.54    -0.268 NA
BRANCH  26  27
HETATM   27  CAR   D T 539      -1.001   2.281  -8.702  1.00 93.33     0.164 C 
BRANCH  27  28
HETATM   28  CAP   D T 539      -0.009   2.252  -9.851  1.00 95.29     0.316 C 
BRANCH  28  29
HETATM   29  NAT   D T 539       0.786   3.488  -9.843  1.00 97.82     0.344 N 
BRANCH  29  30
HETATM   30  CAN   D T 539       0.264   4.496 -10.803  1.00 99.13     0.326 C 
BRANCH  30  31
HETATM   31  CAL   D T 539       0.953   4.341 -12.183  1.00100.48     0.221 C 
HETATM   32  OAD   D T 539       0.034   4.502 -13.290  1.00101.70    -0.218 OA
ENDBRANCH  30  31
ENDBRANCH  29  30
ENDBRANCH  28  29
ENDBRANCH  27  28
ENDBRANCH  26  27
ENDBRANCH  18  26
TORSDOF 12
ENDMDL
MODEL 8
REMARK VINA RESULT:    -6.581      1.637      1.761
REMARK INTER + INTRA:         -12.643
REMARK INTER:                 -11.650
REMARK INTRA:                  -0.993
REMARK UNBOUND:                -1.446
REMARK  12 active torsions:
REMARK  status: ('A' for Active; 'I' for Inactive)
REMARK    1  A    between atoms: CAK_2  and  CAM_3 
REMARK    2  A    between atoms: CAM_3  and  NAS_4 
REMARK    3  A    between atoms: NAS_4  and  CAO_5 
REMARK    4  A    between atoms: CAO_5  and  CAQ_6 
REMARK    5  A    between atoms: CAQ_6  and  NAU_7 
REMARK    6  A    between atoms: NAU_7  and  CAY_8 
REMARK    7  A    between atoms: CAZ_25  and  NAV_26 
REMARK    8  A    between atoms: NAV_26  and  CAR_27 
REMARK    9  A    between atoms: CAR_27  and  CAP_28 
REMARK   10  A    between atoms: CAP_28  and  NAT_29 
REMARK   11  A    between atoms: NAT_29  and  CAN_30 
REMARK   12  A    between atoms: CAN_30  and  CAL_31 
ROOT
HETATM    1  CAY   D T 539      -3.985  -0.497 -12.469  1.00 91.53     0.079 A 
HETATM    2  CAI   D T 539      -3.967   0.862 -12.189  1.00 91.56     0.020 A 
HETATM    3  CAJ   D T 539      -2.873   1.454 -11.570  1.00 91.57     0.020 A 
HETATM    4  CBE   D T 539      -2.887  -1.262 -12.125  1.00 91.36     0.061 A 
HETATM    5  CBA   D T 539      -2.916  -2.618 -12.415  1.00 91.28     0.199 A 
HETATM    6  OAA   D T 539      -3.907  -3.101 -12.963  1.00 91.36    -0.286 OA
HETATM    7  CBC   D T 539      -1.826  -3.411 -12.084  1.00 91.28     0.069 A 
HETATM    8  CAW   D T 539      -1.831  -4.767 -12.367  1.00 91.39     0.134 A 
HETATM    9  OAE   D T 539      -2.897  -5.325 -12.971  1.00 91.60    -0.190 OA
HETATM   10  CAG   D T 539      -0.757  -5.565 -12.025  1.00 91.43     0.030 A 
HETATM   11  CAH   D T 539       0.339  -4.986 -11.400  1.00 91.48     0.030 A 
HETATM   12  CAX   D T 539       0.363  -3.631 -11.114  1.00 91.18     0.134 A 
HETATM   13  OAF   D T 539       1.438  -3.078 -10.506  1.00 91.01    -0.190 OA
HETATM   14  CBD   D T 539      -0.722  -2.848 -11.461  1.00 91.30     0.069 A 
HETATM   15  CBB   D T 539      -0.691  -1.497 -11.174  1.00 91.65     0.199 A 
HETATM   16  OAB   D T 539       0.314  -1.058 -10.620  1.00 91.77    -0.286 OA
HETATM   17  CBF   D T 539      -1.775  -0.677 -11.505  1.00 91.49     0.061 A 
HETATM   18  CAZ   D T 539      -1.774   0.695 -11.221  1.00 91.40     0.079 A 
ENDROOT
BRANCH   1  19
HETATM   19  NAU   D T 539      -5.035  -1.063 -13.067  1.00 91.78    -0.268 NA
BRANCH  19  20
HETATM   20  CAQ   D T 539      -6.411  -0.802 -12.625  1.00 95.07     0.164 C 
BRANCH  20  21
HETATM   21  CAO   D T 539      -6.970  -2.019 -11.879  1.00 97.10     0.316 C 
BRANCH  21  22
HETATM   22  NAS   D T 539      -8.440  -1.876 -11.779  1.00100.56     0.344 N 
BRANCH  22  23
HETATM   23  CAM   D T 539      -9.134  -2.156 -13.060  1.00103.43     0.326 C 
BRANCH  23  24
HETATM   24  CAK   D T 539     -10.218  -1.096 -13.340  1.00104.61     0.221 C 
HETATM   25  OAC   D T 539      -9.691  -0.063 -14.202  1.00105.31    -0.218 OA
ENDBRANCH  23  24
ENDBRANCH  22  23
ENDBRANCH  21  22
ENDBRANCH  20  21
ENDBRANCH  19  20
ENDBRANCH   1  19
BRANCH  18  26
HETATM   26  NAV   D T 539      -0.764   1.322 -10.630  1.00 91.54    -0.268 NA
BRANCH  26  27
HETATM   27  CAR   D T 539      -0.982   2.111  -9.418  1.00 93.33     0.164 C 
BRANCH  27  28
HETATM   28  CAP   D T 539      -0.182   3.388  -9.599  1.00 95.29     0.316 C 
BRANCH  28  29
HETATM   29  NAT   D T 539       0.550   3.332 -10.871  1.00 97.82     0.344 N 
BRANCH  29  30
HETATM   30  CAN   D T 539       0.978   4.680 -11.332  1.00 99.13     0.326 C 
BRANCH  30  31
HETATM   31  CAL   D T 539       0.204   5.089 -12.611  1.00100.48     0.221 C 
HETATM   32  OAD   D T 539       0.089   4.008 -13.567  1.00101.70    -0.218 OA
ENDBRANCH  30  31
ENDBRANCH  29  30
ENDBRANCH  28  29
ENDBRANCH  27  28
ENDBRANCH  26  27
ENDBRANCH  18  26
TORSDOF 12
ENDMDL
MODEL 9
REMARK VINA RESULT:    -6.458      5.551     11.339
REMARK INTER + INTRA:         -12.434
REMARK INTER:                 -11.361
REMARK INTRA:                  -1.073
REMARK UNBOUND:                -1.446
REMARK  12 active torsions:
REMARK  status: ('A' for Active; 'I' for Inactive)
REMARK    1  A    between atoms: CAK_2  and  CAM_3 
REMARK    2  A    between atoms: CAM_3  and  NAS_4 
REMARK    3  A    between atoms: NAS_4  and  CAO_5 
REMARK    4  A    between atoms: CAO_5  and  CAQ_6 
REMARK    5  A    between atoms: CAQ_6  and  NAU_7 
REMARK    6  A    between atoms: NAU_7  and  CAY_8 
REMARK    7  A    between atoms: CAZ_25  and  NAV_26 
REMARK    8  A    between atoms: NAV_26  and  CAR_27 
REMARK    9  A    between atoms: CAR_27  and  CAP_28 
REMARK   10  A    between atoms: CAP_28  and  NAT_29 
REMARK   11  A    between atoms: NAT_29  and  CAN_30 
REMARK   12  A    between atoms: CAN_30  and  CAL_31 
ROOT
HETATM    1  CAY   D T 539       4.781   4.614  -9.706  1.00 91.53     0.079 A 
HETATM    2  CAI   D T 539       4.362   4.085 -10.919  1.00 91.56     0.020 A 
HETATM    3  CAJ   D T 539       3.023   4.104 -11.287  1.00 91.57     0.020 A 
HETATM    4  CBE   D T 539       3.839   5.170  -8.861  1.00 91.36     0.061 A 
HETATM    5  CBA   D T 539       4.271   5.698  -7.655  1.00 91.28     0.199 A 
HETATM    6  OAA   D T 539       5.469   5.660  -7.368  1.00 91.36    -0.286 OA
HETATM    7  CBC   D T 539       3.349   6.266  -6.787  1.00 91.28     0.069 A 
HETATM    8  CAW   D T 539       3.758   6.804  -5.578  1.00 91.39     0.134 A 
HETATM    9  OAE   D T 539       5.060   6.782  -5.237  1.00 91.60    -0.190 OA
HETATM   10  CAG   D T 539       2.842   7.355  -4.703  1.00 91.43     0.030 A 
HETATM   11  CAH   D T 539       1.500   7.373  -5.057  1.00 91.48     0.030 A 
HETATM   12  CAX   D T 539       1.075   6.844  -6.264  1.00 91.18     0.134 A 
HETATM   13  OAF   D T 539      -0.237   6.869  -6.598  1.00 91.01    -0.190 OA
HETATM   14  CBD   D T 539       2.003   6.294  -7.126  1.00 91.30     0.069 A 
HETATM   15  CBB   D T 539       1.572   5.769  -8.330  1.00 91.65     0.199 A 
HETATM   16  OAB   D T 539       0.369   5.822  -8.572  1.00 91.77    -0.286 OA
HETATM   17  CBF   D T 539       2.485   5.199  -9.222  1.00 91.49     0.061 A 
HETATM   18  CAZ   D T 539       2.076   4.654 -10.446  1.00 91.40     0.079 A 
ENDROOT
BRANCH   1  19
HETATM   19  NAU   D T 539       6.069   4.599  -9.356  1.00 91.78    -0.268 NA
BRANCH  19  20
HETATM   20  CAQ   D T 539       7.140   4.796 -10.342  1.00 95.07     0.164 C 
BRANCH  20  21
HETATM   21  CAO   D T 539       8.140   5.844  -9.840  1.00 97.10     0.316 C 
BRANCH  21  22
HETATM   22  NAS   D T 539       7.539   7.187 -10.008  1.00100.56     0.344 N 
BRANCH  22  23
HETATM   23  CAM   D T 539       6.825   7.340 -11.300  1.00103.43     0.326 C 
BRANCH  23  24
HETATM   24  CAK   D T 539       7.789   7.807 -12.408  1.00104.61     0.221 C 
HETATM   25  OAC   D T 539       7.377   9.098 -12.911  1.00105.31    -0.218 OA
ENDBRANCH  23  24
ENDBRANCH  22  23
ENDBRANCH  21  22
ENDBRANCH  20  21
ENDBRANCH  19  20
ENDBRANCH   1  19
BRANCH  18  26
HETATM   26  NAV   D T 539       0.814   4.637 -10.858  1.00 91.54    -0.268 NA
BRANCH  26  27
HETATM   27  CAR   D T 539       0.493   4.490 -12.277  1.00 93.33     0.164 C 
BRANCH  27  28
HETATM   28  CAP   D T 539      -0.819   3.728 -12.334  1.00 95.29     0.316 C 
BRANCH  28  29
HETATM   29  NAT   D T 539      -0.554   2.288 -12.207  1.00 97.82     0.344 N 
BRANCH  29  30
HETATM   30  CAN   D T 539      -1.388   1.656 -11.150  1.00 99.13     0.326 C 
BRANCH  30  31
HETATM   31  CAL   D T 539      -2.424   0.690 -11.779  1.00100.48     0.221 C 
HETATM   32  OAD   D T 539      -2.517  -0.570 -11.072  1.00101.70    -0.218 OA
ENDBRANCH  30  31
ENDBRANCH  29  30
ENDBRANCH  28  29
ENDBRANCH  27  28
ENDBRANCH  26  27
ENDBRANCH  18  26
TORSDOF 12
ENDMDL
