MODEL 1
REMARK VINA RESULT:    -6.150      0.000      0.000
REMARK INTER + INTRA:         -11.104
REMARK INTER:                 -10.464
REMARK INTRA:                  -0.639
REMARK UNBOUND:                -0.639
REMARK  12 active torsions:
REMARK  status: ('A' for Active; 'I' for Inactive)
REMARK    1  A    between atoms: CAK_2  and  CAM_3 
REMARK    2  A    between atoms: CAM_3  and  NAS_4 
REMARK    3  A    between atoms: NAS_4  and  CAO_5 
REMARK    4  A    between atoms: CAO_5  and  CAQ_6 
REMARK    5  A    between atoms: CAQ_6  and  NAU_7 
REMARK    6  A    between atoms: NAU_7  and  CAY_8 
REMARK    7  A    between atoms: CAZ_25  and  NAV_26 
REMARK    8  A    between atoms: NAV_26  and  CAR_27 
REMARK    9  A    between atoms: CAR_27  and  CAP_28 
REMARK   10  A    between atoms: CAP_28  and  NAT_29 
REMARK   11  A    between atoms: NAT_29  and  CAN_30 
REMARK   12  A    between atoms: CAN_30  and  CAL_31 
ROOT
HETATM    1  CAY   D T 539       0.707   0.802  12.854  1.00 91.53     0.079 A 
HETATM    2  CAI   D T 539       1.815   1.454  12.337  1.00 91.56     0.020 A 
HETATM    3  CAJ   D T 539       1.677   2.556  11.503  1.00 91.57     0.020 A 
HETATM    4  CBE   D T 539      -0.553   1.269  12.530  1.00 91.36     0.061 A 
HETATM    5  CBA   D T 539      -1.653   0.613  13.057  1.00 91.28     0.199 A 
HETATM    6  OAA   D T 539      -1.484  -0.361  13.794  1.00 91.36    -0.286 OA
HETATM    7  CBC   D T 539      -2.930   1.061  12.753  1.00 91.28     0.069 A 
HETATM    8  CAW   D T 539      -4.045   0.423  13.271  1.00 91.39     0.134 A 
HETATM    9  OAE   D T 539      -3.893  -0.641  14.083  1.00 91.60    -0.190 OA
HETATM   10  CAG   D T 539      -5.319   0.855  12.957  1.00 91.43     0.030 A 
HETATM   11  CAH   D T 539      -5.469   1.951  12.118  1.00 91.48     0.030 A 
HETATM   12  CAX   D T 539      -4.366   2.604  11.595  1.00 91.18     0.134 A 
HETATM   13  OAF   D T 539      -4.526   3.673  10.779  1.00 91.01    -0.190 OA
HETATM   14  CBD   D T 539      -3.099   2.157  11.917  1.00 91.30     0.069 A 
HETATM   15  CBB   D T 539      -2.002   2.814  11.392  1.00 91.65     0.199 A 
HETATM   16  OAB   D T 539      -2.217   3.776  10.658  1.00 91.77    -0.286 OA
HETATM   17  CBF   D T 539      -0.707   2.383  11.693  1.00 91.49     0.061 A 
HETATM   18  CAZ   D T 539       0.423   3.027  11.171  1.00 91.40     0.079 A 
ENDROOT
BRANCH   1  19
HETATM   19  NAU   D T 539       0.841  -0.252  13.661  1.00 91.78    -0.268 NA
BRANCH  19  20
HETATM   20  CAQ   D T 539       2.154  -0.676  14.166  1.00 95.07     0.164 C 
BRANCH  20  21
HETATM   21  CAO   D T 539       2.671   0.323  15.208  1.00 97.10     0.316 C 
BRANCH  21  22
HETATM   22  NAS   D T 539       4.150   0.308  15.183  1.00100.56     0.344 N 
BRANCH  22  23
HETATM   23  CAM   D T 539       4.749   0.303  16.541  1.00103.43     0.326 C 
BRANCH  23  24
HETATM   24  CAK   D T 539       4.187  -0.860  17.384  1.00104.61     0.221 C 
HETATM   25  OAC   D T 539       4.000  -0.434  18.752  1.00105.31    -0.218 OA
ENDBRANCH  23  24
ENDBRANCH  22  23
ENDBRANCH  21  22
ENDBRANCH  20  21
ENDBRANCH  19  20
ENDBRANCH   1  19
BRANCH  18  26
HETATM   26  NAV   D T 539       0.361   4.082  10.366  1.00 91.54    -0.268 NA
BRANCH  26  27
HETATM   27  CAR   D T 539       0.996   4.054   9.049  1.00 93.33     0.164 C 
BRANCH  27  28
HETATM   28  CAP   D T 539       1.913   5.263   9.000  1.00 95.29     0.316 C 
BRANCH  28  29
HETATM   29  NAT   D T 539       1.617   6.147  10.137  1.00 97.82     0.344 N 
BRANCH  29  30
HETATM   30  CAN   D T 539       2.107   7.533   9.909  1.00 99.13     0.326 C 
BRANCH  30  31
HETATM   31  CAL   D T 539       1.166   8.561  10.586  1.00100.48     0.221 C 
HETATM   32  OAD   D T 539      -0.154   8.589   9.995  1.00101.70    -0.218 OA
ENDBRANCH  30  31
ENDBRANCH  29  30
ENDBRANCH  28  29
ENDBRANCH  27  28
ENDBRANCH  26  27
ENDBRANCH  18  26
TORSDOF 12
ENDMDL
MODEL 2
REMARK VINA RESULT:    -6.046      4.711     10.181
REMARK INTER + INTRA:         -10.927
REMARK INTER:                  -9.725
REMARK INTRA:                  -1.202
REMARK UNBOUND:                -0.639
REMARK  12 active torsions:
REMARK  status: ('A' for Active; 'I' for Inactive)
REMARK    1  A    between atoms: CAK_2  and  CAM_3 
REMARK    2  A    between atoms: CAM_3  and  NAS_4 
REMARK    3  A    between atoms: NAS_4  and  CAO_5 
REMARK    4  A    between atoms: CAO_5  and  CAQ_6 
REMARK    5  A    between atoms: CAQ_6  and  NAU_7 
REMARK    6  A    between atoms: NAU_7  and  CAY_8 
REMARK    7  A    between atoms: CAZ_25  and  NAV_26 
REMARK    8  A    between atoms: NAV_26  and  CAR_27 
REMARK    9  A    between atoms: CAR_27  and  CAP_28 
REMARK   10  A    between atoms: CAP_28  and  NAT_29 
REMARK   11  A    between atoms: NAT_29  and  CAN_30 
REMARK   12  A    between atoms: CAN_30  and  CAL_31 
ROOT
HETATM    1  CAY   D T 539       3.354   4.692   9.141  1.00 91.53     0.079 A 
HETATM    2  CAI   D T 539       3.427   3.643  10.045  1.00 91.56     0.020 A 
HETATM    3  CAJ   D T 539       4.645   3.065  10.379  1.00 91.57     0.020 A 
HETATM    4  CBE   D T 539       4.523   5.165   8.574  1.00 91.36     0.061 A 
HETATM    5  CBA   D T 539       4.439   6.217   7.676  1.00 91.28     0.199 A 
HETATM    6  OAA   D T 539       3.337   6.700   7.409  1.00 91.36    -0.286 OA
HETATM    7  CBC   D T 539       5.594   6.715   7.093  1.00 91.28     0.069 A 
HETATM    8  CAW   D T 539       5.535   7.769   6.197  1.00 91.39     0.134 A 
HETATM    9  OAE   D T 539       4.346   8.322   5.887  1.00 91.60    -0.190 OA
HETATM   10  CAG   D T 539       6.681   8.257   5.599  1.00 91.43     0.030 A 
HETATM   11  CAH   D T 539       7.903   7.682   5.921  1.00 91.48     0.030 A 
HETATM   12  CAX   D T 539       7.982   6.632   6.820  1.00 91.18     0.134 A 
HETATM   13  OAF   D T 539       9.180   6.080   7.126  1.00 91.01    -0.190 OA
HETATM   14  CBD   D T 539       6.825   6.153   7.405  1.00 91.30     0.069 A 
HETATM   15  CBB   D T 539       6.911   5.105   8.301  1.00 91.65     0.199 A 
HETATM   16  OAB   D T 539       8.029   4.650   8.534  1.00 91.77    -0.286 OA
HETATM   17  CBF   D T 539       5.759   4.593   8.906  1.00 91.49     0.061 A 
HETATM   18  CAZ   D T 539       5.816   3.528   9.815  1.00 91.40     0.079 A 
ENDROOT
BRANCH   1  19
HETATM   19  NAU   D T 539       2.185   5.251   8.826  1.00 91.78    -0.268 NA
BRANCH  19  20
HETATM   20  CAQ   D T 539       0.943   4.467   8.776  1.00 95.07     0.164 C 
BRANCH  20  21
HETATM   21  CAO   D T 539      -0.114   5.085   9.698  1.00 97.10     0.316 C 
BRANCH  21  22
HETATM   22  NAS   D T 539       0.509   6.194  10.453  1.00100.56     0.344 N 
BRANCH  22  23
HETATM   23  CAM   D T 539      -0.349   7.404  10.511  1.00103.43     0.326 C 
BRANCH  23  24
HETATM   24  CAK   D T 539       0.510   8.680  10.629  1.00104.61     0.221 C 
HETATM   25  OAC   D T 539       1.615   8.621   9.700  1.00105.31    -0.218 OA
ENDBRANCH  23  24
ENDBRANCH  22  23
ENDBRANCH  21  22
ENDBRANCH  20  21
ENDBRANCH  19  20
ENDBRANCH   1  19
BRANCH  18  26
HETATM   26  NAV   D T 539       6.945   2.929  10.174  1.00 91.54    -0.268 NA
BRANCH  26  27
HETATM   27  CAR   D T 539       7.312   2.812  11.585  1.00 93.33     0.164 C 
BRANCH  27  28
HETATM   28  CAP   D T 539       7.384   1.324  11.877  1.00 95.29     0.316 C 
BRANCH  28  29
HETATM   29  NAT   D T 539       6.557   1.016  13.053  1.00 97.82     0.344 N 
BRANCH  29  30
HETATM   30  CAN   D T 539       6.054   2.247  13.720  1.00 99.13     0.326 C 
BRANCH  30  31
HETATM   31  CAL   D T 539       4.659   1.995  14.345  1.00100.48     0.221 C 
HETATM   32  OAD   D T 539       4.431   0.604  14.669  1.00101.70    -0.218 OA
ENDBRANCH  30  31
ENDBRANCH  29  30
ENDBRANCH  28  29
ENDBRANCH  27  28
ENDBRANCH  26  27
ENDBRANCH  18  26
TORSDOF 12
ENDMDL
MODEL 3
REMARK VINA RESULT:    -6.024      5.626     10.243
REMARK INTER + INTRA:         -10.889
REMARK INTER:                  -9.249
REMARK INTRA:                  -1.640
REMARK UNBOUND:                -0.639
REMARK  12 active torsions:
REMARK  status: ('A' for Active; 'I' for Inactive)
REMARK    1  A    between atoms: CAK_2  and  CAM_3 
REMARK    2  A    between atoms: CAM_3  and  NAS_4 
REMARK    3  A    between atoms: NAS_4  and  CAO_5 
REMARK    4  A    between atoms: CAO_5  and  CAQ_6 
REMARK    5  A    between atoms: CAQ_6  and  NAU_7 
REMARK    6  A    between atoms: NAU_7  and  CAY_8 
REMARK    7  A    between atoms: CAZ_25  and  NAV_26 
REMARK    8  A    between atoms: NAV_26  and  CAR_27 
REMARK    9  A    between atoms: CAR_27  and  CAP_28 
REMARK   10  A    between atoms: CAP_28  and  NAT_29 
REMARK   11  A    between atoms: NAT_29  and  CAN_30 
REMARK   12  A    between atoms: CAN_30  and  CAL_31 
ROOT
HETATM    1  CAY   D T 539       5.887   7.187   6.528  1.00 91.53     0.079 A 
HETATM    2  CAI   D T 539       4.744   7.968   6.462  1.00 91.56     0.020 A 
HETATM    3  CAJ   D T 539       3.681   7.761   7.332  1.00 91.57     0.020 A 
HETATM    4  CBE   D T 539       5.959   6.190   7.483  1.00 91.36     0.061 A 
HETATM    5  CBA   D T 539       7.108   5.418   7.542  1.00 91.28     0.199 A 
HETATM    6  OAA   D T 539       8.029   5.637   6.751  1.00 91.36    -0.286 OA
HETATM    7  CBC   D T 539       7.211   4.413   8.492  1.00 91.28     0.069 A 
HETATM    8  CAW   D T 539       8.352   3.632   8.573  1.00 91.39     0.134 A 
HETATM    9  OAE   D T 539       9.377   3.849   7.725  1.00 91.60    -0.190 OA
HETATM   10  CAG   D T 539       8.452   2.617   9.505  1.00 91.43     0.030 A 
HETATM   11  CAH   D T 539       7.392   2.396  10.374  1.00 91.48     0.030 A 
HETATM   12  CAX   D T 539       6.246   3.171  10.312  1.00 91.18     0.134 A 
HETATM   13  OAF   D T 539       5.220   2.947  11.165  1.00 91.01    -0.190 OA
HETATM   14  CBD   D T 539       6.161   4.180   9.370  1.00 91.30     0.069 A 
HETATM   15  CBB   D T 539       5.015   4.949   9.313  1.00 91.65     0.199 A 
HETATM   16  OAB   D T 539       4.120   4.693  10.117  1.00 91.77    -0.286 OA
HETATM   17  CBF   D T 539       4.895   5.973   8.369  1.00 91.49     0.061 A 
HETATM   18  CAZ   D T 539       3.742   6.766   8.285  1.00 91.40     0.079 A 
ENDROOT
BRANCH   1  19
HETATM   19  NAU   D T 539       6.911   7.391   5.697  1.00 91.78    -0.268 NA
BRANCH  19  20
HETATM   20  CAQ   D T 539       7.328   8.744   5.304  1.00 95.07     0.164 C 
BRANCH  20  21
HETATM   21  CAO   D T 539       8.688   9.083   5.924  1.00 97.10     0.316 C 
BRANCH  21  22
HETATM   22  NAS   D T 539       8.463   9.866   7.159  1.00100.56     0.344 N 
BRANCH  22  23
HETATM   23  CAM   D T 539       8.592   9.049   8.391  1.00103.43     0.326 C 
BRANCH  23  24
HETATM   24  CAK   D T 539       7.323   9.161   9.260  1.00104.61     0.221 C 
HETATM   25  OAC   D T 539       7.225   8.020  10.141  1.00105.31    -0.218 OA
ENDBRANCH  23  24
ENDBRANCH  22  23
ENDBRANCH  21  22
ENDBRANCH  20  21
ENDBRANCH  19  20
ENDBRANCH   1  19
BRANCH  18  26
HETATM   26  NAV   D T 539       2.690   6.619   9.082  1.00 91.54    -0.268 NA
BRANCH  26  27
HETATM   27  CAR   D T 539       2.183   7.744   9.864  1.00 93.33     0.164 C 
BRANCH  27  28
HETATM   28  CAP   D T 539       0.862   7.283  10.455  1.00 95.29     0.316 C 
BRANCH  28  29
HETATM   29  NAT   D T 539       0.838   5.814  10.511  1.00 97.82     0.344 N 
BRANCH  29  30
HETATM   30  CAN   D T 539      -0.546   5.282  10.629  1.00 99.13     0.326 C 
BRANCH  30  31
HETATM   31  CAL   D T 539      -1.571   6.305  10.077  1.00100.48     0.221 C 
HETATM   32  OAD   D T 539      -2.887   5.734   9.889  1.00101.70    -0.218 OA
ENDBRANCH  30  31
ENDBRANCH  29  30
ENDBRANCH  28  29
ENDBRANCH  27  28
ENDBRANCH  26  27
ENDBRANCH  18  26
TORSDOF 12
ENDMDL
MODEL 4
REMARK VINA RESULT:    -6.018      5.647      9.881
REMARK INTER + INTRA:         -10.878
REMARK INTER:                  -9.402
REMARK INTRA:                  -1.476
REMARK UNBOUND:                -0.639
REMARK  12 active torsions:
REMARK  status: ('A' for Active; 'I' for Inactive)
REMARK    1  A    between atoms: CAK_2  and  CAM_3 
REMARK    2  A    between atoms: CAM_3  and  NAS_4 
REMARK    3  A    between atoms: NAS_4  and  CAO_5 
REMARK    4  A    between atoms: CAO_5  and  CAQ_6 
REMARK    5  A    between atoms: CAQ_6  and  NAU_7 
REMARK    6  A    between atoms: NAU_7  and  CAY_8 
REMARK    7  A    between atoms: CAZ_25  and  NAV_26 
REMARK    8  A    between atoms: NAV_26  and  CAR_27 
REMARK    9  A    between atoms: CAR_27  and  CAP_28 
REMARK   10  A    between atoms: CAP_28  and  NAT_29 
REMARK   11  A    between atoms: NAT_29  and  CAN_30 
REMARK   12  A    between atoms: CAN_30  and  CAL_31 
ROOT
HETATM    1  CAY   D T 539       3.775   6.915   8.532  1.00 91.53     0.079 A 
HETATM    2  CAI   D T 539       3.659   7.914   7.579  1.00 91.56     0.020 A 
HETATM    3  CAJ   D T 539       4.643   8.108   6.617  1.00 91.57     0.020 A 
HETATM    4  CBE   D T 539       4.892   6.101   8.512  1.00 91.36     0.061 A 
HETATM    5  CBA   D T 539       4.995   5.102   9.467  1.00 91.28     0.199 A 
HETATM    6  OAA   D T 539       4.097   4.964  10.301  1.00 91.36    -0.286 OA
HETATM    7  CBC   D T 539       6.102   4.267   9.470  1.00 91.28     0.069 A 
HETATM    8  CAW   D T 539       6.224   3.259  10.412  1.00 91.39     0.134 A 
HETATM    9  OAE   D T 539       5.259   3.081  11.334  1.00 91.60    -0.190 OA
HETATM   10  CAG   D T 539       7.334   2.436  10.430  1.00 91.43     0.030 A 
HETATM   11  CAH   D T 539       8.327   2.626   9.478  1.00 91.48     0.030 A 
HETATM   12  CAX   D T 539       8.219   3.625   8.526  1.00 91.18     0.134 A 
HETATM   13  OAF   D T 539       9.193   3.800   7.603  1.00 91.01    -0.190 OA
HETATM   14  CBD   D T 539       7.104   4.441   8.524  1.00 91.30     0.069 A 
HETATM   15  CBB   D T 539       7.002   5.436   7.570  1.00 91.65     0.199 A 
HETATM   16  OAB   D T 539       7.923   5.541   6.762  1.00 91.77    -0.286 OA
HETATM   17  CBF   D T 539       5.890   6.283   7.545  1.00 91.49     0.061 A 
HETATM   18  CAZ   D T 539       5.764   7.304   6.592  1.00 91.40     0.079 A 
ENDROOT
BRANCH   1  19
HETATM   19  NAU   D T 539       2.826   6.724   9.450  1.00 91.78    -0.268 NA
BRANCH  19  20
HETATM   20  CAQ   D T 539       1.988   7.830   9.935  1.00 95.07     0.164 C 
BRANCH  20  21
HETATM   21  CAO   D T 539       1.368   7.472  11.291  1.00 97.10     0.316 C 
BRANCH  21  22
HETATM   22  NAS   D T 539       0.365   6.404  11.085  1.00100.56     0.344 N 
BRANCH  22  23
HETATM   23  CAM   D T 539      -0.793   6.851  10.272  1.00103.43     0.326 C 
BRANCH  23  24
HETATM   24  CAK   D T 539      -1.658   5.649   9.840  1.00104.61     0.221 C 
HETATM   25  OAC   D T 539      -2.954   5.718  10.475  1.00105.31    -0.218 OA
ENDBRANCH  23  24
ENDBRANCH  22  23
ENDBRANCH  21  22
ENDBRANCH  20  21
ENDBRANCH  19  20
ENDBRANCH   1  19
BRANCH  18  26
HETATM   26  NAV   D T 539       6.667   7.545   5.650  1.00 91.54    -0.268 NA
BRANCH  26  27
HETATM   27  CAR   D T 539       7.185   8.896   5.440  1.00 93.33     0.164 C 
BRANCH  27  28
HETATM   28  CAP   D T 539       8.690   8.754   5.314  1.00 95.29     0.316 C 
BRANCH  28  29
HETATM   29  NAT   D T 539       9.293   8.725   6.655  1.00 97.82     0.344 N 
BRANCH  29  30
HETATM   30  CAN   D T 539       8.737   9.783   7.540  1.00 99.13     0.326 C 
BRANCH  30  31
HETATM   31  CAL   D T 539       8.396   9.202   8.935  1.00100.48     0.221 C 
HETATM   32  OAD   D T 539       6.975   9.188   9.207  1.00101.70    -0.218 OA
ENDBRANCH  30  31
ENDBRANCH  29  30
ENDBRANCH  28  29
ENDBRANCH  27  28
ENDBRANCH  26  27
ENDBRANCH  18  26
TORSDOF 12
ENDMDL
MODEL 5
REMARK VINA RESULT:    -5.975      1.312      1.449
REMARK INTER + INTRA:         -10.805
REMARK INTER:                  -9.949
REMARK INTRA:                  -0.856
REMARK UNBOUND:                -0.639
REMARK  12 active torsions:
REMARK  status: ('A' for Active; 'I' for Inactive)
REMARK    1  A    between atoms: CAK_2  and  CAM_3 
REMARK    2  A    between atoms: CAM_3  and  NAS_4 
REMARK    3  A    between atoms: NAS_4  and  CAO_5 
REMARK    4  A    between atoms: CAO_5  and  CAQ_6 
REMARK    5  A    between atoms: CAQ_6  and  NAU_7 
REMARK    6  A    between atoms: NAU_7  and  CAY_8 
REMARK    7  A    between atoms: CAZ_25  and  NAV_26 
REMARK    8  A    between atoms: NAV_26  and  CAR_27 
REMARK    9  A    between atoms: CAR_27  and  CAP_28 
REMARK   10  A    between atoms: CAP_28  and  NAT_29 
REMARK   11  A    between atoms: NAT_29  and  CAN_30 
REMARK   12  A    between atoms: CAN_30  and  CAL_31 
ROOT
HETATM    1  CAY   D T 539       1.043   1.467  12.409  1.00 91.53     0.079 A 
HETATM    2  CAI   D T 539       1.991   2.206  11.718  1.00 91.56     0.020 A 
HETATM    3  CAJ   D T 539       1.614   3.194  10.815  1.00 91.57     0.020 A 
HETATM    4  CBE   D T 539      -0.296   1.730  12.190  1.00 91.36     0.061 A 
HETATM    5  CBA   D T 539      -1.235   0.988  12.889  1.00 91.28     0.199 A 
HETATM    6  OAA   D T 539      -0.856   0.122  13.681  1.00 91.36    -0.286 OA
HETATM    7  CBC   D T 539      -2.586   1.230  12.693  1.00 91.28     0.069 A 
HETATM    8  CAW   D T 539      -3.541   0.504  13.384  1.00 91.39     0.134 A 
HETATM    9  OAE   D T 539      -3.160  -0.446  14.260  1.00 91.60    -0.190 OA
HETATM   10  CAG   D T 539      -4.889   0.730  13.179  1.00 91.43     0.030 A 
HETATM   11  CAH   D T 539      -5.276   1.709  12.274  1.00 91.48     0.030 A 
HETATM   12  CAX   D T 539      -4.335   2.448  11.578  1.00 91.18     0.134 A 
HETATM   13  OAF   D T 539      -4.725   3.401  10.699  1.00 91.01    -0.190 OA
HETATM   14  CBD   D T 539      -2.991   2.207  11.793  1.00 91.30     0.069 A 
HETATM   15  CBB   D T 539      -2.057   2.949  11.095  1.00 91.65     0.199 A 
HETATM   16  OAB   D T 539      -2.478   3.797  10.312  1.00 91.77    -0.286 OA
HETATM   17  CBF   D T 539      -0.689   2.726  11.284  1.00 91.49     0.061 A 
HETATM   18  CAZ   D T 539       0.280   3.460  10.587  1.00 91.40     0.079 A 
ENDROOT
BRANCH   1  19
HETATM   19  NAU   D T 539       1.405   0.525  13.280  1.00 91.78    -0.268 NA
BRANCH  19  20
HETATM   20  CAQ   D T 539       2.482   0.747  14.255  1.00 95.07     0.164 C 
BRANCH  20  21
HETATM   21  CAO   D T 539       2.696  -0.510  15.106  1.00 97.10     0.316 C 
BRANCH  21  22
HETATM   22  NAS   D T 539       3.803  -0.256  16.054  1.00100.56     0.344 N 
BRANCH  22  23
HETATM   23  CAM   D T 539       4.573   0.970  15.725  1.00103.43     0.326 C 
BRANCH  23  24
HETATM   24  CAK   D T 539       5.879   1.034  16.542  1.00104.61     0.221 C 
HETATM   25  OAC   D T 539       5.577   1.103  17.954  1.00105.31    -0.218 OA
ENDBRANCH  23  24
ENDBRANCH  22  23
ENDBRANCH  21  22
ENDBRANCH  20  21
ENDBRANCH  19  20
ENDBRANCH   1  19
BRANCH  18  26
HETATM   26  NAV   D T 539      -0.011   4.412   9.710  1.00 91.54    -0.268 NA
BRANCH  26  27
HETATM   27  CAR   D T 539       0.963   5.454   9.388  1.00 93.33     0.164 C 
BRANCH  27  28
HETATM   28  CAP   D T 539       0.639   6.626  10.297  1.00 95.29     0.316 C 
BRANCH  28  29
HETATM   29  NAT   D T 539       1.833   7.469  10.453  1.00 97.82     0.344 N 
BRANCH  29  30
HETATM   30  CAN   D T 539       2.983   6.962   9.657  1.00 99.13     0.326 C 
BRANCH  30  31
HETATM   31  CAL   D T 539       3.430   8.016   8.614  1.00100.48     0.221 C 
HETATM   32  OAD   D T 539       3.405   7.511   7.258  1.00101.70    -0.218 OA
ENDBRANCH  30  31
ENDBRANCH  29  30
ENDBRANCH  28  29
ENDBRANCH  27  28
ENDBRANCH  26  27
ENDBRANCH  18  26
TORSDOF 12
ENDMDL
MODEL 6
REMARK VINA RESULT:    -5.936      6.012     10.585
REMARK INTER + INTRA:         -10.739
REMARK INTER:                  -9.459
REMARK INTRA:                  -1.280
REMARK UNBOUND:                -0.639
REMARK  12 active torsions:
REMARK  status: ('A' for Active; 'I' for Inactive)
REMARK    1  A    between atoms: CAK_2  and  CAM_3 
REMARK    2  A    between atoms: CAM_3  and  NAS_4 
REMARK    3  A    between atoms: NAS_4  and  CAO_5 
REMARK    4  A    between atoms: CAO_5  and  CAQ_6 
REMARK    5  A    between atoms: CAQ_6  and  NAU_7 
REMARK    6  A    between atoms: NAU_7  and  CAY_8 
REMARK    7  A    between atoms: CAZ_25  and  NAV_26 
REMARK    8  A    between atoms: NAV_26  and  CAR_27 
REMARK    9  A    between atoms: CAR_27  and  CAP_28 
REMARK   10  A    between atoms: CAP_28  and  NAT_29 
REMARK   11  A    between atoms: NAT_29  and  CAN_30 
REMARK   12  A    between atoms: CAN_30  and  CAL_31 
ROOT
HETATM    1  CAY   D T 539       3.560   4.671   9.062  1.00 91.53     0.079 A 
HETATM    2  CAI   D T 539       3.729   3.623   9.953  1.00 91.56     0.020 A 
HETATM    3  CAJ   D T 539       4.990   3.108  10.227  1.00 91.57     0.020 A 
HETATM    4  CBE   D T 539       4.674   5.207   8.444  1.00 91.36     0.061 A 
HETATM    5  CBA   D T 539       4.493   6.257   7.558  1.00 91.28     0.199 A 
HETATM    6  OAA   D T 539       3.356   6.684   7.346  1.00 91.36    -0.286 OA
HETATM    7  CBC   D T 539       5.592   6.818   6.925  1.00 91.28     0.069 A 
HETATM    8  CAW   D T 539       5.435   7.872   6.040  1.00 91.39     0.134 A 
HETATM    9  OAE   D T 539       4.206   8.363   5.790  1.00 91.60    -0.190 OA
HETATM   10  CAG   D T 539       6.526   8.422   5.393  1.00 91.43     0.030 A 
HETATM   11  CAH   D T 539       7.790   7.910   5.653  1.00 91.48     0.030 A 
HETATM   12  CAX   D T 539       7.965   6.862   6.540  1.00 91.18     0.134 A 
HETATM   13  OAF   D T 539       9.203   6.372   6.785  1.00 91.01    -0.190 OA
HETATM   14  CBD   D T 539       6.864   6.320   7.175  1.00 91.30     0.069 A 
HETATM   15  CBB   D T 539       7.046   5.274   8.059  1.00 91.65     0.199 A 
HETATM   16  OAB   D T 539       8.196   4.877   8.236  1.00 91.77    -0.286 OA
HETATM   17  CBF   D T 539       5.952   4.700   8.714  1.00 91.49     0.061 A 
HETATM   18  CAZ   D T 539       6.108   3.634   9.611  1.00 91.40     0.079 A 
ENDROOT
BRANCH   1  19
HETATM   19  NAU   D T 539       2.349   5.170   8.806  1.00 91.78    -0.268 NA
BRANCH  19  20
HETATM   20  CAQ   D T 539       1.144   4.329   8.843  1.00 95.07     0.164 C 
BRANCH  20  21
HETATM   21  CAO   D T 539       0.034   5.027   9.638  1.00 97.10     0.316 C 
BRANCH  21  22
HETATM   22  NAS   D T 539       0.630   6.146  10.400  1.00100.56     0.344 N 
BRANCH  22  23
HETATM   23  CAM   D T 539      -0.322   7.263  10.623  1.00103.43     0.326 C 
BRANCH  23  24
HETATM   24  CAK   D T 539       0.319   8.614  10.246  1.00104.61     0.221 C 
HETATM   25  OAC   D T 539       1.698   8.417   9.859  1.00105.31    -0.218 OA
ENDBRANCH  23  24
ENDBRANCH  22  23
ENDBRANCH  21  22
ENDBRANCH  20  21
ENDBRANCH  19  20
ENDBRANCH   1  19
BRANCH  18  26
HETATM   26  NAV   D T 539       7.282   3.094   9.913  1.00 91.54    -0.268 NA
BRANCH  26  27
HETATM   27  CAR   D T 539       7.368   1.959  10.830  1.00 93.33     0.164 C 
BRANCH  27  28
HETATM   28  CAP   D T 539       8.510   1.096  10.324  1.00 95.29     0.316 C 
BRANCH  28  29
HETATM   29  NAT   D T 539       9.721   1.918  10.191  1.00 97.82     0.344 N 
BRANCH  29  30
HETATM   30  CAN   D T 539      10.616   1.424   9.111  1.00 99.13     0.326 C 
BRANCH  30  31
HETATM   31  CAL   D T 539       9.932   1.571   7.728  1.00100.48     0.221 C 
HETATM   32  OAD   D T 539       9.849   0.319   7.007  1.00101.70    -0.218 OA
ENDBRANCH  30  31
ENDBRANCH  29  30
ENDBRANCH  28  29
ENDBRANCH  27  28
ENDBRANCH  26  27
ENDBRANCH  18  26
TORSDOF 12
ENDMDL
MODEL 7
REMARK VINA RESULT:    -5.927      6.133      9.629
REMARK INTER + INTRA:         -10.724
REMARK INTER:                  -9.561
REMARK INTRA:                  -1.163
REMARK UNBOUND:                -0.639
REMARK  12 active torsions:
REMARK  status: ('A' for Active; 'I' for Inactive)
REMARK    1  A    between atoms: CAK_2  and  CAM_3 
REMARK    2  A    between atoms: CAM_3  and  NAS_4 
REMARK    3  A    between atoms: NAS_4  and  CAO_5 
REMARK    4  A    between atoms: CAO_5  and  CAQ_6 
REMARK    5  A    between atoms: CAQ_6  and  NAU_7 
REMARK    6  A    between atoms: NAU_7  and  CAY_8 
REMARK    7  A    between atoms: CAZ_25  and  NAV_26 
REMARK    8  A    between atoms: NAV_26  and  CAR_27 
REMARK    9  A    between atoms: CAR_27  and  CAP_28 
REMARK   10  A    between atoms: CAP_28  and  NAT_29 
REMARK   11  A    between atoms: NAT_29  and  CAN_30 
REMARK   12  A    between atoms: CAN_30  and  CAL_31 
ROOT
HETATM    1  CAY   D T 539       6.246   3.808   9.555  1.00 91.53     0.079 A 
HETATM    2  CAI   D T 539       5.127   3.274  10.175  1.00 91.56     0.020 A 
HETATM    3  CAJ   D T 539       3.855   3.768   9.913  1.00 91.57     0.020 A 
HETATM    4  CBE   D T 539       6.079   4.848   8.660  1.00 91.36     0.061 A 
HETATM    5  CBA   D T 539       7.204   5.371   8.043  1.00 91.28     0.199 A 
HETATM    6  OAA   D T 539       8.314   4.901   8.304  1.00 91.36    -0.286 OA
HETATM    7  CBC   D T 539       7.068   6.412   7.138  1.00 91.28     0.069 A 
HETATM    8  CAW   D T 539       8.178   6.948   6.506  1.00 91.39     0.134 A 
HETATM    9  OAE   D T 539       9.404   6.453   6.766  1.00 91.60    -0.190 OA
HETATM   10  CAG   D T 539       8.050   7.998   5.616  1.00 91.43     0.030 A 
HETATM   11  CAH   D T 539       6.785   8.505   5.353  1.00 91.48     0.030 A 
HETATM   12  CAX   D T 539       5.663   7.978   5.972  1.00 91.18     0.134 A 
HETATM   13  OAF   D T 539       4.435   8.480   5.706  1.00 91.01    -0.190 OA
HETATM   14  CBD   D T 539       5.810   6.931   6.861  1.00 91.30     0.069 A 
HETATM   15  CBB   D T 539       4.687   6.409   7.475  1.00 91.65     0.199 A 
HETATM   16  OAB   D T 539       3.602   6.912   7.190  1.00 91.77    -0.286 OA
HETATM   17  CBF   D T 539       4.801   5.354   8.384  1.00 91.49     0.061 A 
HETATM   18  CAZ   D T 539       3.679   4.809   9.025  1.00 91.40     0.079 A 
ENDROOT
BRANCH   1  19
HETATM   19  NAU   D T 539       7.466   3.327   9.801  1.00 91.78    -0.268 NA
BRANCH  19  20
HETATM   20  CAQ   D T 539       7.698   2.294  10.820  1.00 95.07     0.164 C 
BRANCH  20  21
HETATM   21  CAO   D T 539       8.471   1.116  10.216  1.00 97.10     0.316 C 
BRANCH  21  22
HETATM   22  NAS   D T 539       9.366   1.632   9.157  1.00100.56     0.344 N 
BRANCH  22  23
HETATM   23  CAM   D T 539       9.799   0.578   8.206  1.00103.43     0.326 C 
BRANCH  23  24
HETATM   24  CAK   D T 539      10.091   1.180   6.816  1.00104.61     0.221 C 
HETATM   25  OAC   D T 539      10.193   0.127   5.832  1.00105.31    -0.218 OA
ENDBRANCH  23  24
ENDBRANCH  22  23
ENDBRANCH  21  22
ENDBRANCH  20  21
ENDBRANCH  19  20
ENDBRANCH   1  19
BRANCH  18  26
HETATM   26  NAV   D T 539       2.439   5.237   8.823  1.00 91.54    -0.268 NA
BRANCH  26  27
HETATM   27  CAR   D T 539       1.307   4.318   8.925  1.00 93.33     0.164 C 
BRANCH  27  28
HETATM   28  CAP   D T 539       0.205   5.086   9.631  1.00 95.29     0.316 C 
BRANCH  28  29
HETATM   29  NAT   D T 539       0.797   6.177  10.419  1.00 97.82     0.344 N 
BRANCH  29  30
HETATM   30  CAN   D T 539      -0.166   7.287  10.648  1.00 99.13     0.326 C 
BRANCH  30  31
HETATM   31  CAL   D T 539       0.482   8.650  10.298  1.00100.48     0.221 C 
HETATM   32  OAD   D T 539       1.812   8.514   9.743  1.00101.70    -0.218 OA
ENDBRANCH  30  31
ENDBRANCH  29  30
ENDBRANCH  28  29
ENDBRANCH  27  28
ENDBRANCH  26  27
ENDBRANCH  18  26
TORSDOF 12
ENDMDL
MODEL 8
REMARK VINA RESULT:    -5.897      4.688      8.733
REMARK INTER + INTRA:         -10.673
REMARK INTER:                  -9.489
REMARK INTRA:                  -1.184
REMARK UNBOUND:                -0.639
REMARK  12 active torsions:
REMARK  status: ('A' for Active; 'I' for Inactive)
REMARK    1  A    between atoms: CAK_2  and  CAM_3 
REMARK    2  A    between atoms: CAM_3  and  NAS_4 
REMARK    3  A    between atoms: NAS_4  and  CAO_5 
REMARK    4  A    between atoms: CAO_5  and  CAQ_6 
REMARK    5  A    between atoms: CAQ_6  and  NAU_7 
REMARK    6  A    between atoms: NAU_7  and  CAY_8 
REMARK    7  A    between atoms: CAZ_25  and  NAV_26 
REMARK    8  A    between atoms: NAV_26  and  CAR_27 
REMARK    9  A    between atoms: CAR_27  and  CAP_28 
REMARK   10  A    between atoms: CAP_28  and  NAT_29 
REMARK   11  A    between atoms: NAT_29  and  CAN_30 
REMARK   12  A    between atoms: CAN_30  and  CAL_31 
ROOT
HETATM    1  CAY   D T 539       5.678   3.610   9.778  1.00 91.53     0.079 A 
HETATM    2  CAI   D T 539       4.489   3.132  10.309  1.00 91.56     0.020 A 
HETATM    3  CAJ   D T 539       3.267   3.684   9.945  1.00 91.57     0.020 A 
HETATM    4  CBE   D T 539       5.632   4.651   8.871  1.00 91.36     0.061 A 
HETATM    5  CBA   D T 539       6.826   5.117   8.344  1.00 91.28     0.199 A 
HETATM    6  OAA   D T 539       7.888   4.597   8.693  1.00 91.36    -0.286 OA
HETATM    7  CBC   D T 539       6.812   6.158   7.428  1.00 91.28     0.069 A 
HETATM    8  CAW   D T 539       7.992   6.637   6.886  1.00 91.39     0.134 A 
HETATM    9  OAE   D T 539       9.169   6.087   7.244  1.00 91.60    -0.190 OA
HETATM   10  CAG   D T 539       7.985   7.687   5.986  1.00 91.43     0.030 A 
HETATM   11  CAH   D T 539       6.770   8.251   5.622  1.00 91.48     0.030 A 
HETATM   12  CAX   D T 539       5.579   7.781   6.151  1.00 91.18     0.134 A 
HETATM   13  OAF   D T 539       4.401   8.339   5.787  1.00 91.01    -0.190 OA
HETATM   14  CBD   D T 539       5.605   6.733   7.051  1.00 91.30     0.069 A 
HETATM   15  CBB   D T 539       4.414   6.269   7.575  1.00 91.65     0.199 A 
HETATM   16  OAB   D T 539       3.379   6.820   7.203  1.00 91.77    -0.286 OA
HETATM   17  CBF   D T 539       4.405   5.214   8.493  1.00 91.49     0.061 A 
HETATM   18  CAZ   D T 539       3.212   4.727   9.043  1.00 91.40     0.079 A 
ENDROOT
BRANCH   1  19
HETATM   19  NAU   D T 539       6.850   3.074  10.122  1.00 91.78    -0.268 NA
BRANCH  19  20
HETATM   20  CAQ   D T 539       6.997   2.243  11.325  1.00 95.07     0.164 C 
BRANCH  20  21
HETATM   21  CAO   D T 539       7.545   3.081  12.486  1.00 97.10     0.316 C 
BRANCH  21  22
HETATM   22  NAS   D T 539       6.470   3.265  13.485  1.00100.56     0.344 N 
BRANCH  22  23
HETATM   23  CAM   D T 539       5.685   2.028  13.721  1.00103.43     0.326 C 
BRANCH  23  24
HETATM   24  CAK   D T 539       4.665   2.234  14.859  1.00104.61     0.221 C 
HETATM   25  OAC   D T 539       3.809   1.075  14.972  1.00105.31    -0.218 OA
ENDBRANCH  23  24
ENDBRANCH  22  23
ENDBRANCH  21  22
ENDBRANCH  20  21
ENDBRANCH  19  20
ENDBRANCH   1  19
BRANCH  18  26
HETATM   26  NAV   D T 539       2.013   5.211   8.743  1.00 91.54    -0.268 NA
BRANCH  26  27
HETATM   27  CAR   D T 539       0.816   4.383   8.886  1.00 93.33     0.164 C 
BRANCH  27  28
HETATM   28  CAP   D T 539      -0.146   5.183   9.745  1.00 95.29     0.316 C 
BRANCH  28  29
HETATM   29  NAT   D T 539      -0.192   4.605  11.096  1.00 97.82     0.344 N 
BRANCH  29  30
HETATM   30  CAN   D T 539      -0.244   3.119  11.067  1.00 99.13     0.326 C 
BRANCH  30  31
HETATM   31  CAL   D T 539      -1.089   2.580  12.248  1.00100.48     0.221 C 
HETATM   32  OAD   D T 539      -2.310   1.935  11.817  1.00101.70    -0.218 OA
ENDBRANCH  30  31
ENDBRANCH  29  30
ENDBRANCH  28  29
ENDBRANCH  27  28
ENDBRANCH  26  27
ENDBRANCH  18  26
TORSDOF 12
ENDMDL
MODEL 9
REMARK VINA RESULT:    -5.720      4.334      9.124
REMARK INTER + INTRA:         -10.372
REMARK INTER:                  -9.119
REMARK INTRA:                  -1.254
REMARK UNBOUND:                -0.639
REMARK  12 active torsions:
REMARK  status: ('A' for Active; 'I' for Inactive)
REMARK    1  A    between atoms: CAK_2  and  CAM_3 
REMARK    2  A    between atoms: CAM_3  and  NAS_4 
REMARK    3  A    between atoms: NAS_4  and  CAO_5 
REMARK    4  A    between atoms: CAO_5  and  CAQ_6 
REMARK    5  A    between atoms: CAQ_6  and  NAU_7 
REMARK    6  A    between atoms: NAU_7  and  CAY_8 
REMARK    7  A    between atoms: CAZ_25  and  NAV_26 
REMARK    8  A    between atoms: NAV_26  and  CAR_27 
REMARK    9  A    between atoms: CAR_27  and  CAP_28 
REMARK   10  A    between atoms: CAP_28  and  NAT_29 
REMARK   11  A    between atoms: NAT_29  and  CAN_30 
REMARK   12  A    between atoms: CAN_30  and  CAL_31 
ROOT
HETATM    1  CAY   D T 539       5.177   6.916   8.985  1.00 91.53     0.079 A 
HETATM    2  CAI   D T 539       6.338   6.162   8.906  1.00 91.56     0.020 A 
HETATM    3  CAJ   D T 539       6.347   4.818   9.259  1.00 91.57     0.020 A 
HETATM    4  CBE   D T 539       4.015   6.307   9.419  1.00 91.36     0.061 A 
HETATM    5  CBA   D T 539       2.860   7.069   9.489  1.00 91.28     0.199 A 
HETATM    6  OAA   D T 539       2.896   8.258   9.165  1.00 91.36    -0.286 OA
HETATM    7  CBC   D T 539       1.677   6.485   9.917  1.00 91.28     0.069 A 
HETATM    8  CAW   D T 539       0.510   7.227   9.991  1.00 91.39     0.134 A 
HETATM    9  OAE   D T 539       0.516   8.527   9.641  1.00 91.60    -0.190 OA
HETATM   10  CAG   D T 539      -0.667   6.654  10.435  1.00 91.43     0.030 A 
HETATM   11  CAH   D T 539      -0.667   5.313  10.797  1.00 91.48     0.030 A 
HETATM   12  CAX   D T 539       0.489   4.556  10.724  1.00 91.18     0.134 A 
HETATM   13  OAF   D T 539       0.476   3.250  11.078  1.00 91.01    -0.190 OA
HETATM   14  CBD   D T 539       1.658   5.145  10.281  1.00 91.30     0.069 A 
HETATM   15  CBB   D T 539       2.809   4.383  10.211  1.00 91.65     0.199 A 
HETATM   16  OAB   D T 539       2.728   3.204  10.549  1.00 91.77    -0.286 OA
HETATM   17  CBF   D T 539       4.009   4.951   9.774  1.00 91.49     0.061 A 
HETATM   18  CAZ   D T 539       5.192   4.203   9.697  1.00 91.40     0.079 A 
ENDROOT
BRANCH   1  19
HETATM   19  NAU   D T 539       5.167   8.204   8.639  1.00 91.78    -0.268 NA
BRANCH  19  20
HETATM   20  CAQ   D T 539       6.032   8.724   7.570  1.00 95.07     0.164 C 
BRANCH  20  21
HETATM   21  CAO   D T 539       5.335   8.591   6.211  1.00 97.10     0.316 C 
BRANCH  21  22
HETATM   22  NAS   D T 539       6.368   8.542   5.153  1.00100.56     0.344 N 
BRANCH  22  23
HETATM   23  CAM   D T 539       7.615   7.872   5.597  1.00103.43     0.326 C 
BRANCH  23  24
HETATM   24  CAK   D T 539       8.854   8.699   5.197  1.00104.61     0.221 C 
HETATM   25  OAC   D T 539       8.978   9.854   6.058  1.00105.31    -0.218 OA
ENDBRANCH  23  24
ENDBRANCH  22  23
ENDBRANCH  21  22
ENDBRANCH  20  21
ENDBRANCH  19  20
ENDBRANCH   1  19
BRANCH  18  26
HETATM   26  NAV   D T 539       5.271   2.918  10.022  1.00 91.54    -0.268 NA
BRANCH  26  27
HETATM   27  CAR   D T 539       6.256   2.453  10.997  1.00 93.33     0.164 C 
BRANCH  27  28
HETATM   28  CAP   D T 539       5.694   2.807  12.362  1.00 95.29     0.316 C 
BRANCH  28  29
HETATM   29  NAT   D T 539       6.759   3.385  13.195  1.00 97.82     0.344 N 
BRANCH  29  30
HETATM   30  CAN   D T 539       6.684   2.915  14.604  1.00 99.13     0.326 C 
BRANCH  30  31
HETATM   31  CAL   D T 539       5.212   2.865  15.083  1.00100.48     0.221 C 
HETATM   32  OAD   D T 539       4.823   1.558  15.568  1.00101.70    -0.218 OA
ENDBRANCH  30  31
ENDBRANCH  29  30
ENDBRANCH  28  29
ENDBRANCH  27  28
ENDBRANCH  26  27
ENDBRANCH  18  26
TORSDOF 12
ENDMDL
