MODEL 1
REMARK VINA RESULT:    -8.160      0.000      0.000
REMARK INTER + INTRA:         -10.753
REMARK INTER:                  -9.591
REMARK INTRA:                  -1.161
REMARK UNBOUND:                -1.161
REMARK  3 active torsions:
REMARK  status: ('A' for Active; 'I' for Inactive)
REMARK    1  A    between atoms: C8_11  and  C9_12 
REMARK    2  A    between atoms: C10_13  and  N2_14 
REMARK    3  A    between atoms: N2_14  and  C11_15 
ROOT
HETATM    1  C1    D T 298       9.939   4.150   0.975  1.00 17.20     0.036 A 
HETATM    2  C2    D T 298       9.277   5.031   0.094  1.00 17.20     0.014 A 
HETATM    3  C3    D T 298       9.290   6.413   0.297  1.00 17.20     0.058 A 
HETATM    4 CL     D T 298       8.470   7.435  -0.815  1.00 17.20    -0.082 Cl
HETATM    5  C4    D T 298       9.962   6.964   1.390  1.00 17.20     0.013 A 
HETATM    6  C5    D T 298      10.635   6.115   2.285  1.00 17.20     0.020 A 
HETATM    7  C6    D T 298      10.620   4.724   2.073  1.00 17.20     0.086 A 
HETATM    8  N1    D T 298      11.309   3.895   2.970  1.00 17.20    -0.208 NA
HETATM    9  C7    D T 298      11.370   2.523   2.846  1.00 17.20     0.284 A 
HETATM   10  O1    D T 298      11.994   1.844   3.668  1.00 17.20    -0.265 OA
HETATM   11  C8    D T 298      10.638   1.894   1.690  1.00 17.20     0.111 A 
HETATM   12  C10   D T 298       9.954   2.672   0.793  1.00 17.20     0.085 A 
ENDROOT
BRANCH  11  13
HETATM   13  C9    D T 298      10.659   0.458   1.495  1.00 17.20     0.169 A 
HETATM   14  N3    D T 298       9.866  -0.476   2.020  1.00 17.20    -0.225 NA
HETATM   15  C12   D T 298      10.306  -1.678   1.529  1.00 17.20     0.101 A 
HETATM   16  C13   D T 298      11.400  -1.498   0.684  1.00 17.20     0.101 A 
HETATM   17  C14   D T 298       9.819  -2.982   1.768  1.00 17.20     0.021 A 
HETATM   18  N4    D T 298      11.606  -0.139   0.680  1.00 17.20    -0.225 NA
HETATM   19  C17   D T 298      12.052  -2.560   0.041  1.00 17.20     0.021 A 
HETATM   20  C16   D T 298      11.553  -3.854   0.290  1.00 17.20     0.002 A 
HETATM   21  C15   D T 298      10.454  -4.065   1.137  1.00 17.20     0.002 A 
ENDBRANCH  11  13
BRANCH  12  22
HETATM   22  N2    D T 298       9.259   2.089  -0.273  1.00 17.20    -0.270 NA
BRANCH  22  23
HETATM   23  C11   D T 298       9.681   1.676  -1.602  1.00 20.30     0.137 C 
HETATM   24  C18   D T 298      10.778   2.647  -2.128  1.00 20.30     0.274 C 
HETATM   25  N5    D T 298      10.312   3.274  -3.444  1.00 20.30     0.139 N 
HETATM   26  C19   D T 298      10.092   2.189  -4.485  1.00 20.30     0.250 C 
HETATM   27  C21   D T 298       9.025   4.068  -3.238  1.00 20.30     0.250 C 
HETATM   28  C20   D T 298       8.999   1.237  -3.975  1.00 20.30     0.037 C 
HETATM   29  C23   D T 298       8.483   1.688  -2.587  1.00 20.30     0.029 C 
HETATM   30  C22   D T 298       7.933   3.119  -2.731  1.00 20.30     0.037 C 
ENDBRANCH  22  23
ENDBRANCH  12  22
TORSDOF 3
ENDMDL
MODEL 2
REMARK VINA RESULT:    -7.783      4.746      8.266
REMARK INTER + INTRA:         -10.310
REMARK INTER:                  -9.476
REMARK INTRA:                  -0.834
REMARK UNBOUND:                -1.161
REMARK  3 active torsions:
REMARK  status: ('A' for Active; 'I' for Inactive)
REMARK    1  A    between atoms: C8_11  and  C9_12 
REMARK    2  A    between atoms: C10_13  and  N2_14 
REMARK    3  A    between atoms: N2_14  and  C11_15 
ROOT
HETATM    1  C1    D T 298       8.075   1.608  -5.632  1.00 17.20     0.036 A 
HETATM    2  C2    D T 298       7.592   1.505  -6.954  1.00 17.20     0.014 A 
HETATM    3  C3    D T 298       7.259   0.269  -7.514  1.00 17.20     0.058 A 
HETATM    4 CL     D T 298       6.669   0.208  -9.127  1.00 17.20    -0.082 Cl
HETATM    5  C4    D T 298       7.401  -0.907  -6.775  1.00 17.20     0.013 A 
HETATM    6  C5    D T 298       7.876  -0.838  -5.455  1.00 17.20     0.020 A 
HETATM    7  C6    D T 298       8.207   0.410  -4.896  1.00 17.20     0.086 A 
HETATM    8  N1    D T 298       8.667   0.457  -3.572  1.00 17.20    -0.208 NA
HETATM    9  C7    D T 298       9.004   1.628  -2.924  1.00 17.20     0.284 A 
HETATM   10  O1    D T 298       9.403   1.609  -1.756  1.00 17.20    -0.265 OA
HETATM   11  C8    D T 298       8.883   2.913  -3.700  1.00 17.20     0.111 A 
HETATM   12  C10   D T 298       8.437   2.906  -4.995  1.00 17.20     0.085 A 
ENDROOT
BRANCH  11  13
HETATM   13  C9    D T 298       9.218   4.182  -3.085  1.00 17.20     0.169 A 
HETATM   14  N3    D T 298      10.266   4.975  -3.305  1.00 17.20    -0.225 NA
HETATM   15  C12   D T 298      10.123   6.048  -2.463  1.00 17.20     0.101 A 
HETATM   16  C13   D T 298       8.967   5.924  -1.693  1.00 17.20     0.101 A 
HETATM   17  C14   D T 298      10.954   7.178  -2.293  1.00 17.20     0.021 A 
HETATM   18  N4    D T 298       8.412   4.735  -2.103  1.00 17.20    -0.225 NA
HETATM   19  C17   D T 298       8.573   6.880  -0.746  1.00 17.20     0.021 A 
HETATM   20  C16   D T 298       9.413   8.001  -0.589  1.00 17.20     0.002 A 
HETATM   21  C15   D T 298      10.584   8.151  -1.349  1.00 17.20     0.002 A 
ENDBRANCH  11  13
BRANCH  12  22
HETATM   22  N2    D T 298       8.339   4.096  -5.724  1.00 17.20    -0.270 NA
BRANCH  22  23
HETATM   23  C11   D T 298       7.241   5.031  -5.920  1.00 20.30     0.137 C 
HETATM   24  C18   D T 298       5.918   4.244  -6.149  1.00 20.30     0.274 C 
HETATM   25  N5    D T 298       5.319   4.641  -7.500  1.00 20.30     0.139 N 
HETATM   26  C19   D T 298       5.002   6.127  -7.510  1.00 20.30     0.250 C 
HETATM   27  C21   D T 298       6.281   4.305  -8.636  1.00 20.30     0.250 C 
HETATM   28  C20   D T 298       6.309   6.907  -7.299  1.00 20.30     0.037 C 
HETATM   29  C23   D T 298       7.507   5.939  -7.149  1.00 20.30     0.029 C 
HETATM   30  C22   D T 298       7.584   5.084  -8.429  1.00 20.30     0.037 C 
ENDBRANCH  22  23
ENDBRANCH  12  22
TORSDOF 3
ENDMDL
MODEL 3
REMARK VINA RESULT:    -7.685      2.710      6.305
REMARK INTER + INTRA:         -10.195
REMARK INTER:                  -8.755
REMARK INTRA:                  -1.440
REMARK UNBOUND:                -1.161
REMARK  3 active torsions:
REMARK  status: ('A' for Active; 'I' for Inactive)
REMARK    1  A    between atoms: C8_11  and  C9_12 
REMARK    2  A    between atoms: C10_13  and  N2_14 
REMARK    3  A    between atoms: N2_14  and  C11_15 
ROOT
HETATM    1  C1    D T 298      11.461   0.300   0.684  1.00 17.20     0.036 A 
HETATM    2  C2    D T 298      11.513  -0.886  -0.080  1.00 17.20     0.014 A 
HETATM    3  C3    D T 298      11.740  -2.128   0.515  1.00 17.20     0.058 A 
HETATM    4 CL     D T 298      11.786  -3.536  -0.468  1.00 17.20    -0.082 Cl
HETATM    5  C4    D T 298      11.928  -2.231   1.895  1.00 17.20     0.013 A 
HETATM    6  C5    D T 298      11.878  -1.071   2.686  1.00 17.20     0.020 A 
HETATM    7  C6    D T 298      11.646   0.178   2.080  1.00 17.20     0.086 A 
HETATM    8  N1    D T 298      11.587   1.322   2.889  1.00 17.20    -0.208 NA
HETATM    9  C7    D T 298      11.350   2.590   2.399  1.00 17.20     0.284 A 
HETATM   10  O1    D T 298      11.309   3.561   3.160  1.00 17.20    -0.265 OA
HETATM   11  C8    D T 298      11.165   2.739   0.912  1.00 17.20     0.111 A 
HETATM   12  C10   D T 298      11.216   1.644   0.090  1.00 17.20     0.085 A 
ENDROOT
BRANCH  11  13
HETATM   13  C9    D T 298      10.912   4.040   0.326  1.00 17.20     0.169 A 
HETATM   14  N3    D T 298      11.763   4.880  -0.262  1.00 17.20    -0.225 NA
HETATM   15  C12   D T 298      11.029   5.976  -0.636  1.00 17.20     0.101 A 
HETATM   16  C13   D T 298       9.692   5.825  -0.272  1.00 17.20     0.101 A 
HETATM   17  C14   D T 298      11.442   7.156  -1.294  1.00 17.20     0.021 A 
HETATM   18  N4    D T 298       9.642   4.594   0.337  1.00 17.20    -0.225 NA
HETATM   19  C17   D T 298       8.714   6.796  -0.533  1.00 17.20     0.021 A 
HETATM   20  C16   D T 298       9.142   7.967  -1.191  1.00 17.20     0.002 A 
HETATM   21  C15   D T 298      10.483   8.146  -1.567  1.00 17.20     0.002 A 
ENDBRANCH  11  13
BRANCH  12  22
HETATM   22  N2    D T 298      11.061   1.782  -1.293  1.00 17.20    -0.270 NA
BRANCH  22  23
HETATM   23  C11   D T 298      10.016   1.342  -2.206  1.00 20.30     0.137 C 
HETATM   24  C18   D T 298      10.656   0.856  -3.538  1.00 20.30     0.274 C 
HETATM   25  N5    D T 298      10.089   1.672  -4.701  1.00 20.30     0.139 N 
HETATM   26  C19   D T 298       8.585   1.474  -4.790  1.00 20.30     0.250 C 
HETATM   27  C21   D T 298      10.410   3.154  -4.526  1.00 20.30     0.250 C 
HETATM   28  C20   D T 298       7.949   1.967  -3.481  1.00 20.30     0.037 C 
HETATM   29  C23   D T 298       9.032   2.501  -2.512  1.00 20.30     0.029 C 
HETATM   30  C22   D T 298       9.774   3.649  -3.222  1.00 20.30     0.037 C 
ENDBRANCH  22  23
ENDBRANCH  12  22
TORSDOF 3
ENDMDL
MODEL 4
REMARK VINA RESULT:    -7.593      3.422      7.456
REMARK INTER + INTRA:         -10.086
REMARK INTER:                  -9.075
REMARK INTRA:                  -1.011
REMARK UNBOUND:                -1.161
REMARK  3 active torsions:
REMARK  status: ('A' for Active; 'I' for Inactive)
REMARK    1  A    between atoms: C8_11  and  C9_12 
REMARK    2  A    between atoms: C10_13  and  N2_14 
REMARK    3  A    between atoms: N2_14  and  C11_15 
ROOT
HETATM    1  C1    D T 298      10.476   1.462  -1.733  1.00 17.20     0.036 A 
HETATM    2  C2    D T 298      10.449   1.752  -0.352  1.00 17.20     0.014 A 
HETATM    3  C3    D T 298      11.196   1.008   0.564  1.00 17.20     0.058 A 
HETATM    4 CL     D T 298      11.128   1.413   2.232  1.00 17.20    -0.082 Cl
HETATM    5  C4    D T 298      11.994  -0.054   0.133  1.00 17.20     0.013 A 
HETATM    6  C5    D T 298      12.046  -0.366  -1.235  1.00 17.20     0.020 A 
HETATM    7  C6    D T 298      11.293   0.389  -2.153  1.00 17.20     0.086 A 
HETATM    8  N1    D T 298      11.370   0.069  -3.516  1.00 17.20    -0.208 NA
HETATM    9  C7    D T 298      10.684   0.754  -4.499  1.00 17.20     0.284 A 
HETATM   10  O1    D T 298      10.791   0.427  -5.685  1.00 17.20    -0.265 OA
HETATM   11  C8    D T 298       9.797   1.892  -4.066  1.00 17.20     0.111 A 
HETATM   12  C10   D T 298       9.698   2.233  -2.743  1.00 17.20     0.085 A 
ENDROOT
BRANCH  11  13
HETATM   13  C9    D T 298       9.049   2.657  -5.043  1.00 17.20     0.169 A 
HETATM   14  N3    D T 298       9.345   3.830  -5.601  1.00 17.20    -0.225 NA
HETATM   15  C12   D T 298       8.310   4.128  -6.449  1.00 17.20     0.101 A 
HETATM   16  C13   D T 298       7.340   3.127  -6.418  1.00 17.20     0.101 A 
HETATM   17  C14   D T 298       8.122   5.252  -7.284  1.00 17.20     0.021 A 
HETATM   18  N4    D T 298       7.828   2.208  -5.520  1.00 17.20    -0.225 NA
HETATM   19  C17   D T 298       6.169   3.172  -7.189  1.00 17.20     0.021 A 
HETATM   20  C16   D T 298       5.998   4.300  -8.017  1.00 17.20     0.002 A 
HETATM   21  C15   D T 298       6.958   5.324  -8.067  1.00 17.20     0.002 A 
ENDBRANCH  11  13
BRANCH  12  22
HETATM   22  N2    D T 298       8.862   3.279  -2.336  1.00 17.20    -0.270 NA
BRANCH  22  23
HETATM   23  C11   D T 298       9.067   4.717  -2.262  1.00 20.30     0.137 C 
HETATM   24  C18   D T 298      10.591   5.028  -2.231  1.00 20.30     0.274 C 
HETATM   25  N5    D T 298      10.923   5.816  -0.962  1.00 20.30     0.139 N 
HETATM   26  C19   D T 298      10.164   7.132  -0.955  1.00 20.30     0.250 C 
HETATM   27  C21   D T 298      10.571   5.005   0.283  1.00 20.30     0.250 C 
HETATM   28  C20   D T 298       8.658   6.828  -0.971  1.00 20.30     0.037 C 
HETATM   29  C23   D T 298       8.407   5.301  -0.986  1.00 20.30     0.029 C 
HETATM   30  C22   D T 298       9.069   4.703   0.270  1.00 20.30     0.037 C 
ENDBRANCH  22  23
ENDBRANCH  12  22
TORSDOF 3
ENDMDL
MODEL 5
REMARK VINA RESULT:    -7.571      5.976      9.547
REMARK INTER + INTRA:         -10.060
REMARK INTER:                  -8.762
REMARK INTRA:                  -1.298
REMARK UNBOUND:                -1.161
REMARK  3 active torsions:
REMARK  status: ('A' for Active; 'I' for Inactive)
REMARK    1  A    between atoms: C8_11  and  C9_12 
REMARK    2  A    between atoms: C10_13  and  N2_14 
REMARK    3  A    between atoms: N2_14  and  C11_15 
ROOT
HETATM    1  C1    D T 298       8.677  11.702  -1.302  1.00 17.20     0.036 A 
HETATM    2  C2    D T 298       7.990  11.161  -2.410  1.00 17.20     0.014 A 
HETATM    3  C3    D T 298       6.823  11.749  -2.901  1.00 17.20     0.058 A 
HETATM    4 CL     D T 298       6.034  11.048  -4.258  1.00 17.20    -0.082 Cl
HETATM    5  C4    D T 298       6.298  12.896  -2.302  1.00 17.20     0.013 A 
HETATM    6  C5    D T 298       6.960  13.462  -1.200  1.00 17.20     0.020 A 
HETATM    7  C6    D T 298       8.138  12.866  -0.711  1.00 17.20     0.086 A 
HETATM    8  N1    D T 298       8.790  13.455   0.382  1.00 17.20    -0.208 NA
HETATM    9  C7    D T 298       9.956  12.960   0.929  1.00 17.20     0.284 A 
HETATM   10  O1    D T 298      10.487  13.522   1.892  1.00 17.20    -0.265 OA
HETATM   11  C8    D T 298      10.537  11.711   0.320  1.00 17.20     0.111 A 
HETATM   12  C10   D T 298       9.928  11.109  -0.748  1.00 17.20     0.085 A 
ENDROOT
BRANCH  11  13
HETATM   13  C9    D T 298      11.761  11.135   0.841  1.00 17.20     0.169 A 
HETATM   14  N3    D T 298      11.923  10.244   1.819  1.00 17.20    -0.225 NA
HETATM   15  C12   D T 298      13.274  10.037   1.932  1.00 17.20     0.101 A 
HETATM   16  C13   D T 298      13.975  10.817   1.014  1.00 17.20     0.101 A 
HETATM   17  C14   D T 298      13.986   9.191   2.812  1.00 17.20     0.021 A 
HETATM   18  N4    D T 298      12.997  11.504   0.336  1.00 17.20    -0.225 NA
HETATM   19  C17   D T 298      15.373  10.804   0.908  1.00 17.20     0.021 A 
HETATM   20  C16   D T 298      16.068   9.954   1.793  1.00 17.20     0.002 A 
HETATM   21  C15   D T 298      15.388   9.159   2.729  1.00 17.20     0.002 A 
ENDBRANCH  11  13
BRANCH  12  22
HETATM   22  N2    D T 298      10.456   9.939  -1.306  1.00 17.20    -0.270 NA
BRANCH  22  23
HETATM   23  C11   D T 298       9.896   8.610  -1.496  1.00 20.30     0.137 C 
HETATM   24  C18   D T 298       9.117   8.184  -0.218  1.00 20.30     0.274 C 
HETATM   25  N5    D T 298       9.709   6.882   0.326  1.00 20.30     0.139 N 
HETATM   26  C19   D T 298       9.575   5.778  -0.710  1.00 20.30     0.250 C 
HETATM   27  C21   D T 298      11.177   7.072   0.698  1.00 20.30     0.250 C 
HETATM   28  C20   D T 298      10.355   6.190  -1.968  1.00 20.30     0.037 C 
HETATM   29  C23   D T 298      11.017   7.576  -1.773  1.00 20.30     0.029 C 
HETATM   30  C22   D T 298      11.958   7.481  -0.556  1.00 20.30     0.037 C 
ENDBRANCH  22  23
ENDBRANCH  12  22
TORSDOF 3
ENDMDL
MODEL 6
REMARK VINA RESULT:    -7.463      2.128      3.571
REMARK INTER + INTRA:          -9.934
REMARK INTER:                  -9.001
REMARK INTRA:                  -0.933
REMARK UNBOUND:                -1.161
REMARK  3 active torsions:
REMARK  status: ('A' for Active; 'I' for Inactive)
REMARK    1  A    between atoms: C8_11  and  C9_12 
REMARK    2  A    between atoms: C10_13  and  N2_14 
REMARK    3  A    between atoms: N2_14  and  C11_15 
ROOT
HETATM    1  C1    D T 298       9.468   7.431   0.119  1.00 17.20     0.036 A 
HETATM    2  C2    D T 298       9.310   8.135  -1.094  1.00 17.20     0.014 A 
HETATM    3  C3    D T 298       9.031   9.503  -1.112  1.00 17.20     0.058 A 
HETATM    4 CL     D T 298       8.857  10.307  -2.621  1.00 17.20    -0.082 Cl
HETATM    5  C4    D T 298       8.897  10.216   0.081  1.00 17.20     0.013 A 
HETATM    6  C5    D T 298       9.052   9.546   1.306  1.00 17.20     0.020 A 
HETATM    7  C6    D T 298       9.335   8.168   1.317  1.00 17.20     0.086 A 
HETATM    8  N1    D T 298       9.500   7.521   2.550  1.00 17.20    -0.208 NA
HETATM    9  C7    D T 298       9.793   6.179   2.673  1.00 17.20     0.284 A 
HETATM   10  O1    D T 298       9.927   5.663   3.787  1.00 17.20    -0.265 OA
HETATM   11  C8    D T 298       9.923   5.375   1.406  1.00 17.20     0.111 A 
HETATM   12  C10   D T 298       9.770   5.973   0.183  1.00 17.20     0.085 A 
ENDROOT
BRANCH  11  13
HETATM   13  C9    D T 298      10.232   3.960   1.457  1.00 17.20     0.169 A 
HETATM   14  N3    D T 298      11.364   3.356   1.819  1.00 17.20    -0.225 NA
HETATM   15  C12   D T 298      11.145   2.010   1.681  1.00 17.20     0.101 A 
HETATM   16  C13   D T 298       9.854   1.762   1.217  1.00 17.20     0.101 A 
HETATM   17  C14   D T 298      12.015   0.925   1.931  1.00 17.20     0.021 A 
HETATM   18  N4    D T 298       9.296   3.010   1.081  1.00 17.20    -0.225 NA
HETATM   19  C17   D T 298       9.360   0.470   0.985  1.00 17.20     0.021 A 
HETATM   20  C16   D T 298      10.241  -0.601   1.240  1.00 17.20     0.002 A 
HETATM   21  C15   D T 298      11.547  -0.380   1.706  1.00 17.20     0.002 A 
ENDBRANCH  11  13
BRANCH  12  22
HETATM   22  N2    D T 298       9.874   5.226  -0.996  1.00 17.20    -0.270 NA
BRANCH  22  23
HETATM   23  C11   D T 298       8.999   5.099  -2.151  1.00 20.30     0.137 C 
HETATM   24  C18   D T 298       7.673   4.403  -1.728  1.00 20.30     0.274 C 
HETATM   25  N5    D T 298       7.478   3.135  -2.562  1.00 20.30     0.139 N 
HETATM   26  C19   D T 298       7.385   3.493  -4.036  1.00 20.30     0.250 C 
HETATM   27  C21   D T 298       8.629   2.158  -2.336  1.00 20.30     0.250 C 
HETATM   28  C20   D T 298       8.698   4.168  -4.460  1.00 20.30     0.037 C 
HETATM   29  C23   D T 298       9.677   4.260  -3.265  1.00 20.30     0.029 C 
HETATM   30  C22   D T 298       9.940   2.829  -2.760  1.00 20.30     0.037 C 
ENDBRANCH  22  23
ENDBRANCH  12  22
TORSDOF 3
ENDMDL
MODEL 7
REMARK VINA RESULT:    -7.243      3.034      5.883
REMARK INTER + INTRA:          -9.675
REMARK INTER:                  -8.403
REMARK INTRA:                  -1.272
REMARK UNBOUND:                -1.161
REMARK  3 active torsions:
REMARK  status: ('A' for Active; 'I' for Inactive)
REMARK    1  A    between atoms: C8_11  and  C9_12 
REMARK    2  A    between atoms: C10_13  and  N2_14 
REMARK    3  A    between atoms: N2_14  and  C11_15 
ROOT
HETATM    1  C1    D T 298       8.285   2.967  -4.368  1.00 17.20     0.036 A 
HETATM    2  C2    D T 298       7.335   3.929  -4.773  1.00 17.20     0.014 A 
HETATM    3  C3    D T 298       6.746   3.886  -6.038  1.00 17.20     0.058 A 
HETATM    4 CL     D T 298       5.591   5.082  -6.470  1.00 17.20    -0.082 Cl
HETATM    5  C4    D T 298       7.086   2.881  -6.946  1.00 17.20     0.013 A 
HETATM    6  C5    D T 298       8.025   1.905  -6.573  1.00 17.20     0.020 A 
HETATM    7  C6    D T 298       8.613   1.953  -5.296  1.00 17.20     0.086 A 
HETATM    8  N1    D T 298       9.538   0.961  -4.939  1.00 17.20    -0.208 NA
HETATM    9  C7    D T 298      10.161   0.908  -3.709  1.00 17.20     0.284 A 
HETATM   10  O1    D T 298      10.968   0.009  -3.451  1.00 17.20    -0.265 OA
HETATM   11  C8    D T 298       9.833   1.989  -2.714  1.00 17.20     0.111 A 
HETATM   12  C10   D T 298       8.934   2.974  -3.027  1.00 17.20     0.085 A 
ENDROOT
BRANCH  11  13
HETATM   13  C9    D T 298      10.447   1.997  -1.401  1.00 17.20     0.169 A 
HETATM   14  N3    D T 298      11.550   2.622  -0.990  1.00 17.20    -0.225 NA
HETATM   15  C12   D T 298      11.707   2.300   0.333  1.00 17.20     0.101 A 
HETATM   16  C13   D T 298      10.688   1.450   0.761  1.00 17.20     0.101 A 
HETATM   17  C14   D T 298      12.712   2.695   1.244  1.00 17.20     0.021 A 
HETATM   18  N4    D T 298       9.904   1.271  -0.353  1.00 17.20    -0.225 NA
HETATM   19  C17   D T 298      10.600   0.962   2.073  1.00 17.20     0.021 A 
HETATM   20  C16   D T 298      11.610   1.366   2.969  1.00 17.20     0.002 A 
HETATM   21  C15   D T 298      12.649   2.219   2.565  1.00 17.20     0.002 A 
ENDBRANCH  11  13
BRANCH  12  22
HETATM   22  N2    D T 298       8.639   3.989  -2.110  1.00 17.20    -0.270 NA
BRANCH  22  23
HETATM   23  C11   D T 298       8.818   5.432  -2.162  1.00 20.30     0.137 C 
HETATM   24  C18   D T 298      10.242   5.763  -2.696  1.00 20.30     0.274 C 
HETATM   25  N5    D T 298      10.989   6.605  -1.659  1.00 20.30     0.139 N 
HETATM   26  C19   D T 298      10.250   7.911  -1.421  1.00 20.30     0.250 C 
HETATM   27  C21   D T 298      11.133   5.840  -0.347  1.00 20.30     0.250 C 
HETATM   28  C20   D T 298       8.848   7.587  -0.880  1.00 20.30     0.037 C 
HETATM   29  C23   D T 298       8.649   6.058  -0.753  1.00 20.30     0.029 C 
HETATM   30  C22   D T 298       9.736   5.519   0.196  1.00 20.30     0.037 C 
ENDBRANCH  22  23
ENDBRANCH  12  22
TORSDOF 3
ENDMDL
MODEL 8
REMARK VINA RESULT:    -7.098      4.345      8.135
REMARK INTER + INTRA:          -9.505
REMARK INTER:                  -8.168
REMARK INTRA:                  -1.337
REMARK UNBOUND:                -1.161
REMARK  3 active torsions:
REMARK  status: ('A' for Active; 'I' for Inactive)
REMARK    1  A    between atoms: C8_11  and  C9_12 
REMARK    2  A    between atoms: C10_13  and  N2_14 
REMARK    3  A    between atoms: N2_14  and  C11_15 
ROOT
HETATM    1  C1    D T 298      10.984   4.551  -1.257  1.00 17.20     0.036 A 
HETATM    2  C2    D T 298       9.683   4.623  -1.799  1.00 17.20     0.014 A 
HETATM    3  C3    D T 298       8.952   3.471  -2.098  1.00 17.20     0.058 A 
HETATM    4 CL     D T 298       7.370   3.623  -2.750  1.00 17.20    -0.082 Cl
HETATM    5  C4    D T 298       9.497   2.206  -1.869  1.00 17.20     0.013 A 
HETATM    6  C5    D T 298      10.788   2.099  -1.326  1.00 17.20     0.020 A 
HETATM    7  C6    D T 298      11.518   3.264  -1.025  1.00 17.20     0.086 A 
HETATM    8  N1    D T 298      12.800   3.135  -0.472  1.00 17.20    -0.208 NA
HETATM    9  C7    D T 298      13.592   4.210  -0.127  1.00 17.20     0.284 A 
HETATM   10  O1    D T 298      14.714   4.036   0.358  1.00 17.20    -0.265 OA
HETATM   11  C8    D T 298      13.044   5.590  -0.381  1.00 17.20     0.111 A 
HETATM   12  C10   D T 298      11.795   5.755  -0.920  1.00 17.20     0.085 A 
ENDROOT
BRANCH  11  13
HETATM   13  C9    D T 298      13.818   6.767  -0.042  1.00 17.20     0.169 A 
HETATM   14  N3    D T 298      14.034   7.320   1.151  1.00 17.20    -0.225 NA
HETATM   15  C12   D T 298      14.821   8.420   0.931  1.00 17.20     0.101 A 
HETATM   16  C13   D T 298      15.102   8.566  -0.427  1.00 17.20     0.101 A 
HETATM   17  C14   D T 298      15.339   9.358   1.853  1.00 17.20     0.021 A 
HETATM   18  N4    D T 298      14.455   7.510  -1.022  1.00 17.20    -0.225 NA
HETATM   19  C17   D T 298      15.889   9.609  -0.937  1.00 17.20     0.021 A 
HETATM   20  C16   D T 298      16.398  10.535  -0.004  1.00 17.20     0.002 A 
HETATM   21  C15   D T 298      16.130  10.413   1.368  1.00 17.20     0.002 A 
ENDBRANCH  11  13
BRANCH  12  22
HETATM   22  N2    D T 298      11.289   7.035  -1.171  1.00 17.20    -0.270 NA
BRANCH  22  23
HETATM   23  C11   D T 298      10.158   7.762  -0.617  1.00 20.30     0.137 C 
HETATM   24  C18   D T 298       9.444   8.558  -1.748  1.00 20.30     0.274 C 
HETATM   25  N5    D T 298       9.431  10.046  -1.391  1.00 20.30     0.139 N 
HETATM   26  C19   D T 298       8.668  10.263  -0.095  1.00 20.30     0.250 C 
HETATM   27  C21   D T 298      10.855  10.579  -1.252  1.00 20.30     0.250 C 
HETATM   28  C20   D T 298       9.379   9.489   1.027  1.00 20.30     0.037 C 
HETATM   29  C23   D T 298      10.627   8.754   0.480  1.00 20.30     0.029 C 
HETATM   30  C22   D T 298      11.565   9.811  -0.133  1.00 20.30     0.037 C 
ENDBRANCH  22  23
ENDBRANCH  12  22
TORSDOF 3
ENDMDL
MODEL 9
REMARK VINA RESULT:    -6.946      3.179      7.460
REMARK INTER + INTRA:          -9.325
REMARK INTER:                  -8.316
REMARK INTRA:                  -1.009
REMARK UNBOUND:                -1.161
REMARK  3 active torsions:
REMARK  status: ('A' for Active; 'I' for Inactive)
REMARK    1  A    between atoms: C8_11  and  C9_12 
REMARK    2  A    between atoms: C10_13  and  N2_14 
REMARK    3  A    between atoms: N2_14  and  C11_15 
ROOT
HETATM    1  C1    D T 298       8.778   2.730  -3.984  1.00 17.20     0.036 A 
HETATM    2  C2    D T 298       8.376   1.379  -3.913  1.00 17.20     0.014 A 
HETATM    3  C3    D T 298       7.935   0.689  -5.043  1.00 17.20     0.058 A 
HETATM    4 CL     D T 298       7.465  -0.957  -4.894  1.00 17.20    -0.082 Cl
HETATM    5  C4    D T 298       7.875   1.324  -6.285  1.00 17.20     0.013 A 
HETATM    6  C5    D T 298       8.272   2.667  -6.392  1.00 17.20     0.020 A 
HETATM    7  C6    D T 298       8.718   3.357  -5.249  1.00 17.20     0.086 A 
HETATM    8  N1    D T 298       9.122   4.693  -5.380  1.00 17.20    -0.208 NA
HETATM    9  C7    D T 298       9.590   5.454  -4.329  1.00 17.20     0.284 A 
HETATM   10  O1    D T 298       9.932   6.627  -4.504  1.00 17.20    -0.265 OA
HETATM   11  C8    D T 298       9.646   4.806  -2.970  1.00 17.20     0.111 A 
HETATM   12  C10   D T 298       9.260   3.502  -2.804  1.00 17.20     0.085 A 
ENDROOT
BRANCH  11  13
HETATM   13  C9    D T 298      10.127   5.543  -1.819  1.00 17.20     0.169 A 
HETATM   14  N3    D T 298      11.373   5.672  -1.361  1.00 17.20    -0.225 NA
HETATM   15  C12   D T 298      11.293   6.460  -0.242  1.00 17.20     0.101 A 
HETATM   16  C13   D T 298       9.973   6.828   0.013  1.00 17.20     0.101 A 
HETATM   17  C14   D T 298      12.318   6.905   0.623  1.00 17.20     0.021 A 
HETATM   18  N4    D T 298       9.254   6.235  -0.997  1.00 17.20    -0.225 NA
HETATM   19  C17   D T 298       9.600   7.635   1.098  1.00 17.20     0.021 A 
HETATM   20  C16   D T 298      10.635   8.070   1.950  1.00 17.20     0.002 A 
HETATM   21  C15   D T 298      11.973   7.713   1.718  1.00 17.20     0.002 A 
ENDBRANCH  11  13
BRANCH  12  22
HETATM   22  N2    D T 298       9.296   2.902  -1.541  1.00 17.20    -0.270 NA
BRANCH  22  23
HETATM   23  C11   D T 298       9.761   1.598  -1.094  1.00 20.30     0.137 C 
HETATM   24  C18   D T 298       9.409   1.404   0.410  1.00 20.30     0.274 C 
HETATM   25  N5    D T 298      10.692   1.140   1.201  1.00 20.30     0.139 N 
HETATM   26  C19   D T 298      11.361  -0.128   0.697  1.00 20.30     0.250 C 
HETATM   27  C21   D T 298      11.653   2.319   1.079  1.00 20.30     0.250 C 
HETATM   28  C20   D T 298      11.722   0.065  -0.784  1.00 20.30     0.037 C 
HETATM   29  C23   D T 298      11.296   1.471  -1.273  1.00 20.30     0.029 C 
HETATM   30  C22   D T 298      12.017   2.513  -0.397  1.00 20.30     0.037 C 
ENDBRANCH  22  23
ENDBRANCH  12  22
TORSDOF 3
ENDMDL
