MODEL 1
REMARK VINA RESULT:    -8.075      0.000      0.000
REMARK INTER + INTRA:         -10.653
REMARK INTER:                  -9.491
REMARK INTRA:                  -1.162
REMARK UNBOUND:                -1.162
REMARK  3 active torsions:
REMARK  status: ('A' for Active; 'I' for Inactive)
REMARK    1  A    between atoms: C8_11  and  C9_12 
REMARK    2  A    between atoms: C10_13  and  N2_14 
REMARK    3  A    between atoms: N2_14  and  C11_15 
ROOT
HETATM    1  C1    D T 298     -10.844   2.350  -5.487  1.00 17.20     0.036 A 
HETATM    2  C2    D T 298     -10.907   0.987  -5.127  1.00 17.20     0.014 A 
HETATM    3  C3    D T 298     -12.077   0.420  -4.621  1.00 17.20     0.058 A 
HETATM    4 CL     D T 298     -12.094  -1.247  -4.206  1.00 17.20    -0.082 Cl
HETATM    5  C4    D T 298     -13.228   1.194  -4.452  1.00 17.20     0.013 A 
HETATM    6  C5    D T 298     -13.200   2.554  -4.806  1.00 17.20     0.020 A 
HETATM    7  C6    D T 298     -12.017   3.119  -5.318  1.00 17.20     0.086 A 
HETATM    8  N1    D T 298     -12.015   4.474  -5.677  1.00 17.20    -0.208 NA
HETATM    9  C7    D T 298     -10.915   5.123  -6.201  1.00 17.20     0.284 A 
HETATM   10  O1    D T 298     -10.974   6.319  -6.499  1.00 17.20    -0.265 OA
HETATM   11  C8    D T 298      -9.653   4.321  -6.374  1.00 17.20     0.111 A 
HETATM   12  C10   D T 298      -9.617   2.994  -6.036  1.00 17.20     0.085 A 
ENDROOT
BRANCH  11  13
HETATM   13  C9    D T 298      -8.458   4.933  -6.921  1.00 17.20     0.169 A 
HETATM   14  N3    D T 298      -8.025   4.959  -8.181  1.00 17.20    -0.225 NA
HETATM   15  C12   D T 298      -6.842   5.652  -8.170  1.00 17.20     0.101 A 
HETATM   16  C13   D T 298      -6.520   6.062  -6.877  1.00 17.20     0.101 A 
HETATM   17  C14   D T 298      -5.972   5.969  -9.237  1.00 17.20     0.021 A 
HETATM   18  N4    D T 298      -7.555   5.595  -6.104  1.00 17.20    -0.225 NA
HETATM   19  C17   D T 298      -5.361   6.792  -6.573  1.00 17.20     0.021 A 
HETATM   20  C16   D T 298      -4.505   7.099  -7.649  1.00 17.20     0.002 A 
HETATM   21  C15   D T 298      -4.803   6.697  -8.961  1.00 17.20     0.002 A 
ENDBRANCH  11  13
BRANCH  12  22
HETATM   22  N2    D T 298      -8.441   2.251  -6.180  1.00 17.20    -0.270 NA
BRANCH  22  23
HETATM   23  C11   D T 298      -7.855   1.564  -7.322  1.00 20.30     0.137 C 
HETATM   24  C18   D T 298      -8.982   1.111  -8.295  1.00 20.30     0.274 C 
HETATM   25  N5    D T 298      -8.912  -0.406  -8.479  1.00 20.30     0.139 N 
HETATM   26  C19   D T 298      -7.572  -0.794  -9.082  1.00 20.30     0.250 C 
HETATM   27  C21   D T 298      -9.109  -1.123  -7.147  1.00 20.30     0.250 C 
HETATM   28  C20   D T 298      -6.457  -0.360  -8.118  1.00 20.30     0.037 C 
HETATM   29  C23   D T 298      -7.055   0.319  -6.861  1.00 20.30     0.029 C 
HETATM   30  C22   D T 298      -7.998  -0.693  -6.184  1.00 20.30     0.037 C 
ENDBRANCH  22  23
ENDBRANCH  12  22
TORSDOF 3
ENDMDL
MODEL 2
REMARK VINA RESULT:    -7.869      4.540      7.748
REMARK INTER + INTRA:         -10.411
REMARK INTER:                  -9.079
REMARK INTRA:                  -1.332
REMARK UNBOUND:                -1.162
REMARK  3 active torsions:
REMARK  status: ('A' for Active; 'I' for Inactive)
REMARK    1  A    between atoms: C8_11  and  C9_12 
REMARK    2  A    between atoms: C10_13  and  N2_14 
REMARK    3  A    between atoms: N2_14  and  C11_15 
ROOT
HETATM    1  C1    D T 298      -5.161  -4.155  -6.166  1.00 17.20     0.036 A 
HETATM    2  C2    D T 298      -5.303  -5.521  -6.489  1.00 17.20     0.014 A 
HETATM    3  C3    D T 298      -4.307  -6.450  -6.184  1.00 17.20     0.058 A 
HETATM    4 CL     D T 298      -4.540  -8.101  -6.597  1.00 17.20    -0.082 Cl
HETATM    5  C4    D T 298      -3.130  -6.047  -5.548  1.00 17.20     0.013 A 
HETATM    6  C5    D T 298      -2.959  -4.695  -5.209  1.00 17.20     0.020 A 
HETATM    7  C6    D T 298      -3.969  -3.764  -5.517  1.00 17.20     0.086 A 
HETATM    8  N1    D T 298      -3.784  -2.421  -5.157  1.00 17.20    -0.208 NA
HETATM    9  C7    D T 298      -4.715  -1.432  -5.399  1.00 17.20     0.284 A 
HETATM   10  O1    D T 298      -4.497  -0.266  -5.059  1.00 17.20    -0.265 OA
HETATM   11  C8    D T 298      -5.985  -1.829  -6.103  1.00 17.20     0.111 A 
HETATM   12  C10   D T 298      -6.202  -3.132  -6.469  1.00 17.20     0.085 A 
ENDROOT
BRANCH  11  13
HETATM   13  C9    D T 298      -7.011  -0.846  -6.389  1.00 17.20     0.169 A 
HETATM   14  N3    D T 298      -7.136  -0.038  -7.441  1.00 17.20    -0.225 NA
HETATM   15  C12   D T 298      -8.268   0.707  -7.225  1.00 17.20     0.101 A 
HETATM   16  C13   D T 298      -8.861   0.365  -6.011  1.00 17.20     0.101 A 
HETATM   17  C14   D T 298      -8.854   1.709  -8.030  1.00 17.20     0.021 A 
HETATM   18  N4    D T 298      -8.048  -0.617  -5.498  1.00 17.20    -0.225 NA
HETATM   19  C17   D T 298     -10.035   0.970  -5.538  1.00 17.20     0.021 A 
HETATM   20  C16   D T 298     -10.607   1.968  -6.352  1.00 17.20     0.002 A 
HETATM   21  C15   D T 298     -10.029   2.333  -7.578  1.00 17.20     0.002 A 
ENDBRANCH  11  13
BRANCH  12  22
HETATM   22  N2    D T 298      -7.374  -3.501  -7.137  1.00 17.20    -0.270 NA
BRANCH  22  23
HETATM   23  C11   D T 298      -8.507  -4.322  -6.738  1.00 20.30     0.137 C 
HETATM   24  C18   D T 298      -8.939  -5.231  -7.926  1.00 20.30     0.274 C 
HETATM   25  N5    D T 298     -10.404  -4.952  -8.270  1.00 20.30     0.139 N 
HETATM   26  C19   D T 298     -11.287  -5.271  -7.075  1.00 20.30     0.250 C 
HETATM   27  C21   D T 298     -10.594  -3.496  -8.683  1.00 20.30     0.250 C 
HETATM   28  C20   D T 298     -10.872  -4.366  -5.905  1.00 20.30     0.037 C 
HETATM   29  C23   D T 298      -9.707  -3.434  -6.319  1.00 20.30     0.029 C 
HETATM   30  C22   D T 298     -10.183  -2.592  -7.517  1.00 20.30     0.037 C 
ENDBRANCH  22  23
ENDBRANCH  12  22
TORSDOF 3
ENDMDL
MODEL 3
REMARK VINA RESULT:    -7.601      6.634      9.561
REMARK INTER + INTRA:         -10.096
REMARK INTER:                  -8.686
REMARK INTRA:                  -1.411
REMARK UNBOUND:                -1.162
REMARK  3 active torsions:
REMARK  status: ('A' for Active; 'I' for Inactive)
REMARK    1  A    between atoms: C8_11  and  C9_12 
REMARK    2  A    between atoms: C10_13  and  N2_14 
REMARK    3  A    between atoms: N2_14  and  C11_15 
ROOT
HETATM    1  C1    D T 298      -7.927  -7.739  -7.641  1.00 17.20     0.036 A 
HETATM    2  C2    D T 298      -9.205  -7.997  -8.182  1.00 17.20     0.014 A 
HETATM    3  C3    D T 298      -9.682  -9.300  -8.337  1.00 17.20     0.058 A 
HETATM    4 CL     D T 298     -11.248  -9.550  -8.995  1.00 17.20    -0.082 Cl
HETATM    5  C4    D T 298      -8.898 -10.394  -7.960  1.00 17.20     0.013 A 
HETATM    6  C5    D T 298      -7.623 -10.171  -7.414  1.00 17.20     0.020 A 
HETATM    7  C6    D T 298      -7.149  -8.855  -7.258  1.00 17.20     0.086 A 
HETATM    8  N1    D T 298      -5.880  -8.655  -6.698  1.00 17.20    -0.208 NA
HETATM    9  C7    D T 298      -5.326  -7.408  -6.489  1.00 17.20     0.284 A 
HETATM   10  O1    D T 298      -4.203  -7.294  -5.991  1.00 17.20    -0.265 OA
HETATM   11  C8    D T 298      -6.136  -6.210  -6.905  1.00 17.20     0.111 A 
HETATM   12  C10   D T 298      -7.382  -6.365  -7.453  1.00 17.20     0.085 A 
ENDROOT
BRANCH  11  13
HETATM   13  C9    D T 298      -5.623  -4.868  -6.712  1.00 17.20     0.169 A 
HETATM   14  N3    D T 298      -4.875  -4.125  -7.529  1.00 17.20    -0.225 NA
HETATM   15  C12   D T 298      -4.649  -2.940  -6.876  1.00 17.20     0.101 A 
HETATM   16  C13   D T 298      -5.259  -2.941  -5.623  1.00 17.20     0.101 A 
HETATM   17  C14   D T 298      -3.918  -1.806  -7.294  1.00 17.20     0.021 A 
HETATM   18  N4    D T 298      -5.867  -4.170  -5.540  1.00 17.20    -0.225 NA
HETATM   19  C17   D T 298      -5.191  -1.853  -4.739  1.00 17.20     0.021 A 
HETATM   20  C16   D T 298      -4.458  -0.730  -5.171  1.00 17.20     0.002 A 
HETATM   21  C15   D T 298      -3.831  -0.703  -6.428  1.00 17.20     0.002 A 
ENDBRANCH  11  13
BRANCH  12  22
HETATM   22  N2    D T 298      -8.130  -5.254  -7.855  1.00 17.20    -0.270 NA
BRANCH  22  23
HETATM   23  C11   D T 298      -9.247  -4.555  -7.238  1.00 20.30     0.137 C 
HETATM   24  C18   D T 298     -10.400  -4.394  -8.271  1.00 20.30     0.274 C 
HETATM   25  N5    D T 298     -10.723  -2.909  -8.443  1.00 20.30     0.139 N 
HETATM   26  C19   D T 298     -11.180  -2.321  -7.118  1.00 20.30     0.250 C 
HETATM   27  C21   D T 298      -9.506  -2.146  -8.957  1.00 20.30     0.250 C 
HETATM   28  C20   D T 298     -10.039  -2.466  -6.099  1.00 20.30     0.037 C 
HETATM   29  C23   D T 298      -8.811  -3.150  -6.746  1.00 20.30     0.029 C 
HETATM   30  C22   D T 298      -8.367  -2.287  -7.942  1.00 20.30     0.037 C 
ENDBRANCH  22  23
ENDBRANCH  12  22
TORSDOF 3
ENDMDL
MODEL 4
REMARK VINA RESULT:    -7.441      3.583      6.199
REMARK INTER + INTRA:          -9.908
REMARK INTER:                  -8.713
REMARK INTRA:                  -1.195
REMARK UNBOUND:                -1.162
REMARK  3 active torsions:
REMARK  status: ('A' for Active; 'I' for Inactive)
REMARK    1  A    between atoms: C8_11  and  C9_12 
REMARK    2  A    between atoms: C10_13  and  N2_14 
REMARK    3  A    between atoms: N2_14  and  C11_15 
ROOT
HETATM    1  C1    D T 298      -8.164  -3.583  -7.125  1.00 17.20     0.036 A 
HETATM    2  C2    D T 298      -7.182  -4.463  -6.621  1.00 17.20     0.014 A 
HETATM    3  C3    D T 298      -7.167  -5.815  -6.968  1.00 17.20     0.058 A 
HETATM    4 CL     D T 298      -5.943  -6.835  -6.328  1.00 17.20    -0.082 Cl
HETATM    5  C4    D T 298      -8.135  -6.339  -7.830  1.00 17.20     0.013 A 
HETATM    6  C5    D T 298      -9.124  -5.488  -8.353  1.00 17.20     0.020 A 
HETATM    7  C6    D T 298      -9.131  -4.126  -8.000  1.00 17.20     0.086 A 
HETATM    8  N1    D T 298     -10.118  -3.292  -8.544  1.00 17.20    -0.208 NA
HETATM    9  C7    D T 298     -10.208  -1.941  -8.276  1.00 17.20     0.284 A 
HETATM   10  O1    D T 298     -11.100  -1.257  -8.786  1.00 17.20    -0.265 OA
HETATM   11  C8    D T 298      -9.194  -1.350  -7.334  1.00 17.20     0.111 A 
HETATM   12  C10   D T 298      -8.213  -2.133  -6.784  1.00 17.20     0.085 A 
ENDROOT
BRANCH  11  13
HETATM   13  C9    D T 298      -9.222   0.062  -7.008  1.00 17.20     0.169 A 
HETATM   14  N3    D T 298      -9.864   0.687  -6.022  1.00 17.20    -0.225 NA
HETATM   15  C12   D T 298      -9.575   2.022  -6.157  1.00 17.20     0.101 A 
HETATM   16  C13   D T 298      -8.743   2.240  -7.254  1.00 17.20     0.101 A 
HETATM   17  C14   D T 298      -9.998   3.119  -5.374  1.00 17.20     0.021 A 
HETATM   18  N4    D T 298      -8.534   0.987  -7.778  1.00 17.20    -0.225 NA
HETATM   19  C17   D T 298      -8.288   3.514  -7.626  1.00 17.20     0.021 A 
HETATM   20  C16   D T 298      -8.719   4.597  -6.836  1.00 17.20     0.002 A 
HETATM   21  C15   D T 298      -9.560   4.407  -5.727  1.00 17.20     0.002 A 
ENDBRANCH  11  13
BRANCH  12  22
HETATM   22  N2    D T 298      -7.278  -1.590  -5.897  1.00 17.20    -0.270 NA
BRANCH  22  23
HETATM   23  C11   D T 298      -6.038  -0.860  -6.112  1.00 20.30     0.137 C 
HETATM   24  C18   D T 298      -5.441  -1.239  -7.498  1.00 20.30     0.274 C 
HETATM   25  N5    D T 298      -4.032  -1.805  -7.306  1.00 20.30     0.139 N 
HETATM   26  C19   D T 298      -3.136  -0.756  -6.667  1.00 20.30     0.250 C 
HETATM   27  C21   D T 298      -4.066  -3.058  -6.437  1.00 20.30     0.250 C 
HETATM   28  C20   D T 298      -3.715  -0.389  -5.292  1.00 20.30     0.037 C 
HETATM   29  C23   D T 298      -5.003  -1.198  -5.007  1.00 20.30     0.029 C 
HETATM   30  C22   D T 298      -4.641  -2.694  -5.064  1.00 20.30     0.037 C 
ENDBRANCH  22  23
ENDBRANCH  12  22
TORSDOF 3
ENDMDL
MODEL 5
REMARK VINA RESULT:    -7.425      2.625      6.419
REMARK INTER + INTRA:          -9.889
REMARK INTER:                  -8.471
REMARK INTRA:                  -1.418
REMARK UNBOUND:                -1.162
REMARK  3 active torsions:
REMARK  status: ('A' for Active; 'I' for Inactive)
REMARK    1  A    between atoms: C8_11  and  C9_12 
REMARK    2  A    between atoms: C10_13  and  N2_14 
REMARK    3  A    between atoms: N2_14  and  C11_15 
ROOT
HETATM    1  C1    D T 298      -8.755   4.333  -6.273  1.00 17.20     0.036 A 
HETATM    2  C2    D T 298      -7.674   4.483  -7.168  1.00 17.20     0.014 A 
HETATM    3  C3    D T 298      -7.023   5.707  -7.327  1.00 17.20     0.058 A 
HETATM    4 CL     D T 298      -5.709   5.825  -8.427  1.00 17.20    -0.082 Cl
HETATM    5  C4    D T 298      -7.431   6.830  -6.601  1.00 17.20     0.013 A 
HETATM    6  C5    D T 298      -8.501   6.713  -5.698  1.00 17.20     0.020 A 
HETATM    7  C6    D T 298      -9.151   5.475  -5.541  1.00 17.20     0.086 A 
HETATM    8  N1    D T 298     -10.208   5.377  -4.624  1.00 17.20    -0.208 NA
HETATM    9  C7    D T 298     -10.902   4.210  -4.383  1.00 17.20     0.284 A 
HETATM   10  O1    D T 298     -11.825   4.185  -3.563  1.00 17.20    -0.265 OA
HETATM   11  C8    D T 298     -10.502   2.988  -5.165  1.00 17.20     0.111 A 
HETATM   12  C10   D T 298      -9.473   3.044  -6.068  1.00 17.20     0.085 A 
ENDROOT
BRANCH  11  13
HETATM   13  C9    D T 298     -11.183   1.724  -4.963  1.00 17.20     0.169 A 
HETATM   14  N3    D T 298     -10.979   0.796  -4.030  1.00 17.20    -0.225 NA
HETATM   15  C12   D T 298     -11.875  -0.212  -4.283  1.00 17.20     0.101 A 
HETATM   16  C13   D T 298     -12.651   0.086  -5.402  1.00 17.20     0.101 A 
HETATM   17  C14   D T 298     -12.081  -1.429  -3.596  1.00 17.20     0.021 A 
HETATM   18  N4    D T 298     -12.196   1.313  -5.817  1.00 17.20    -0.225 NA
HETATM   19  C17   D T 298     -13.651  -0.771  -5.888  1.00 17.20     0.021 A 
HETATM   20  C16   D T 298     -13.844  -1.980  -5.191  1.00 17.20     0.002 A 
HETATM   21  C15   D T 298     -13.074  -2.306  -4.063  1.00 17.20     0.002 A 
ENDBRANCH  11  13
BRANCH  12  22
HETATM   22  N2    D T 298      -9.109   1.914  -6.809  1.00 17.20    -0.270 NA
BRANCH  22  23
HETATM   23  C11   D T 298      -8.002   0.979  -6.681  1.00 20.30     0.137 C 
HETATM   24  C18   D T 298      -7.393   0.693  -8.084  1.00 20.30     0.274 C 
HETATM   25  N5    D T 298      -7.461  -0.809  -8.369  1.00 20.30     0.139 N 
HETATM   26  C19   D T 298      -6.653  -1.570  -7.331  1.00 20.30     0.250 C 
HETATM   27  C21   D T 298      -8.906  -1.296  -8.362  1.00 20.30     0.250 C 
HETATM   28  C20   D T 298      -7.259  -1.301  -5.945  1.00 20.30     0.037 C 
HETATM   29  C23   D T 298      -8.481  -0.357  -6.057  1.00 20.30     0.029 C 
HETATM   30  C22   D T 298      -9.513  -1.031  -6.981  1.00 20.30     0.037 C 
ENDBRANCH  22  23
ENDBRANCH  12  22
TORSDOF 3
ENDMDL
MODEL 6
REMARK VINA RESULT:    -7.358      4.041      7.384
REMARK INTER + INTRA:          -9.811
REMARK INTER:                  -8.809
REMARK INTRA:                  -1.001
REMARK UNBOUND:                -1.162
REMARK  3 active torsions:
REMARK  status: ('A' for Active; 'I' for Inactive)
REMARK    1  A    between atoms: C8_11  and  C9_12 
REMARK    2  A    between atoms: C10_13  and  N2_14 
REMARK    3  A    between atoms: N2_14  and  C11_15 
ROOT
HETATM    1  C1    D T 298      -8.844   0.202  -6.556  1.00 17.20     0.036 A 
HETATM    2  C2    D T 298     -10.015   0.564  -5.856  1.00 17.20     0.014 A 
HETATM    3  C3    D T 298     -10.731   1.718  -6.180  1.00 17.20     0.058 A 
HETATM    4 CL     D T 298     -12.152   2.103  -5.296  1.00 17.20    -0.082 Cl
HETATM    5  C4    D T 298     -10.301   2.554  -7.214  1.00 17.20     0.013 A 
HETATM    6  C5    D T 298      -9.142   2.219  -7.934  1.00 17.20     0.020 A 
HETATM    7  C6    D T 298      -8.426   1.054  -7.603  1.00 17.20     0.086 A 
HETATM    8  N1    D T 298      -7.280   0.730  -8.342  1.00 17.20    -0.208 NA
HETATM    9  C7    D T 298      -6.514  -0.394  -8.111  1.00 17.20     0.284 A 
HETATM   10  O1    D T 298      -5.514  -0.626  -8.796  1.00 17.20    -0.265 OA
HETATM   11  C8    D T 298      -6.938  -1.304  -6.989  1.00 17.20     0.111 A 
HETATM   12  C10   D T 298      -8.053  -1.023  -6.246  1.00 17.20     0.085 A 
ENDROOT
BRANCH  11  13
HETATM   13  C9    D T 298      -6.186  -2.507  -6.689  1.00 17.20     0.169 A 
HETATM   14  N3    D T 298      -6.421  -3.764  -7.062  1.00 17.20    -0.225 NA
HETATM   15  C12   D T 298      -5.424  -4.526  -6.506  1.00 17.20     0.101 A 
HETATM   16  C13   D T 298      -4.551  -3.733  -5.764  1.00 17.20     0.101 A 
HETATM   17  C14   D T 298      -5.202  -5.918  -6.589  1.00 17.20     0.021 A 
HETATM   18  N4    D T 298      -5.052  -2.460  -5.892  1.00 17.20    -0.225 NA
HETATM   19  C17   D T 298      -3.437  -4.251  -5.086  1.00 17.20     0.021 A 
HETATM   20  C16   D T 298      -3.229  -5.642  -5.178  1.00 17.20     0.002 A 
HETATM   21  C15   D T 298      -4.095  -6.465  -5.917  1.00 17.20     0.002 A 
ENDBRANCH  11  13
BRANCH  12  22
HETATM   22  N2    D T 298      -8.440  -1.858  -5.193  1.00 17.20    -0.270 NA
BRANCH  22  23
HETATM   23  C11   D T 298      -9.230  -3.081  -5.156  1.00 20.30     0.137 C 
HETATM   24  C18   D T 298     -10.083  -3.191  -6.453  1.00 20.30     0.274 C 
HETATM   25  N5    D T 298     -11.564  -3.281  -6.079  1.00 20.30     0.139 N 
HETATM   26  C19   D T 298     -11.810  -4.521  -5.234  1.00 20.30     0.250 C 
HETATM   27  C21   D T 298     -12.006  -2.037  -5.316  1.00 20.30     0.250 C 
HETATM   28  C20   D T 298     -10.979  -4.409  -3.947  1.00 20.30     0.037 C 
HETATM   29  C23   D T 298     -10.176  -3.086  -3.928  1.00 20.30     0.029 C 
HETATM   30  C22   D T 298     -11.181  -1.924  -4.030  1.00 20.30     0.037 C 
ENDBRANCH  22  23
ENDBRANCH  12  22
TORSDOF 3
ENDMDL
MODEL 7
REMARK VINA RESULT:    -7.355      5.917      9.255
REMARK INTER + INTRA:          -9.807
REMARK INTER:                  -8.354
REMARK INTRA:                  -1.453
REMARK UNBOUND:                -1.162
REMARK  3 active torsions:
REMARK  status: ('A' for Active; 'I' for Inactive)
REMARK    1  A    between atoms: C8_11  and  C9_12 
REMARK    2  A    between atoms: C10_13  and  N2_14 
REMARK    3  A    between atoms: N2_14  and  C11_15 
ROOT
HETATM    1  C1    D T 298      -6.854  -6.984  -7.120  1.00 17.20     0.036 A 
HETATM    2  C2    D T 298      -5.542  -7.386  -6.791  1.00 17.20     0.014 A 
HETATM    3  C3    D T 298      -5.105  -8.695  -7.004  1.00 17.20     0.058 A 
HETATM    4 CL     D T 298      -3.494  -9.123  -6.590  1.00 17.20    -0.082 Cl
HETATM    5  C4    D T 298      -5.966  -9.652  -7.549  1.00 17.20     0.013 A 
HETATM    6  C5    D T 298      -7.277  -9.283  -7.891  1.00 17.20     0.020 A 
HETATM    7  C6    D T 298      -7.710  -7.961  -7.676  1.00 17.20     0.086 A 
HETATM    8  N1    D T 298      -9.018  -7.610  -8.038  1.00 17.20    -0.208 NA
HETATM    9  C7    D T 298      -9.538  -6.341  -7.884  1.00 17.20     0.284 A 
HETATM   10  O1    D T 298     -10.699  -6.091  -8.221  1.00 17.20    -0.265 OA
HETATM   11  C8    D T 298      -8.643  -5.292  -7.279  1.00 17.20     0.111 A 
HETATM   12  C10   D T 298      -7.358  -5.597  -6.915  1.00 17.20     0.085 A 
ENDROOT
BRANCH  11  13
HETATM   13  C9    D T 298      -9.118  -3.936  -7.089  1.00 17.20     0.169 A 
HETATM   14  N3    D T 298      -9.616  -3.361  -5.995  1.00 17.20    -0.225 NA
HETATM   15  C12   D T 298      -9.927  -2.071  -6.342  1.00 17.20     0.101 A 
HETATM   16  C13   D T 298      -9.625  -1.832  -7.682  1.00 17.20     0.101 A 
HETATM   17  C14   D T 298     -10.481  -1.035  -5.558  1.00 17.20     0.021 A 
HETATM   18  N4    D T 298      -9.117  -3.025  -8.135  1.00 17.20    -0.225 NA
HETATM   19  C17   D T 298      -9.840  -0.594  -8.304  1.00 17.20     0.021 A 
HETATM   20  C16   D T 298     -10.394   0.429  -7.509  1.00 17.20     0.002 A 
HETATM   21  C15   D T 298     -10.710   0.215  -6.157  1.00 17.20     0.002 A 
ENDBRANCH  11  13
BRANCH  12  22
HETATM   22  N2    D T 298      -6.530  -4.629  -6.338  1.00 17.20    -0.270 NA
BRANCH  22  23
HETATM   23  C11   D T 298      -5.485  -3.782  -6.894  1.00 20.30     0.137 C 
HETATM   24  C18   D T 298      -4.228  -3.833  -5.978  1.00 20.30     0.274 C 
HETATM   25  N5    D T 298      -3.886  -2.418  -5.506  1.00 20.30     0.139 N 
HETATM   26  C19   D T 298      -3.573  -1.534  -6.704  1.00 20.30     0.250 C 
HETATM   27  C21   D T 298      -5.040  -1.820  -4.707  1.00 20.30     0.250 C 
HETATM   28  C20   D T 298      -4.817  -1.471  -7.603  1.00 20.30     0.037 C 
HETATM   29  C23   D T 298      -5.970  -2.313  -7.003  1.00 20.30     0.029 C 
HETATM   30  C22   D T 298      -6.281  -1.754  -5.603  1.00 20.30     0.037 C 
ENDBRANCH  22  23
ENDBRANCH  12  22
TORSDOF 3
ENDMDL
MODEL 8
REMARK VINA RESULT:    -7.243      7.288     10.514
REMARK INTER + INTRA:          -9.676
REMARK INTER:                  -8.441
REMARK INTRA:                  -1.235
REMARK UNBOUND:                -1.162
REMARK  3 active torsions:
REMARK  status: ('A' for Active; 'I' for Inactive)
REMARK    1  A    between atoms: C8_11  and  C9_12 
REMARK    2  A    between atoms: C10_13  and  N2_14 
REMARK    3  A    between atoms: N2_14  and  C11_15 
ROOT
HETATM    1  C1    D T 298      -5.448  -4.953  -6.110  1.00 17.20     0.036 A 
HETATM    2  C2    D T 298      -4.506  -5.947  -5.768  1.00 17.20     0.014 A 
HETATM    3  C3    D T 298      -3.197  -5.619  -5.412  1.00 17.20     0.058 A 
HETATM    4 CL     D T 298      -2.098  -6.872  -4.999  1.00 17.20    -0.082 Cl
HETATM    5  C4    D T 298      -2.779  -4.285  -5.387  1.00 17.20     0.013 A 
HETATM    6  C5    D T 298      -3.695  -3.271  -5.717  1.00 17.20     0.020 A 
HETATM    7  C6    D T 298      -5.013  -3.609  -6.074  1.00 17.20     0.086 A 
HETATM    8  N1    D T 298      -5.914  -2.581  -6.387  1.00 17.20    -0.208 NA
HETATM    9  C7    D T 298      -7.231  -2.801  -6.734  1.00 17.20     0.284 A 
HETATM   10  O1    D T 298      -7.978  -1.855  -6.999  1.00 17.20    -0.265 OA
HETATM   11  C8    D T 298      -7.706  -4.228  -6.792  1.00 17.20     0.111 A 
HETATM   12  C10   D T 298      -6.856  -5.259  -6.491  1.00 17.20     0.085 A 
ENDROOT
BRANCH  11  13
HETATM   13  C9    D T 298      -9.078  -4.537  -7.146  1.00 17.20     0.169 A 
HETATM   14  N3    D T 298      -9.590  -4.864  -8.332  1.00 17.20    -0.225 NA
HETATM   15  C12   D T 298     -10.936  -5.045  -8.136  1.00 17.20     0.101 A 
HETATM   16  C13   D T 298     -11.277  -4.820  -6.803  1.00 17.20     0.101 A 
HETATM   17  C14   D T 298     -11.941  -5.401  -9.062  1.00 17.20     0.021 A 
HETATM   18  N4    D T 298     -10.087  -4.499  -6.196  1.00 17.20    -0.225 NA
HETATM   19  C17   D T 298     -12.589  -4.936  -6.320  1.00 17.20     0.021 A 
HETATM   20  C16   D T 298     -13.580  -5.292  -7.257  1.00 17.20     0.002 A 
HETATM   21  C15   D T 298     -13.265  -5.521  -8.606  1.00 17.20     0.002 A 
ENDBRANCH  11  13
BRANCH  12  22
HETATM   22  N2    D T 298      -7.290  -6.587  -6.559  1.00 17.20    -0.270 NA
BRANCH  22  23
HETATM   23  C11   D T 298      -7.080  -7.633  -7.549  1.00 20.30     0.137 C 
HETATM   24  C18   D T 298      -8.455  -8.142  -8.072  1.00 20.30     0.274 C 
HETATM   25  N5    D T 298      -8.570  -9.646  -7.815  1.00 20.30     0.139 N 
HETATM   26  C19   D T 298      -7.469 -10.385  -8.558  1.00 20.30     0.250 C 
HETATM   27  C21   D T 298      -8.482  -9.947  -6.322  1.00 20.30     0.250 C 
HETATM   28  C20   D T 298      -6.111  -9.894  -8.034  1.00 20.30     0.037 C 
HETATM   29  C23   D T 298      -6.303  -8.825  -6.932  1.00 20.30     0.029 C 
HETATM   30  C22   D T 298      -7.127  -9.461  -5.797  1.00 20.30     0.037 C 
ENDBRANCH  22  23
ENDBRANCH  12  22
TORSDOF 3
ENDMDL
MODEL 9
REMARK VINA RESULT:    -7.003     21.072     22.436
REMARK INTER + INTRA:          -9.394
REMARK INTER:                  -7.934
REMARK INTRA:                  -1.459
REMARK UNBOUND:                -1.162
REMARK  3 active torsions:
REMARK  status: ('A' for Active; 'I' for Inactive)
REMARK    1  A    between atoms: C8_11  and  C9_12 
REMARK    2  A    between atoms: C10_13  and  N2_14 
REMARK    3  A    between atoms: N2_14  and  C11_15 
ROOT
HETATM    1  C1    D T 298       7.589 -10.041  -0.875  1.00 17.20     0.036 A 
HETATM    2  C2    D T 298       7.405 -10.359   0.488  1.00 17.20     0.014 A 
HETATM    3  C3    D T 298       7.719  -9.448   1.498  1.00 17.20     0.058 A 
HETATM    4 CL     D T 298       7.466  -9.890   3.138  1.00 17.20    -0.082 Cl
HETATM    5  C4    D T 298       8.231  -8.186   1.184  1.00 17.20     0.013 A 
HETATM    6  C5    D T 298       8.422  -7.836  -0.164  1.00 17.20     0.020 A 
HETATM    7  C6    D T 298       8.102  -8.759  -1.177  1.00 17.20     0.086 A 
HETATM    8  N1    D T 298       8.287  -8.385  -2.516  1.00 17.20    -0.208 NA
HETATM    9  C7    D T 298       7.992  -9.206  -3.585  1.00 17.20     0.284 A 
HETATM   10  O1    D T 298       8.177  -8.821  -4.743  1.00 17.20    -0.265 OA
HETATM   11  C8    D T 298       7.459 -10.580  -3.280  1.00 17.20     0.111 A 
HETATM   12  C10   D T 298       7.263 -10.981  -1.984  1.00 17.20     0.085 A 
ENDROOT
BRANCH  11  13
HETATM   13  C9    D T 298       7.123 -11.498  -4.351  1.00 17.20     0.169 A 
HETATM   14  N3    D T 298       7.868 -12.450  -4.911  1.00 17.20    -0.225 NA
HETATM   15  C12   D T 298       7.093 -13.025  -5.886  1.00 17.20     0.101 A 
HETATM   16  C13   D T 298       5.840 -12.417  -5.944  1.00 17.20     0.101 A 
HETATM   17  C14   D T 298       7.399 -14.079  -6.775  1.00 17.20     0.021 A 
HETATM   18  N4    D T 298       5.882 -11.453  -4.966  1.00 17.20    -0.225 NA
HETATM   19  C17   D T 298       4.844 -12.808  -6.852  1.00 17.20     0.021 A 
HETATM   20  C16   D T 298       5.164 -13.860  -7.732  1.00 17.20     0.002 A 
HETATM   21  C15   D T 298       6.420 -14.488  -7.696  1.00 17.20     0.002 A 
ENDBRANCH  11  13
BRANCH  12  22
HETATM   22  N2    D T 298       6.783 -12.263  -1.697  1.00 17.20    -0.270 NA
BRANCH  22  23
HETATM   23  C11   D T 298       5.497 -12.735  -1.205  1.00 20.30     0.137 C 
HETATM   24  C18   D T 298       5.721 -13.835  -0.127  1.00 20.30     0.274 C 
HETATM   25  N5    D T 298       5.022 -15.124  -0.564  1.00 20.30     0.139 N 
HETATM   26  C19   D T 298       3.527 -14.882  -0.700  1.00 20.30     0.250 C 
HETATM   27  C21   D T 298       5.590 -15.625  -1.888  1.00 20.30     0.250 C 
HETATM   28  C20   D T 298       3.302 -13.806  -1.774  1.00 20.30     0.037 C 
HETATM   29  C23   D T 298       4.651 -13.329  -2.362  1.00 20.30     0.029 C 
HETATM   30  C22   D T 298       5.364 -14.556  -2.961  1.00 20.30     0.037 C 
ENDBRANCH  22  23
ENDBRANCH  12  22
TORSDOF 3
ENDMDL
