MODEL 1
REMARK VINA RESULT:    -7.692      0.000      0.000
REMARK INTER + INTRA:         -10.238
REMARK INTER:                  -9.041
REMARK INTRA:                  -1.197
REMARK UNBOUND:                -1.197
REMARK  3 active torsions:
REMARK  status: ('A' for Active; 'I' for Inactive)
REMARK    1  A    between atoms: C8_11  and  C9_12 
REMARK    2  A    between atoms: C10_13  and  N2_14 
REMARK    3  A    between atoms: N2_14  and  C11_15 
ROOT
HETATM    1  C1    D T 298      10.308  -4.725   0.930  1.00 17.20     0.036 A 
HETATM    2  C2    D T 298      10.492  -3.326   0.918  1.00 17.20     0.014 A 
HETATM    3  C3    D T 298      11.380  -2.700   1.796  1.00 17.20     0.058 A 
HETATM    4 CL     D T 298      11.565  -0.993   1.730  1.00 17.20    -0.082 Cl
HETATM    5  C4    D T 298      12.114  -3.449   2.719  1.00 17.20     0.013 A 
HETATM    6  C5    D T 298      11.957  -4.844   2.753  1.00 17.20     0.020 A 
HETATM    7  C6    D T 298      11.063  -5.469   1.864  1.00 17.20     0.086 A 
HETATM    8  N1    D T 298      10.932  -6.865   1.905  1.00 17.20    -0.208 NA
HETATM    9  C7    D T 298      10.096  -7.577   1.070  1.00 17.20     0.284 A 
HETATM   10  O1    D T 298      10.024  -8.807   1.154  1.00 17.20    -0.265 OA
HETATM   11  C8    D T 298       9.274  -6.798   0.079  1.00 17.20     0.111 A 
HETATM   12  C10   D T 298       9.377  -5.434   0.007  1.00 17.20     0.085 A 
ENDROOT
BRANCH  11  13
HETATM   13  C9    D T 298       8.376  -7.479  -0.833  1.00 17.20     0.169 A 
HETATM   14  N3    D T 298       7.096  -7.807  -0.665  1.00 17.20    -0.225 NA
HETATM   15  C12   D T 298       6.707  -8.446  -1.815  1.00 17.20     0.101 A 
HETATM   16  C13   D T 298       7.765  -8.528  -2.718  1.00 17.20     0.101 A 
HETATM   17  C14   D T 298       5.452  -8.997  -2.162  1.00 17.20     0.021 A 
HETATM   18  N4    D T 298       8.810  -7.912  -2.075  1.00 17.20    -0.225 NA
HETATM   19  C17   D T 298       7.649  -9.133  -3.979  1.00 17.20     0.021 A 
HETATM   20  C16   D T 298       6.391  -9.676  -4.308  1.00 17.20     0.002 A 
HETATM   21  C15   D T 298       5.309  -9.610  -3.417  1.00 17.20     0.002 A 
ENDBRANCH  11  13
BRANCH  12  22
HETATM   22  N2    D T 298       8.602  -4.706  -0.902  1.00 17.20    -0.270 NA
BRANCH  22  23
HETATM   23  C11   D T 298       8.800  -4.376  -2.306  1.00 20.30     0.137 C 
HETATM   24  C18   D T 298      10.319  -4.194  -2.592  1.00 20.30     0.274 C 
HETATM   25  N5    D T 298      10.567  -2.790  -3.147  1.00 20.30     0.139 N 
HETATM   26  C19   D T 298       9.806  -2.608  -4.451  1.00 20.30     0.250 C 
HETATM   27  C21   D T 298      10.136  -1.727  -2.141  1.00 20.30     0.250 C 
HETATM   28  C20   D T 298       8.306  -2.772  -4.169  1.00 20.30     0.037 C 
HETATM   29  C23   D T 298       8.058  -3.062  -2.670  1.00 20.30     0.029 C 
HETATM   30  C22   D T 298       8.638  -1.887  -1.860  1.00 20.30     0.037 C 
ENDBRANCH  22  23
ENDBRANCH  12  22
TORSDOF 3
ENDMDL
MODEL 2
REMARK VINA RESULT:    -7.562      3.010      6.844
REMARK INTER + INTRA:         -10.085
REMARK INTER:                  -9.019
REMARK INTRA:                  -1.066
REMARK UNBOUND:                -1.197
REMARK  3 active torsions:
REMARK  status: ('A' for Active; 'I' for Inactive)
REMARK    1  A    between atoms: C8_11  and  C9_12 
REMARK    2  A    between atoms: C10_13  and  N2_14 
REMARK    3  A    between atoms: N2_14  and  C11_15 
ROOT
HETATM    1  C1    D T 298       9.358  -5.472  -1.962  1.00 17.20     0.036 A 
HETATM    2  C2    D T 298       9.260  -5.831  -0.601  1.00 17.20     0.014 A 
HETATM    3  C3    D T 298       9.167  -7.167  -0.204  1.00 17.20     0.058 A 
HETATM    4 CL     D T 298       9.056  -7.541   1.470  1.00 17.20    -0.082 Cl
HETATM    5  C4    D T 298       9.163  -8.192  -1.153  1.00 17.20     0.013 A 
HETATM    6  C5    D T 298       9.263  -7.868  -2.516  1.00 17.20     0.020 A 
HETATM    7  C6    D T 298       9.360  -6.521  -2.909  1.00 17.20     0.086 A 
HETATM    8  N1    D T 298       9.473  -6.220  -4.274  1.00 17.20    -0.208 NA
HETATM    9  C7    D T 298       9.589  -4.936  -4.765  1.00 17.20     0.284 A 
HETATM   10  O1    D T 298       9.685  -4.734  -5.979  1.00 17.20    -0.265 OA
HETATM   11  C8    D T 298       9.573  -3.807  -3.770  1.00 17.20     0.111 A 
HETATM   12  C10   D T 298       9.467  -4.061  -2.428  1.00 17.20     0.085 A 
ENDROOT
BRANCH  11  13
HETATM   13  C9    D T 298       9.693  -2.431  -4.212  1.00 17.20     0.169 A 
HETATM   14  N3    D T 298      10.792  -1.711  -4.434  1.00 17.20    -0.225 NA
HETATM   15  C12   D T 298      10.366  -0.467  -4.826  1.00 17.20     0.101 A 
HETATM   16  C13   D T 298       8.974  -0.403  -4.843  1.00 17.20     0.101 A 
HETATM   17  C14   D T 298      11.120   0.674  -5.181  1.00 17.20     0.021 A 
HETATM   18  N4    D T 298       8.570  -1.655  -4.449  1.00 17.20    -0.225 NA
HETATM   19  C17   D T 298       8.266   0.753  -5.207  1.00 17.20     0.021 A 
HETATM   20  C16   D T 298       9.033   1.881  -5.558  1.00 17.20     0.002 A 
HETATM   21  C15   D T 298      10.437   1.845  -5.548  1.00 17.20     0.002 A 
ENDBRANCH  11  13
BRANCH  12  22
HETATM   22  N2    D T 298       9.436  -3.013  -1.503  1.00 17.20    -0.270 NA
BRANCH  22  23
HETATM   23  C11   D T 298      10.490  -2.194  -0.922  1.00 20.30     0.137 C 
HETATM   24  C18   D T 298      11.872  -2.866  -1.170  1.00 20.30     0.274 C 
HETATM   25  N5    D T 298      12.559  -3.124   0.173  1.00 20.30     0.139 N 
HETATM   26  C19   D T 298      12.787  -1.808   0.899  1.00 20.30     0.250 C 
HETATM   27  C21   D T 298      11.718  -4.058   1.039  1.00 20.30     0.250 C 
HETATM   28  C20   D T 298      11.424  -1.150   1.158  1.00 20.30     0.037 C 
HETATM   29  C23   D T 298      10.277  -2.029   0.607  1.00 20.30     0.029 C 
HETATM   30  C22   D T 298      10.359  -3.401   1.301  1.00 20.30     0.037 C 
ENDBRANCH  22  23
ENDBRANCH  12  22
TORSDOF 3
ENDMDL
MODEL 3
REMARK VINA RESULT:    -7.048      2.565      5.325
REMARK INTER + INTRA:          -9.481
REMARK INTER:                  -8.546
REMARK INTRA:                  -0.935
REMARK UNBOUND:                -1.197
REMARK  3 active torsions:
REMARK  status: ('A' for Active; 'I' for Inactive)
REMARK    1  A    between atoms: C8_11  and  C9_12 
REMARK    2  A    between atoms: C10_13  and  N2_14 
REMARK    3  A    between atoms: N2_14  and  C11_15 
ROOT
HETATM    1  C1    D T 298       9.998  -4.242   2.080  1.00 17.20     0.036 A 
HETATM    2  C2    D T 298       9.484  -5.118   3.059  1.00 17.20     0.014 A 
HETATM    3  C3    D T 298       9.964  -5.108   4.371  1.00 17.20     0.058 A 
HETATM    4 CL     D T 298       9.294  -6.196   5.520  1.00 17.20    -0.082 Cl
HETATM    5  C4    D T 298      10.977  -4.225   4.750  1.00 17.20     0.013 A 
HETATM    6  C5    D T 298      11.507  -3.336   3.800  1.00 17.20     0.020 A 
HETATM    7  C6    D T 298      11.018  -3.349   2.481  1.00 17.20     0.086 A 
HETATM    8  N1    D T 298      11.550  -2.444   1.552  1.00 17.20    -0.208 NA
HETATM    9  C7    D T 298      11.132  -2.364   0.240  1.00 17.20     0.284 A 
HETATM   10  O1    D T 298      11.640  -1.545  -0.532  1.00 17.20    -0.265 OA
HETATM   11  C8    D T 298      10.057  -3.318  -0.208  1.00 17.20     0.111 A 
HETATM   12  C10   D T 298       9.510  -4.215   0.672  1.00 17.20     0.085 A 
ENDROOT
BRANCH  11  13
HETATM   13  C9    D T 298       9.566  -3.290  -1.571  1.00 17.20     0.169 A 
HETATM   14  N3    D T 298      10.006  -3.953  -2.639  1.00 17.20    -0.225 NA
HETATM   15  C12   D T 298       9.211  -3.569  -3.688  1.00 17.20     0.101 A 
HETATM   16  C13   D T 298       8.258  -2.642  -3.273  1.00 17.20     0.101 A 
HETATM   17  C14   D T 298       9.248  -3.971  -5.043  1.00 17.20     0.021 A 
HETATM   18  N4    D T 298       8.503  -2.478  -1.932  1.00 17.20    -0.225 NA
HETATM   19  C17   D T 298       7.311  -2.077  -4.142  1.00 17.20     0.021 A 
HETATM   20  C16   D T 298       7.361  -2.490  -5.488  1.00 17.20     0.002 A 
HETATM   21  C15   D T 298       8.312  -3.421  -5.934  1.00 17.20     0.002 A 
ENDBRANCH  11  13
BRANCH  12  22
HETATM   22  N2    D T 298       8.523  -5.113   0.255  1.00 17.20    -0.270 NA
BRANCH  22  23
HETATM   23  C11   D T 298       8.517  -6.149  -0.768  1.00 20.30     0.137 C 
HETATM   24  C18   D T 298       7.180  -6.943  -0.699  1.00 20.30     0.274 C 
HETATM   25  N5    D T 298       7.481  -8.425  -0.464  1.00 20.30     0.139 N 
HETATM   26  C19   D T 298       8.309  -8.974  -1.615  1.00 20.30     0.250 C 
HETATM   27  C21   D T 298       8.227  -8.622   0.853  1.00 20.30     0.250 C 
HETATM   28  C20   D T 298       9.634  -8.202  -1.676  1.00 20.30     0.037 C 
HETATM   29  C23   D T 298       9.699  -7.133  -0.560  1.00 20.30     0.029 C 
HETATM   30  C22   D T 298       9.552  -7.855   0.793  1.00 20.30     0.037 C 
ENDBRANCH  22  23
ENDBRANCH  12  22
TORSDOF 3
ENDMDL
MODEL 4
REMARK VINA RESULT:    -7.007      2.866      6.864
REMARK INTER + INTRA:          -9.433
REMARK INTER:                  -8.077
REMARK INTRA:                  -1.356
REMARK UNBOUND:                -1.197
REMARK  3 active torsions:
REMARK  status: ('A' for Active; 'I' for Inactive)
REMARK    1  A    between atoms: C8_11  and  C9_12 
REMARK    2  A    between atoms: C10_13  and  N2_14 
REMARK    3  A    between atoms: N2_14  and  C11_15 
ROOT
HETATM    1  C1    D T 298      10.224  -3.771  -1.836  1.00 17.20     0.036 A 
HETATM    2  C2    D T 298      10.012  -4.534  -3.003  1.00 17.20     0.014 A 
HETATM    3  C3    D T 298      10.015  -3.945  -4.270  1.00 17.20     0.058 A 
HETATM    4 CL     D T 298       9.757  -4.928  -5.656  1.00 17.20    -0.082 Cl
HETATM    5  C4    D T 298      10.226  -2.572  -4.415  1.00 17.20     0.013 A 
HETATM    6  C5    D T 298      10.444  -1.785  -3.272  1.00 17.20     0.020 A 
HETATM    7  C6    D T 298      10.443  -2.385  -1.999  1.00 17.20     0.086 A 
HETATM    8  N1    D T 298      10.677  -1.584  -0.872  1.00 17.20    -0.208 NA
HETATM    9  C7    D T 298      10.711  -2.073   0.417  1.00 17.20     0.284 A 
HETATM   10  O1    D T 298      10.922  -1.317   1.370  1.00 17.20    -0.265 OA
HETATM   11  C8    D T 298      10.465  -3.545   0.610  1.00 17.20     0.111 A 
HETATM   12  C10   D T 298      10.235  -4.361  -0.467  1.00 17.20     0.085 A 
ENDROOT
BRANCH  11  13
HETATM   13  C9    D T 298      10.488  -4.131   1.936  1.00 17.20     0.169 A 
HETATM   14  N3    D T 298      11.514  -4.649   2.609  1.00 17.20    -0.225 NA
HETATM   15  C12   D T 298      11.011  -5.078   3.811  1.00 17.20     0.101 A 
HETATM   16  C13   D T 298       9.642  -4.833   3.890  1.00 17.20     0.101 A 
HETATM   17  C14   D T 298      11.670  -5.702   4.894  1.00 17.20     0.021 A 
HETATM   18  N4    D T 298       9.333  -4.235   2.693  1.00 17.20    -0.225 NA
HETATM   19  C17   D T 298       8.867  -5.172   5.010  1.00 17.20     0.021 A 
HETATM   20  C16   D T 298       9.541  -5.792   6.082  1.00 17.20     0.002 A 
HETATM   21  C15   D T 298      10.919  -6.053   6.028  1.00 17.20     0.002 A 
ENDBRANCH  11  13
BRANCH  12  22
HETATM   22  N2    D T 298       9.990  -5.726  -0.289  1.00 17.20    -0.270 NA
BRANCH  22  23
HETATM   23  C11   D T 298       8.766  -6.473  -0.037  1.00 20.30     0.137 C 
HETATM   24  C18   D T 298       9.007  -7.501   1.105  1.00 20.30     0.274 C 
HETATM   25  N5    D T 298       8.705  -8.911   0.592  1.00 20.30     0.139 N 
HETATM   26  C19   D T 298       7.250  -9.003   0.159  1.00 20.30     0.250 C 
HETATM   27  C21   D T 298       9.619  -9.267  -0.577  1.00 20.30     0.250 C 
HETATM   28  C20   D T 298       7.014  -8.000  -0.978  1.00 20.30     0.037 C 
HETATM   29  C23   D T 298       8.315  -7.233  -1.313  1.00 20.30     0.029 C 
HETATM   30  C22   D T 298       9.382  -8.269  -1.714  1.00 20.30     0.037 C 
ENDBRANCH  22  23
ENDBRANCH  12  22
TORSDOF 3
ENDMDL
MODEL 5
REMARK VINA RESULT:    -6.963      3.598      6.479
REMARK INTER + INTRA:          -9.381
REMARK INTER:                  -8.142
REMARK INTRA:                  -1.239
REMARK UNBOUND:                -1.197
REMARK  3 active torsions:
REMARK  status: ('A' for Active; 'I' for Inactive)
REMARK    1  A    between atoms: C8_11  and  C9_12 
REMARK    2  A    between atoms: C10_13  and  N2_14 
REMARK    3  A    between atoms: N2_14  and  C11_15 
ROOT
HETATM    1  C1    D T 298      10.521  -3.618   1.921  1.00 17.20     0.036 A 
HETATM    2  C2    D T 298      11.214  -3.393   3.129  1.00 17.20     0.014 A 
HETATM    3  C3    D T 298      11.110  -4.279   4.204  1.00 17.20     0.058 A 
HETATM    4 CL     D T 298      11.983  -3.954   5.648  1.00 17.20    -0.082 Cl
HETATM    5  C4    D T 298      10.308  -5.418   4.112  1.00 17.20     0.013 A 
HETATM    6  C5    D T 298       9.608  -5.673   2.921  1.00 17.20     0.020 A 
HETATM    7  C6    D T 298       9.719  -4.779   1.840  1.00 17.20     0.086 A 
HETATM    8  N1    D T 298       9.023  -5.059   0.655  1.00 17.20    -0.208 NA
HETATM    9  C7    D T 298       9.074  -4.258  -0.466  1.00 17.20     0.284 A 
HETATM   10  O1    D T 298       8.439  -4.557  -1.482  1.00 17.20    -0.265 OA
HETATM   11  C8    D T 298       9.913  -3.010  -0.393  1.00 17.20     0.111 A 
HETATM   12  C10   D T 298      10.609  -2.703   0.747  1.00 17.20     0.085 A 
ENDROOT
BRANCH  11  13
HETATM   13  C9    D T 298      10.017  -2.121  -1.533  1.00 17.20     0.169 A 
HETATM   14  N3    D T 298      10.877  -2.153  -2.550  1.00 17.20    -0.225 NA
HETATM   15  C12   D T 298      10.563  -1.089  -3.356  1.00 17.20     0.101 A 
HETATM   16  C13   D T 298       9.490  -0.371  -2.832  1.00 17.20     0.101 A 
HETATM   17  C14   D T 298      11.162  -0.663  -4.563  1.00 17.20     0.021 A 
HETATM   18  N4    D T 298       9.163  -1.040  -1.678  1.00 17.20    -0.225 NA
HETATM   19  C17   D T 298       8.957   0.770  -3.452  1.00 17.20     0.021 A 
HETATM   20  C16   D T 298       9.566   1.179  -4.655  1.00 17.20     0.002 A 
HETATM   21  C15   D T 298      10.650   0.476  -5.205  1.00 17.20     0.002 A 
ENDBRANCH  11  13
BRANCH  12  22
HETATM   22  N2    D T 298      11.376  -1.537   0.824  1.00 17.20    -0.270 NA
BRANCH  22  23
HETATM   23  C11   D T 298      12.705  -1.209   0.330  1.00 20.30     0.137 C 
HETATM   24  C18   D T 298      13.579  -2.496   0.288  1.00 20.30     0.274 C 
HETATM   25  N5    D T 298      14.824  -2.295   1.155  1.00 20.30     0.139 N 
HETATM   26  C19   D T 298      15.647  -1.136   0.616  1.00 20.30     0.250 C 
HETATM   27  C21   D T 298      14.433  -2.025   2.605  1.00 20.30     0.250 C 
HETATM   28  C20   D T 298      14.792   0.139   0.671  1.00 20.30     0.037 C 
HETATM   29  C23   D T 298      13.391  -0.165   1.251  1.00 20.30     0.029 C 
HETATM   30  C22   D T 298      13.583  -0.752   2.662  1.00 20.30     0.037 C 
ENDBRANCH  22  23
ENDBRANCH  12  22
TORSDOF 3
ENDMDL
MODEL 6
REMARK VINA RESULT:    -6.852      2.651      6.239
REMARK INTER + INTRA:          -9.251
REMARK INTER:                  -7.824
REMARK INTRA:                  -1.427
REMARK UNBOUND:                -1.197
REMARK  3 active torsions:
REMARK  status: ('A' for Active; 'I' for Inactive)
REMARK    1  A    between atoms: C8_11  and  C9_12 
REMARK    2  A    between atoms: C10_13  and  N2_14 
REMARK    3  A    between atoms: N2_14  and  C11_15 
ROOT
HETATM    1  C1    D T 298       9.005  -7.329  -1.218  1.00 17.20     0.036 A 
HETATM    2  C2    D T 298       8.536  -7.667  -2.504  1.00 17.20     0.014 A 
HETATM    3  C3    D T 298       7.846  -8.859  -2.739  1.00 17.20     0.058 A 
HETATM    4 CL     D T 298       7.293  -9.212  -4.327  1.00 17.20    -0.082 Cl
HETATM    5  C4    D T 298       7.605  -9.757  -1.697  1.00 17.20     0.013 A 
HETATM    6  C5    D T 298       8.056  -9.448  -0.403  1.00 17.20     0.020 A 
HETATM    7  C6    D T 298       8.748  -8.245  -0.173  1.00 17.20     0.086 A 
HETATM    8  N1    D T 298       9.177  -7.949   1.129  1.00 17.20    -0.208 NA
HETATM    9  C7    D T 298       9.849  -6.792   1.466  1.00 17.20     0.284 A 
HETATM   10  O1    D T 298      10.202  -6.587   2.630  1.00 17.20    -0.265 OA
HETATM   11  C8    D T 298      10.145  -5.812   0.362  1.00 17.20     0.111 A 
HETATM   12  C10   D T 298       9.739  -6.065  -0.922  1.00 17.20     0.085 A 
ENDROOT
BRANCH  11  13
HETATM   13  C9    D T 298      10.845  -4.574   0.641  1.00 17.20     0.169 A 
HETATM   14  N3    D T 298      10.366  -3.425   1.114  1.00 17.20    -0.225 NA
HETATM   15  C12   D T 298      11.430  -2.562   1.186  1.00 17.20     0.101 A 
HETATM   16  C13   D T 298      12.597  -3.180   0.742  1.00 17.20     0.101 A 
HETATM   17  C14   D T 298      11.475  -1.218   1.619  1.00 17.20     0.021 A 
HETATM   18  N4    D T 298      12.203  -4.450   0.400  1.00 17.20    -0.225 NA
HETATM   19  C17   D T 298      13.841  -2.529   0.706  1.00 17.20     0.021 A 
HETATM   20  C16   D T 298      13.867  -1.189   1.143  1.00 17.20     0.002 A 
HETATM   21  C15   D T 298      12.706  -0.542   1.593  1.00 17.20     0.002 A 
ENDBRANCH  11  13
BRANCH  12  22
HETATM   22  N2    D T 298      10.026  -5.165  -1.953  1.00 17.20    -0.270 NA
BRANCH  22  23
HETATM   23  C11   D T 298       9.177  -4.294  -2.752  1.00 20.30     0.137 C 
HETATM   24  C18   D T 298       9.634  -4.339  -4.239  1.00 20.30     0.274 C 
HETATM   25  N5    D T 298       9.996  -2.925  -4.702  1.00 20.30     0.139 N 
HETATM   26  C19   D T 298       8.779  -2.020  -4.600  1.00 20.30     0.250 C 
HETATM   27  C21   D T 298      11.138  -2.359  -3.864  1.00 20.30     0.250 C 
HETATM   28  C20   D T 298       8.334  -1.963  -3.131  1.00 20.30     0.037 C 
HETATM   29  C23   D T 298       9.258  -2.830  -2.244  1.00 20.30     0.029 C 
HETATM   30  C22   D T 298      10.696  -2.297  -2.398  1.00 20.30     0.037 C 
ENDBRANCH  22  23
ENDBRANCH  12  22
TORSDOF 3
ENDMDL
MODEL 7
REMARK VINA RESULT:    -6.802      2.318      3.625
REMARK INTER + INTRA:          -9.192
REMARK INTER:                  -7.828
REMARK INTRA:                  -1.363
REMARK UNBOUND:                -1.197
REMARK  3 active torsions:
REMARK  status: ('A' for Active; 'I' for Inactive)
REMARK    1  A    between atoms: C8_11  and  C9_12 
REMARK    2  A    between atoms: C10_13  and  N2_14 
REMARK    3  A    between atoms: N2_14  and  C11_15 
ROOT
HETATM    1  C1    D T 298      12.399  -1.654   1.195  1.00 17.20     0.036 A 
HETATM    2  C2    D T 298      13.134  -0.665   0.508  1.00 17.20     0.014 A 
HETATM    3  C3    D T 298      13.871   0.303   1.193  1.00 17.20     0.058 A 
HETATM    4 CL     D T 298      14.751   1.478   0.299  1.00 17.20    -0.082 Cl
HETATM    5  C4    D T 298      13.898   0.321   2.589  1.00 17.20     0.013 A 
HETATM    6  C5    D T 298      13.180  -0.653   3.304  1.00 17.20     0.020 A 
HETATM    7  C6    D T 298      12.442  -1.628   2.608  1.00 17.20     0.086 A 
HETATM    8  N1    D T 298      11.744  -2.599   3.340  1.00 17.20    -0.208 NA
HETATM    9  C7    D T 298      11.002  -3.606   2.757  1.00 17.20     0.284 A 
HETATM   10  O1    D T 298      10.409  -4.434   3.455  1.00 17.20    -0.265 OA
HETATM   11  C8    D T 298      10.935  -3.640   1.254  1.00 17.20     0.111 A 
HETATM   12  C10   D T 298      11.605  -2.710   0.504  1.00 17.20     0.085 A 
ENDROOT
BRANCH  11  13
HETATM   13  C9    D T 298      10.178  -4.671   0.572  1.00 17.20     0.169 A 
HETATM   14  N3    D T 298       8.858  -4.798   0.440  1.00 17.20    -0.225 NA
HETATM   15  C12   D T 298       8.651  -5.947  -0.282  1.00 17.20     0.101 A 
HETATM   16  C13   D T 298       9.862  -6.555  -0.601  1.00 17.20     0.101 A 
HETATM   17  C14   D T 298       7.440  -6.543  -0.700  1.00 17.20     0.021 A 
HETATM   18  N4    D T 298      10.814  -5.733  -0.050  1.00 17.20    -0.225 NA
HETATM   19  C17   D T 298       9.948  -7.748  -1.336  1.00 17.20     0.021 A 
HETATM   20  C16   D T 298       8.732  -8.329  -1.746  1.00 17.20     0.002 A 
HETATM   21  C15   D T 298       7.496  -7.738  -1.436  1.00 17.20     0.002 A 
ENDBRANCH  11  13
BRANCH  12  22
HETATM   22  N2    D T 298      11.531  -2.729  -0.892  1.00 17.20    -0.270 NA
BRANCH  22  23
HETATM   23  C11   D T 298      10.954  -1.799  -1.851  1.00 20.30     0.137 C 
HETATM   24  C18   D T 298       9.540  -1.361  -1.370  1.00 20.30     0.274 C 
HETATM   25  N5    D T 298       8.506  -1.717  -2.440  1.00 20.30     0.139 N 
HETATM   26  C19   D T 298       8.824  -0.980  -3.732  1.00 20.30     0.250 C 
HETATM   27  C21   D T 298       8.485  -3.222  -2.692  1.00 20.30     0.250 C 
HETATM   28  C20   D T 298      10.213  -1.421  -4.217  1.00 20.30     0.037 C 
HETATM   29  C23   D T 298      10.828  -2.460  -3.249  1.00 20.30     0.029 C 
HETATM   30  C22   D T 298       9.869  -3.664  -3.179  1.00 20.30     0.037 C 
ENDBRANCH  22  23
ENDBRANCH  12  22
TORSDOF 3
ENDMDL
MODEL 8
REMARK VINA RESULT:    -6.563      3.120      6.077
REMARK INTER + INTRA:          -8.912
REMARK INTER:                  -7.544
REMARK INTRA:                  -1.368
REMARK UNBOUND:                -1.197
REMARK  3 active torsions:
REMARK  status: ('A' for Active; 'I' for Inactive)
REMARK    1  A    between atoms: C8_11  and  C9_12 
REMARK    2  A    between atoms: C10_13  and  N2_14 
REMARK    3  A    between atoms: N2_14  and  C11_15 
ROOT
HETATM    1  C1    D T 298       9.673  -2.436  -2.376  1.00 17.20     0.036 A 
HETATM    2  C2    D T 298       9.654  -1.027  -2.456  1.00 17.20     0.014 A 
HETATM    3  C3    D T 298       9.356  -0.369  -3.651  1.00 17.20     0.058 A 
HETATM    4 CL     D T 298       9.342   1.349  -3.684  1.00 17.20    -0.082 Cl
HETATM    5  C4    D T 298       9.069  -1.094  -4.810  1.00 17.20     0.013 A 
HETATM    6  C5    D T 298       9.076  -2.498  -4.762  1.00 17.20     0.020 A 
HETATM    7  C6    D T 298       9.374  -3.155  -3.555  1.00 17.20     0.086 A 
HETATM    8  N1    D T 298       9.361  -4.557  -3.525  1.00 17.20    -0.208 NA
HETATM    9  C7    D T 298       9.625  -5.299  -2.392  1.00 17.20     0.284 A 
HETATM   10  O1    D T 298       9.598  -6.532  -2.428  1.00 17.20    -0.265 OA
HETATM   11  C8    D T 298       9.959  -4.548  -1.131  1.00 17.20     0.111 A 
HETATM   12  C10   D T 298       9.979  -3.178  -1.120  1.00 17.20     0.085 A 
ENDROOT
BRANCH  11  13
HETATM   13  C9    D T 298      10.244  -5.260   0.099  1.00 17.20     0.169 A 
HETATM   14  N3    D T 298      11.347  -5.917   0.455  1.00 17.20    -0.225 NA
HETATM   15  C12   D T 298      11.108  -6.422   1.708  1.00 17.20     0.101 A 
HETATM   16  C13   D T 298       9.829  -6.082   2.143  1.00 17.20     0.101 A 
HETATM   17  C14   D T 298      11.944  -7.197   2.543  1.00 17.20     0.021 A 
HETATM   18  N4    D T 298       9.300  -5.349   1.109  1.00 17.20    -0.225 NA
HETATM   19  C17   D T 298       9.318  -6.468   3.392  1.00 17.20     0.021 A 
HETATM   20  C16   D T 298      10.166  -7.239   4.212  1.00 17.20     0.002 A 
HETATM   21  C15   D T 298      11.458  -7.598   3.798  1.00 17.20     0.002 A 
ENDBRANCH  11  13
BRANCH  12  22
HETATM   22  N2    D T 298      10.305  -2.478   0.046  1.00 17.20    -0.270 NA
BRANCH  22  23
HETATM   23  C11   D T 298      11.422  -1.606   0.380  1.00 20.30     0.137 C 
HETATM   24  C18   D T 298      12.742  -2.206  -0.187  1.00 20.30     0.274 C 
HETATM   25  N5    D T 298      13.732  -2.431   0.958  1.00 20.30     0.139 N 
HETATM   26  C19   D T 298      14.055  -1.105   1.629  1.00 20.30     0.250 C 
HETATM   27  C21   D T 298      13.161  -3.407   1.982  1.00 20.30     0.250 C 
HETATM   28  C20   D T 298      12.757  -0.518   2.203  1.00 20.30     0.037 C 
HETATM   29  C23   D T 298      11.559  -1.455   1.919  1.00 20.30     0.029 C 
HETATM   30  C22   D T 298      11.867  -2.822   2.558  1.00 20.30     0.037 C 
ENDBRANCH  22  23
ENDBRANCH  12  22
TORSDOF 3
ENDMDL
MODEL 9
REMARK VINA RESULT:    -6.378      3.820      7.025
REMARK INTER + INTRA:          -8.693
REMARK INTER:                  -7.531
REMARK INTRA:                  -1.162
REMARK UNBOUND:                -1.197
REMARK  3 active torsions:
REMARK  status: ('A' for Active; 'I' for Inactive)
REMARK    1  A    between atoms: C8_11  and  C9_12 
REMARK    2  A    between atoms: C10_13  and  N2_14 
REMARK    3  A    between atoms: N2_14  and  C11_15 
ROOT
HETATM    1  C1    D T 298      10.457  -1.588  -2.705  1.00 17.20     0.036 A 
HETATM    2  C2    D T 298      11.038  -0.485  -3.365  1.00 17.20     0.014 A 
HETATM    3  C3    D T 298      10.497   0.026  -4.547  1.00 17.20     0.058 A 
HETATM    4 CL     D T 298      11.246   1.376  -5.301  1.00 17.20    -0.082 Cl
HETATM    5  C4    D T 298       9.358  -0.551  -5.115  1.00 17.20     0.013 A 
HETATM    6  C5    D T 298       8.753  -1.649  -4.480  1.00 17.20     0.020 A 
HETATM    7  C6    D T 298       9.302  -2.157  -3.288  1.00 17.20     0.086 A 
HETATM    8  N1    D T 298       8.675  -3.244  -2.663  1.00 17.20    -0.208 NA
HETATM    9  C7    D T 298       9.121  -3.808  -1.485  1.00 17.20     0.284 A 
HETATM   10  O1    D T 298       8.526  -4.765  -0.982  1.00 17.20    -0.265 OA
HETATM   11  C8    D T 298      10.359  -3.224  -0.859  1.00 17.20     0.111 A 
HETATM   12  C10   D T 298      10.998  -2.160  -1.439  1.00 17.20     0.085 A 
ENDROOT
BRANCH  11  13
HETATM   13  C9    D T 298      10.885  -3.763   0.379  1.00 17.20     0.169 A 
HETATM   14  N3    D T 298      11.663  -4.826   0.572  1.00 17.20    -0.225 NA
HETATM   15  C12   D T 298      11.868  -4.916   1.925  1.00 17.20     0.101 A 
HETATM   16  C13   D T 298      11.199  -3.895   2.595  1.00 17.20     0.101 A 
HETATM   17  C14   D T 298      12.618  -5.859   2.664  1.00 17.20     0.021 A 
HETATM   18  N4    D T 298      10.582  -3.179   1.599  1.00 17.20    -0.225 NA
HETATM   19  C17   D T 298      11.234  -3.744   3.991  1.00 17.20     0.021 A 
HETATM   20  C16   D T 298      11.987  -4.692   4.711  1.00 17.20     0.002 A 
HETATM   21  C15   D T 298      12.669  -5.733   4.062  1.00 17.20     0.002 A 
ENDBRANCH  11  13
BRANCH  12  22
HETATM   22  N2    D T 298      12.157  -1.626  -0.868  1.00 17.20    -0.270 NA
BRANCH  22  23
HETATM   23  C11   D T 298      13.557  -1.688  -1.264  1.00 20.30     0.137 C 
HETATM   24  C18   D T 298      14.312  -2.705  -0.360  1.00 20.30     0.274 C 
HETATM   25  N5    D T 298      15.467  -1.995   0.349  1.00 20.30     0.139 N 
HETATM   26  C19   D T 298      16.445  -1.447  -0.678  1.00 20.30     0.250 C 
HETATM   27  C21   D T 298      14.947  -0.863   1.229  1.00 20.30     0.250 C 
HETATM   28  C20   D T 298      15.707  -0.431  -1.562  1.00 20.30     0.037 C 
HETATM   29  C23   D T 298      14.229  -0.296  -1.125  1.00 20.30     0.029 C 
HETATM   30  C22   D T 298      14.212   0.153   0.348  1.00 20.30     0.037 C 
ENDBRANCH  22  23
ENDBRANCH  12  22
TORSDOF 3
ENDMDL
