MODEL 1
REMARK VINA RESULT:    -8.401      0.000      0.000
REMARK INTER + INTRA:         -11.099
REMARK INTER:                  -9.874
REMARK INTRA:                  -1.224
REMARK UNBOUND:                -1.224
REMARK  3 active torsions:
REMARK  status: ('A' for Active; 'I' for Inactive)
REMARK    1  A    between atoms: C8_11  and  C9_12 
REMARK    2  A    between atoms: C10_13  and  N2_14 
REMARK    3  A    between atoms: N2_14  and  C11_15 
ROOT
HETATM    1  C1    D T 298     -13.014   3.141  -5.031  1.00 17.20     0.036 A 
HETATM    2  C2    D T 298     -11.646   3.479  -5.088  1.00 17.20     0.014 A 
HETATM    3  C3    D T 298     -10.839   3.073  -6.153  1.00 17.20     0.058 A 
HETATM    4 CL     D T 298      -9.180   3.521  -6.169  1.00 17.20    -0.082 Cl
HETATM    5  C4    D T 298     -11.369   2.313  -7.197  1.00 17.20     0.013 A 
HETATM    6  C5    D T 298     -12.730   1.963  -7.173  1.00 17.20     0.020 A 
HETATM    7  C6    D T 298     -13.539   2.377  -6.099  1.00 17.20     0.086 A 
HETATM    8  N1    D T 298     -14.896   2.029  -6.100  1.00 17.20    -0.208 NA
HETATM    9  C7    D T 298     -15.778   2.396  -5.105  1.00 17.20     0.284 A 
HETATM   10  O1    D T 298     -16.965   2.061  -5.161  1.00 17.20    -0.265 OA
HETATM   11  C8    D T 298     -15.234   3.198  -3.952  1.00 17.20     0.111 A 
HETATM   12  C10   D T 298     -13.912   3.558  -3.916  1.00 17.20     0.085 A 
ENDROOT
BRANCH  11  13
HETATM   13  C9    D T 298     -16.101   3.622  -2.871  1.00 17.20     0.169 A 
HETATM   14  N3    D T 298     -16.882   4.698  -2.789  1.00 17.20    -0.225 NA
HETATM   15  C12   D T 298     -17.486   4.645  -1.558  1.00 17.20     0.101 A 
HETATM   16  C13   D T 298     -17.070   3.519  -0.851  1.00 17.20     0.101 A 
HETATM   17  C14   D T 298     -18.407   5.538  -0.967  1.00 17.20     0.021 A 
HETATM   18  N4    D T 298     -16.192   2.888  -1.699  1.00 17.20    -0.225 NA
HETATM   19  C17   D T 298     -17.529   3.213   0.439  1.00 17.20     0.021 A 
HETATM   20  C16   D T 298     -18.448   4.114   1.015  1.00 17.20     0.002 A 
HETATM   21  C15   D T 298     -18.883   5.257   0.326  1.00 17.20     0.002 A 
ENDBRANCH  11  13
BRANCH  12  22
HETATM   22  N2    D T 298     -13.400   4.289  -2.840  1.00 17.20    -0.270 NA
BRANCH  22  23
HETATM   23  C11   D T 298     -13.448   5.705  -2.511  1.00 20.30     0.137 C 
HETATM   24  C18   D T 298     -13.255   6.550  -3.804  1.00 20.30     0.274 C 
HETATM   25  N5    D T 298     -12.041   7.465  -3.637  1.00 20.30     0.139 N 
HETATM   26  C19   D T 298     -12.265   8.414  -2.471  1.00 20.30     0.250 C 
HETATM   27  C21   D T 298     -10.776   6.646  -3.403  1.00 20.30     0.250 C 
HETATM   28  C20   D T 298     -12.441   7.585  -1.191  1.00 20.30     0.037 C 
HETATM   29  C23   D T 298     -12.331   6.072  -1.499  1.00 20.30     0.029 C 
HETATM   30  C22   D T 298     -10.947   5.818  -2.125  1.00 20.30     0.037 C 
ENDBRANCH  22  23
ENDBRANCH  12  22
TORSDOF 3
ENDMDL
MODEL 2
REMARK VINA RESULT:    -8.232      2.287      5.237
REMARK INTER + INTRA:         -10.900
REMARK INTER:                  -9.857
REMARK INTRA:                  -1.043
REMARK UNBOUND:                -1.224
REMARK  3 active torsions:
REMARK  status: ('A' for Active; 'I' for Inactive)
REMARK    1  A    between atoms: C8_11  and  C9_12 
REMARK    2  A    between atoms: C10_13  and  N2_14 
REMARK    3  A    between atoms: N2_14  and  C11_15 
ROOT
HETATM    1  C1    D T 298     -11.676   2.980  -5.330  1.00 17.20     0.036 A 
HETATM    2  C2    D T 298     -11.117   2.077  -6.258  1.00 17.20     0.014 A 
HETATM    3  C3    D T 298      -9.856   2.294  -6.817  1.00 17.20     0.058 A 
HETATM    4 CL     D T 298      -9.225   1.154  -7.938  1.00 17.20    -0.082 Cl
HETATM    5  C4    D T 298      -9.110   3.423  -6.472  1.00 17.20     0.013 A 
HETATM    6  C5    D T 298      -9.636   4.341  -5.547  1.00 17.20     0.020 A 
HETATM    7  C6    D T 298     -10.906   4.115  -4.985  1.00 17.20     0.086 A 
HETATM    8  N1    D T 298     -11.408   5.035  -4.054  1.00 17.20    -0.208 NA
HETATM    9  C7    D T 298     -12.632   4.901  -3.434  1.00 17.20     0.284 A 
HETATM   10  O1    D T 298     -13.021   5.744  -2.620  1.00 17.20    -0.265 OA
HETATM   11  C8    D T 298     -13.472   3.706  -3.800  1.00 17.20     0.111 A 
HETATM   12  C10   D T 298     -13.015   2.784  -4.705  1.00 17.20     0.085 A 
ENDROOT
BRANCH  11  13
HETATM   13  C9    D T 298     -14.769   3.497  -3.187  1.00 17.20     0.169 A 
HETATM   14  N3    D T 298     -15.983   3.748  -3.676  1.00 17.20    -0.225 NA
HETATM   15  C12   D T 298     -16.875   3.383  -2.700  1.00 17.20     0.101 A 
HETATM   16  C13   D T 298     -16.209   2.904  -1.575  1.00 17.20     0.101 A 
HETATM   17  C14   D T 298     -18.287   3.443  -2.703  1.00 17.20     0.021 A 
HETATM   18  N4    D T 298     -14.878   2.986  -1.903  1.00 17.20    -0.225 NA
HETATM   19  C17   D T 298     -16.877   2.460  -0.422  1.00 17.20     0.021 A 
HETATM   20  C16   D T 298     -18.285   2.525  -0.441  1.00 17.20     0.002 A 
HETATM   21  C15   D T 298     -18.981   3.006  -1.561  1.00 17.20     0.002 A 
ENDBRANCH  11  13
BRANCH  12  22
HETATM   22  N2    D T 298     -13.799   1.682  -5.060  1.00 17.20    -0.270 NA
BRANCH  22  23
HETATM   23  C11   D T 298     -14.446   1.306  -6.307  1.00 20.30     0.137 C 
HETATM   24  C18   D T 298     -15.934   0.938  -6.036  1.00 20.30     0.274 C 
HETATM   25  N5    D T 298     -16.197  -0.494  -6.504  1.00 20.30     0.139 N 
HETATM   26  C19   D T 298     -15.939  -0.605  -7.998  1.00 20.30     0.250 C 
HETATM   27  C21   D T 298     -15.310  -1.480  -5.750  1.00 20.30     0.250 C 
HETATM   28  C20   D T 298     -14.468  -0.257  -8.269  1.00 20.30     0.037 C 
HETATM   29  C23   D T 298     -13.735   0.087  -6.950  1.00 20.30     0.029 C 
HETATM   30  C22   D T 298     -13.842  -1.137  -6.019  1.00 20.30     0.037 C 
ENDBRANCH  22  23
ENDBRANCH  12  22
TORSDOF 3
ENDMDL
MODEL 3
REMARK VINA RESULT:    -8.006      3.185      7.364
REMARK INTER + INTRA:         -10.634
REMARK INTER:                  -9.517
REMARK INTRA:                  -1.117
REMARK UNBOUND:                -1.224
REMARK  3 active torsions:
REMARK  status: ('A' for Active; 'I' for Inactive)
REMARK    1  A    between atoms: C8_11  and  C9_12 
REMARK    2  A    between atoms: C10_13  and  N2_14 
REMARK    3  A    between atoms: N2_14  and  C11_15 
ROOT
HETATM    1  C1    D T 298     -13.482   7.547  -0.442  1.00 17.20     0.036 A 
HETATM    2  C2    D T 298     -14.053   7.364   0.835  1.00 17.20     0.014 A 
HETATM    3  C3    D T 298     -14.103   8.403   1.767  1.00 17.20     0.058 A 
HETATM    4 CL     D T 298     -14.817   8.121   3.304  1.00 17.20    -0.082 Cl
HETATM    5  C4    D T 298     -13.581   9.660   1.457  1.00 17.20     0.013 A 
HETATM    6  C5    D T 298     -13.008   9.877   0.192  1.00 17.20     0.020 A 
HETATM    7  C6    D T 298     -12.964   8.827  -0.743  1.00 17.20     0.086 A 
HETATM    8  N1    D T 298     -12.401   9.067  -2.004  1.00 17.20    -0.208 NA
HETATM    9  C7    D T 298     -12.321   8.113  -2.997  1.00 17.20     0.284 A 
HETATM   10  O1    D T 298     -11.814   8.383  -4.090  1.00 17.20    -0.265 OA
HETATM   11  C8    D T 298     -12.855   6.739  -2.688  1.00 17.20     0.111 A 
HETATM   12  C10   D T 298     -13.414   6.467  -1.467  1.00 17.20     0.085 A 
ENDROOT
BRANCH  11  13
HETATM   13  C9    D T 298     -12.807   5.686  -3.683  1.00 17.20     0.169 A 
HETATM   14  N3    D T 298     -13.773   5.237  -4.483  1.00 17.20    -0.225 NA
HETATM   15  C12   D T 298     -13.221   4.227  -5.228  1.00 17.20     0.101 A 
HETATM   16  C13   D T 298     -11.886   4.031  -4.882  1.00 17.20     0.101 A 
HETATM   17  C14   D T 298     -13.810   3.417  -6.225  1.00 17.20     0.021 A 
HETATM   18  N4    D T 298     -11.645   4.962  -3.902  1.00 17.20    -0.225 NA
HETATM   19  C17   D T 298     -11.074   3.058  -5.487  1.00 17.20     0.021 A 
HETATM   20  C16   D T 298     -11.676   2.259  -6.480  1.00 17.20     0.002 A 
HETATM   21  C15   D T 298     -13.021   2.433  -6.846  1.00 17.20     0.002 A 
ENDBRANCH  11  13
BRANCH  12  22
HETATM   22  N2    D T 298     -13.895   5.188  -1.171  1.00 17.20    -0.270 NA
BRANCH  22  23
HETATM   23  C11   D T 298     -15.165   4.535  -1.452  1.00 20.30     0.137 C 
HETATM   24  C18   D T 298     -16.312   5.586  -1.426  1.00 20.30     0.274 C 
HETATM   25  N5    D T 298     -17.352   5.179  -0.381  1.00 20.30     0.139 N 
HETATM   26  C19   D T 298     -17.946   3.827  -0.742  1.00 20.30     0.250 C 
HETATM   27  C21   D T 298     -16.724   5.116   1.009  1.00 20.30     0.250 C 
HETATM   28  C20   D T 298     -16.819   2.784  -0.753  1.00 20.30     0.037 C 
HETATM   29  C23   D T 298     -15.463   3.438  -0.396  1.00 20.30     0.029 C 
HETATM   30  C22   D T 298     -15.601   4.074   1.001  1.00 20.30     0.037 C 
ENDBRANCH  22  23
ENDBRANCH  12  22
TORSDOF 3
ENDMDL
MODEL 4
REMARK VINA RESULT:    -7.735      3.183      7.275
REMARK INTER + INTRA:         -10.316
REMARK INTER:                  -9.362
REMARK INTRA:                  -0.954
REMARK UNBOUND:                -1.224
REMARK  3 active torsions:
REMARK  status: ('A' for Active; 'I' for Inactive)
REMARK    1  A    between atoms: C8_11  and  C9_12 
REMARK    2  A    between atoms: C10_13  and  N2_14 
REMARK    3  A    between atoms: N2_14  and  C11_15 
ROOT
HETATM    1  C1    D T 298     -16.848   3.494  -0.006  1.00 17.20     0.036 A 
HETATM    2  C2    D T 298     -17.655   2.411  -0.415  1.00 17.20     0.014 A 
HETATM    3  C3    D T 298     -18.809   2.057   0.287  1.00 17.20     0.058 A 
HETATM    4 CL     D T 298     -19.754   0.731  -0.263  1.00 17.20    -0.082 Cl
HETATM    5  C4    D T 298     -19.197   2.769   1.423  1.00 17.20     0.013 A 
HETATM    6  C5    D T 298     -18.418   3.856   1.855  1.00 17.20     0.020 A 
HETATM    7  C6    D T 298     -17.258   4.210   1.142  1.00 17.20     0.086 A 
HETATM    8  N1    D T 298     -16.501   5.306   1.580  1.00 17.20    -0.208 NA
HETATM    9  C7    D T 298     -15.357   5.745   0.947  1.00 17.20     0.284 A 
HETATM   10  O1    D T 298     -14.733   6.718   1.380  1.00 17.20    -0.265 OA
HETATM   11  C8    D T 298     -14.899   4.985  -0.269  1.00 17.20     0.111 A 
HETATM   12  C10   D T 298     -15.612   3.909  -0.729  1.00 17.20     0.085 A 
ENDROOT
BRANCH  11  13
HETATM   13  C9    D T 298     -13.707   5.389  -0.989  1.00 17.20     0.169 A 
HETATM   14  N3    D T 298     -12.461   4.931  -0.881  1.00 17.20    -0.225 NA
HETATM   15  C12   D T 298     -11.706   5.650  -1.772  1.00 17.20     0.101 A 
HETATM   16  C13   D T 298     -12.491   6.584  -2.445  1.00 17.20     0.101 A 
HETATM   17  C14   D T 298     -10.325   5.565  -2.058  1.00 17.20     0.021 A 
HETATM   18  N4    D T 298     -13.752   6.403  -1.933  1.00 17.20    -0.225 NA
HETATM   19  C17   D T 298     -11.977   7.456  -3.417  1.00 17.20     0.021 A 
HETATM   20  C16   D T 298     -10.597   7.358  -3.691  1.00 17.20     0.002 A 
HETATM   21  C15   D T 298      -9.783   6.428  -3.026  1.00 17.20     0.002 A 
ENDBRANCH  11  13
BRANCH  12  22
HETATM   22  N2    D T 298     -15.180   3.192  -1.848  1.00 17.20    -0.270 NA
BRANCH  22  23
HETATM   23  C11   D T 298     -14.978   3.578  -3.236  1.00 20.30     0.137 C 
HETATM   24  C18   D T 298     -16.023   2.858  -4.138  1.00 20.30     0.274 C 
HETATM   25  N5    D T 298     -15.295   2.026  -5.195  1.00 20.30     0.139 N 
HETATM   26  C19   D T 298     -14.445   2.931  -6.071  1.00 20.30     0.250 C 
HETATM   27  C21   D T 298     -14.416   0.967  -4.536  1.00 20.30     0.250 C 
HETATM   28  C20   D T 298     -13.403   3.631  -5.187  1.00 20.30     0.037 C 
HETATM   29  C23   D T 298     -13.552   3.192  -3.711  1.00 20.30     0.029 C 
HETATM   30  C22   D T 298     -13.374   1.662  -3.655  1.00 20.30     0.037 C 
ENDBRANCH  22  23
ENDBRANCH  12  22
TORSDOF 3
ENDMDL
MODEL 5
REMARK VINA RESULT:    -7.698      2.100      4.656
REMARK INTER + INTRA:         -10.272
REMARK INTER:                  -9.091
REMARK INTRA:                  -1.181
REMARK UNBOUND:                -1.224
REMARK  3 active torsions:
REMARK  status: ('A' for Active; 'I' for Inactive)
REMARK    1  A    between atoms: C8_11  and  C9_12 
REMARK    2  A    between atoms: C10_13  and  N2_14 
REMARK    3  A    between atoms: N2_14  and  C11_15 
ROOT
HETATM    1  C1    D T 298     -12.340   4.855  -3.230  1.00 17.20     0.036 A 
HETATM    2  C2    D T 298     -11.701   4.523  -4.443  1.00 17.20     0.014 A 
HETATM    3  C3    D T 298     -10.357   4.830  -4.666  1.00 17.20     0.058 A 
HETATM    4 CL     D T 298      -9.631   4.394  -6.162  1.00 17.20    -0.082 Cl
HETATM    5  C4    D T 298      -9.605   5.483  -3.688  1.00 17.20     0.013 A 
HETATM    6  C5    D T 298     -10.210   5.825  -2.467  1.00 17.20     0.020 A 
HETATM    7  C6    D T 298     -11.564   5.510  -2.246  1.00 17.20     0.086 A 
HETATM    8  N1    D T 298     -12.146   5.847  -1.016  1.00 17.20    -0.208 NA
HETATM    9  C7    D T 298     -13.458   5.571  -0.694  1.00 17.20     0.284 A 
HETATM   10  O1    D T 298     -13.916   5.891   0.408  1.00 17.20    -0.265 OA
HETATM   11  C8    D T 298     -14.304   4.887  -1.735  1.00 17.20     0.111 A 
HETATM   12  C10   D T 298     -13.770   4.541  -2.949  1.00 17.20     0.085 A 
ENDROOT
BRANCH  11  13
HETATM   13  C9    D T 298     -15.691   4.563  -1.466  1.00 17.20     0.169 A 
HETATM   14  N3    D T 298     -16.778   5.317  -1.620  1.00 17.20    -0.225 NA
HETATM   15  C12   D T 298     -17.841   4.551  -1.215  1.00 17.20     0.101 A 
HETATM   16  C13   D T 298     -17.412   3.296  -0.790  1.00 17.20     0.101 A 
HETATM   17  C14   D T 298     -19.217   4.869  -1.174  1.00 17.20     0.021 A 
HETATM   18  N4    D T 298     -16.049   3.326  -0.955  1.00 17.20    -0.225 NA
HETATM   19  C17   D T 298     -18.290   2.306  -0.321  1.00 17.20     0.021 A 
HETATM   20  C16   D T 298     -19.660   2.639  -0.287  1.00 17.20     0.002 A 
HETATM   21  C15   D T 298     -20.119   3.897  -0.707  1.00 17.20     0.002 A 
ENDBRANCH  11  13
BRANCH  12  22
HETATM   22  N2    D T 298     -14.556   3.921  -3.924  1.00 17.20    -0.270 NA
BRANCH  22  23
HETATM   23  C11   D T 298     -14.916   2.529  -4.148  1.00 20.30     0.137 C 
HETATM   24  C18   D T 298     -13.715   1.612  -3.776  1.00 20.30     0.274 C 
HETATM   25  N5    D T 298     -13.318   0.776  -4.994  1.00 20.30     0.139 N 
HETATM   26  C19   D T 298     -14.483  -0.104  -5.419  1.00 20.30     0.250 C 
HETATM   27  C21   D T 298     -12.897   1.675  -6.152  1.00 20.30     0.250 C 
HETATM   28  C20   D T 298     -15.665   0.799  -5.801  1.00 20.30     0.037 C 
HETATM   29  C23   D T 298     -15.291   2.291  -5.634  1.00 20.30     0.029 C 
HETATM   30  C22   D T 298     -14.075   2.576  -6.537  1.00 20.30     0.037 C 
ENDBRANCH  22  23
ENDBRANCH  12  22
TORSDOF 3
ENDMDL
MODEL 6
REMARK VINA RESULT:    -7.665      2.935      5.881
REMARK INTER + INTRA:         -10.234
REMARK INTER:                  -9.203
REMARK INTRA:                  -1.031
REMARK UNBOUND:                -1.224
REMARK  3 active torsions:
REMARK  status: ('A' for Active; 'I' for Inactive)
REMARK    1  A    between atoms: C8_11  and  C9_12 
REMARK    2  A    between atoms: C10_13  and  N2_14 
REMARK    3  A    between atoms: N2_14  and  C11_15 
ROOT
HETATM    1  C1    D T 298     -12.588   1.567  -6.966  1.00 17.20     0.036 A 
HETATM    2  C2    D T 298     -12.631   0.584  -7.977  1.00 17.20     0.014 A 
HETATM    3  C3    D T 298     -11.519   0.313  -8.777  1.00 17.20     0.058 A 
HETATM    4 CL     D T 298     -11.630  -0.901  -9.989  1.00 17.20    -0.082 Cl
HETATM    5  C4    D T 298     -10.326   1.016  -8.598  1.00 17.20     0.013 A 
HETATM    6  C5    D T 298     -10.249   1.999  -7.597  1.00 17.20     0.020 A 
HETATM    7  C6    D T 298     -11.372   2.266  -6.792  1.00 17.20     0.086 A 
HETATM    8  N1    D T 298     -11.271   3.241  -5.790  1.00 17.20    -0.208 NA
HETATM    9  C7    D T 298     -12.305   3.568  -4.939  1.00 17.20     0.284 A 
HETATM   10  O1    D T 298     -12.156   4.436  -4.073  1.00 17.20    -0.265 OA
HETATM   11  C8    D T 298     -13.613   2.844  -5.119  1.00 17.20     0.111 A 
HETATM   12  C10   D T 298     -13.750   1.884  -6.087  1.00 17.20     0.085 A 
ENDROOT
BRANCH  11  13
HETATM   13  C9    D T 298     -14.743   3.134  -4.260  1.00 17.20     0.169 A 
HETATM   14  N3    D T 298     -15.880   3.767  -4.546  1.00 17.20    -0.225 NA
HETATM   15  C12   D T 298     -16.614   3.789  -3.387  1.00 17.20     0.101 A 
HETATM   16  C13   D T 298     -15.921   3.165  -2.352  1.00 17.20     0.101 A 
HETATM   17  C14   D T 298     -17.892   4.337  -3.140  1.00 17.20     0.021 A 
HETATM   18  N4    D T 298     -14.740   2.761  -2.925  1.00 17.20    -0.225 NA
HETATM   19  C17   D T 298     -16.436   3.043  -1.052  1.00 17.20     0.021 A 
HETATM   20  C16   D T 298     -17.713   3.595  -0.822  1.00 17.20     0.002 A 
HETATM   21  C15   D T 298     -18.432   4.231  -1.847  1.00 17.20     0.002 A 
ENDBRANCH  11  13
BRANCH  12  22
HETATM   22  N2    D T 298     -14.967   1.221  -6.268  1.00 17.20    -0.270 NA
BRANCH  22  23
HETATM   23  C11   D T 298     -15.549   0.055  -5.621  1.00 20.30     0.137 C 
HETATM   24  C18   D T 298     -14.464  -1.049  -5.457  1.00 20.30     0.274 C 
HETATM   25  N5    D T 298     -14.923  -2.323  -6.168  1.00 20.30     0.139 N 
HETATM   26  C19   D T 298     -16.217  -2.824  -5.547  1.00 20.30     0.250 C 
HETATM   27  C21   D T 298     -15.127  -2.066  -7.658  1.00 20.30     0.250 C 
HETATM   28  C20   D T 298     -17.294  -1.743  -5.721  1.00 20.30     0.037 C 
HETATM   29  C23   D T 298     -16.721  -0.513  -6.464  1.00 20.30     0.029 C 
HETATM   30  C22   D T 298     -16.203  -0.989  -7.834  1.00 20.30     0.037 C 
ENDBRANCH  22  23
ENDBRANCH  12  22
TORSDOF 3
ENDMDL
MODEL 7
REMARK VINA RESULT:    -7.662      2.529      4.904
REMARK INTER + INTRA:         -10.230
REMARK INTER:                 -10.187
REMARK INTRA:                  -0.044
REMARK UNBOUND:                -1.224
REMARK  3 active torsions:
REMARK  status: ('A' for Active; 'I' for Inactive)
REMARK    1  A    between atoms: C8_11  and  C9_12 
REMARK    2  A    between atoms: C10_13  and  N2_14 
REMARK    3  A    between atoms: N2_14  and  C11_15 
ROOT
HETATM    1  C1    D T 298     -12.654   5.777  -1.933  1.00 17.20     0.036 A 
HETATM    2  C2    D T 298     -11.848   5.036  -2.823  1.00 17.20     0.014 A 
HETATM    3  C3    D T 298     -10.751   5.614  -3.465  1.00 17.20     0.058 A 
HETATM    4 CL     D T 298      -9.803   4.658  -4.534  1.00 17.20    -0.082 Cl
HETATM    5  C4    D T 298     -10.421   6.952  -3.244  1.00 17.20     0.013 A 
HETATM    6  C5    D T 298     -11.201   7.717  -2.360  1.00 17.20     0.020 A 
HETATM    7  C6    D T 298     -12.303   7.129  -1.713  1.00 17.20     0.086 A 
HETATM    8  N1    D T 298     -13.061   7.905  -0.825  1.00 17.20    -0.208 NA
HETATM    9  C7    D T 298     -14.150   7.423  -0.130  1.00 17.20     0.284 A 
HETATM   10  O1    D T 298     -14.779   8.154   0.641  1.00 17.20    -0.265 OA
HETATM   11  C8    D T 298     -14.547   5.989  -0.362  1.00 17.20     0.111 A 
HETATM   12  C10   D T 298     -13.830   5.198  -1.223  1.00 17.20     0.085 A 
ENDROOT
BRANCH  11  13
HETATM   13  C9    D T 298     -15.679   5.412   0.334  1.00 17.20     0.169 A 
HETATM   14  N3    D T 298     -15.742   4.899   1.562  1.00 17.20    -0.225 NA
HETATM   15  C12   D T 298     -17.035   4.477   1.740  1.00 17.20     0.101 A 
HETATM   16  C13   D T 298     -17.796   4.721   0.599  1.00 17.20     0.101 A 
HETATM   17  C14   D T 298     -17.636   3.861   2.861  1.00 17.20     0.021 A 
HETATM   18  N4    D T 298     -16.918   5.311  -0.278  1.00 17.20    -0.225 NA
HETATM   19  C17   D T 298     -19.156   4.389   0.501  1.00 17.20     0.021 A 
HETATM   20  C16   D T 298     -19.741   3.777   1.629  1.00 17.20     0.002 A 
HETATM   21  C15   D T 298     -18.997   3.517   2.790  1.00 17.20     0.002 A 
ENDBRANCH  11  13
BRANCH  12  22
HETATM   22  N2    D T 298     -14.205   3.872  -1.453  1.00 17.20    -0.270 NA
BRANCH  22  23
HETATM   23  C11   D T 298     -15.207   3.279  -2.326  1.00 20.30     0.137 C 
HETATM   24  C18   D T 298     -14.526   2.269  -3.295  1.00 20.30     0.274 C 
HETATM   25  N5    D T 298     -14.805   2.686  -4.740  1.00 20.30     0.139 N 
HETATM   26  C19   D T 298     -16.302   2.670  -5.003  1.00 20.30     0.250 C 
HETATM   27  C21   D T 298     -14.243   4.076  -5.020  1.00 20.30     0.250 C 
HETATM   28  C20   D T 298     -16.976   3.677  -4.059  1.00 20.30     0.037 C 
HETATM   29  C23   D T 298     -15.925   4.372  -3.160  1.00 20.30     0.029 C 
HETATM   30  C22   D T 298     -14.915   5.082  -4.080  1.00 20.30     0.037 C 
ENDBRANCH  22  23
ENDBRANCH  12  22
TORSDOF 3
ENDMDL
MODEL 8
REMARK VINA RESULT:    -7.528      2.606      4.990
REMARK INTER + INTRA:         -10.073
REMARK INTER:                  -8.903
REMARK INTRA:                  -1.170
REMARK UNBOUND:                -1.224
REMARK  3 active torsions:
REMARK  status: ('A' for Active; 'I' for Inactive)
REMARK    1  A    between atoms: C8_11  and  C9_12 
REMARK    2  A    between atoms: C10_13  and  N2_14 
REMARK    3  A    between atoms: N2_14  and  C11_15 
ROOT
HETATM    1  C1    D T 298     -13.666   3.296  -4.447  1.00 17.20     0.036 A 
HETATM    2  C2    D T 298     -14.068   2.379  -5.441  1.00 17.20     0.014 A 
HETATM    3  C3    D T 298     -13.245   2.076  -6.527  1.00 17.20     0.058 A 
HETATM    4 CL     D T 298     -13.788   0.946  -7.703  1.00 17.20    -0.082 Cl
HETATM    5  C4    D T 298     -11.994   2.679  -6.662  1.00 17.20     0.013 A 
HETATM    6  C5    D T 298     -11.561   3.594  -5.687  1.00 17.20     0.020 A 
HETATM    7  C6    D T 298     -12.393   3.894  -4.593  1.00 17.20     0.086 A 
HETATM    8  N1    D T 298     -11.938   4.799  -3.624  1.00 17.20    -0.208 NA
HETATM    9  C7    D T 298     -12.667   5.151  -2.507  1.00 17.20     0.284 A 
HETATM   10  O1    D T 298     -12.213   5.953  -1.687  1.00 17.20    -0.265 OA
HETATM   11  C8    D T 298     -14.031   4.535  -2.343  1.00 17.20     0.111 A 
HETATM   12  C10   D T 298     -14.510   3.645  -3.269  1.00 17.20     0.085 A 
ENDROOT
BRANCH  11  13
HETATM   13  C9    D T 298     -14.854   4.855  -1.193  1.00 17.20     0.169 A 
HETATM   14  N3    D T 298     -15.097   4.130  -0.102  1.00 17.20    -0.225 NA
HETATM   15  C12   D T 298     -15.946   4.875   0.676  1.00 17.20     0.101 A 
HETATM   16  C13   D T 298     -16.248   6.086   0.058  1.00 17.20     0.101 A 
HETATM   17  C14   D T 298     -16.512   4.574   1.935  1.00 17.20     0.021 A 
HETATM   18  N4    D T 298     -15.550   6.052  -1.124  1.00 17.20    -0.225 NA
HETATM   19  C17   D T 298     -17.097   7.046   0.632  1.00 17.20     0.021 A 
HETATM   20  C16   D T 298     -17.653   6.731   1.889  1.00 17.20     0.002 A 
HETATM   21  C15   D T 298     -17.367   5.516   2.532  1.00 17.20     0.002 A 
ENDBRANCH  11  13
BRANCH  12  22
HETATM   22  N2    D T 298     -15.783   3.084  -3.128  1.00 17.20    -0.270 NA
BRANCH  22  23
HETATM   23  C11   D T 298     -17.118   3.652  -3.239  1.00 20.30     0.137 C 
HETATM   24  C18   D T 298     -18.116   2.815  -2.389  1.00 20.30     0.274 C 
HETATM   25  N5    D T 298     -19.234   2.288  -3.291  1.00 20.30     0.139 N 
HETATM   26  C19   D T 298     -19.989   3.452  -3.912  1.00 20.30     0.250 C 
HETATM   27  C21   D T 298     -18.666   1.393  -4.388  1.00 20.30     0.250 C 
HETATM   28  C20   D T 298     -19.010   4.273  -4.764  1.00 20.30     0.037 C 
HETATM   29  C23   D T 298     -17.592   3.655  -4.717  1.00 20.30     0.029 C 
HETATM   30  C22   D T 298     -17.690   2.210  -5.241  1.00 20.30     0.037 C 
ENDBRANCH  22  23
ENDBRANCH  12  22
TORSDOF 3
ENDMDL
MODEL 9
REMARK VINA RESULT:    -7.153      2.755      6.409
REMARK INTER + INTRA:          -9.631
REMARK INTER:                  -8.953
REMARK INTRA:                  -0.678
REMARK UNBOUND:                -1.224
REMARK  3 active torsions:
REMARK  status: ('A' for Active; 'I' for Inactive)
REMARK    1  A    between atoms: C8_11  and  C9_12 
REMARK    2  A    between atoms: C10_13  and  N2_14 
REMARK    3  A    between atoms: N2_14  and  C11_15 
ROOT
HETATM    1  C1    D T 298     -17.413   3.762  -1.374  1.00 17.20     0.036 A 
HETATM    2  C2    D T 298     -17.171   3.906   0.008  1.00 17.20     0.014 A 
HETATM    3  C3    D T 298     -18.192   4.255   0.894  1.00 17.20     0.058 A 
HETATM    4 CL     D T 298     -17.837   4.410   2.569  1.00 17.20    -0.082 Cl
HETATM    5  C4    D T 298     -19.491   4.475   0.431  1.00 17.20     0.013 A 
HETATM    6  C5    D T 298     -19.767   4.336  -0.940  1.00 17.20     0.020 A 
HETATM    7  C6    D T 298     -18.734   3.981  -1.827  1.00 17.20     0.086 A 
HETATM    8  N1    D T 298     -19.032   3.834  -3.189  1.00 17.20    -0.208 NA
HETATM    9  C7    D T 298     -18.099   3.476  -4.139  1.00 17.20     0.284 A 
HETATM   10  O1    D T 298     -18.421   3.360  -5.325  1.00 17.20    -0.265 OA
HETATM   11  C8    D T 298     -16.684   3.252  -3.677  1.00 17.20     0.111 A 
HETATM   12  C10   D T 298     -16.354   3.386  -2.353  1.00 17.20     0.085 A 
ENDROOT
BRANCH  11  13
HETATM   13  C9    D T 298     -15.649   2.871  -4.617  1.00 17.20     0.169 A 
HETATM   14  N3    D T 298     -14.826   3.644  -5.325  1.00 17.20    -0.225 NA
HETATM   15  C12   D T 298     -14.046   2.798  -6.071  1.00 17.20     0.101 A 
HETATM   16  C13   D T 298     -14.391   1.469  -5.834  1.00 17.20     0.101 A 
HETATM   17  C14   D T 298     -13.015   3.098  -6.989  1.00 17.20     0.021 A 
HETATM   18  N4    D T 298     -15.408   1.539  -4.914  1.00 17.20    -0.225 NA
HETATM   19  C17   D T 298     -13.754   0.390  -6.465  1.00 17.20     0.021 A 
HETATM   20  C16   D T 298     -12.727   0.706  -7.378  1.00 17.20     0.002 A 
HETATM   21  C15   D T 298     -12.361   2.036  -7.637  1.00 17.20     0.002 A 
ENDBRANCH  11  13
BRANCH  12  22
HETATM   22  N2    D T 298     -15.038   3.195  -1.923  1.00 17.20    -0.270 NA
BRANCH  22  23
HETATM   23  C11   D T 298     -13.810   3.933  -2.181  1.00 20.30     0.137 C 
HETATM   24  C18   D T 298     -12.892   3.878  -0.925  1.00 20.30     0.274 C 
HETATM   25  N5    D T 298     -12.594   5.301  -0.450  1.00 20.30     0.139 N 
HETATM   26  C19   D T 298     -11.869   6.070  -1.543  1.00 20.30     0.250 C 
HETATM   27  C21   D T 298     -13.883   6.025  -0.073  1.00 20.30     0.250 C 
HETATM   28  C20   D T 298     -12.778   6.139  -2.779  1.00 20.30     0.037 C 
HETATM   29  C23   D T 298     -14.121   5.417  -2.513  1.00 20.30     0.029 C 
HETATM   30  C22   D T 298     -14.791   6.098  -1.305  1.00 20.30     0.037 C 
ENDBRANCH  22  23
ENDBRANCH  12  22
TORSDOF 3
ENDMDL
