MODEL 1
REMARK VINA RESULT:    -8.969      0.000      0.000
REMARK INTER + INTRA:         -11.265
REMARK INTER:                 -10.542
REMARK INTRA:                  -0.724
REMARK UNBOUND:                -0.724
REMARK  3 active torsions:
REMARK  status: ('A' for Active; 'I' for Inactive)
REMARK    1  A    between atoms: C8_11  and  C9_12 
REMARK    2  A    between atoms: C10_13  and  N2_14 
REMARK    3  A    between atoms: N2_14  and  C11_15 
ROOT
HETATM    1  C1    D T 298       1.546   5.901   8.165  1.00 17.20     0.036 A 
HETATM    2  C2    D T 298       1.467   6.993   7.272  1.00 17.20     0.014 A 
HETATM    3  C3    D T 298       0.277   7.314   6.616  1.00 17.20     0.058 A 
HETATM    4 CL     D T 298       0.242   8.659   5.548  1.00 17.20    -0.082 Cl
HETATM    5  C4    D T 298      -0.877   6.555   6.825  1.00 17.20     0.013 A 
HETATM    6  C5    D T 298      -0.834   5.464   7.709  1.00 17.20     0.020 A 
HETATM    7  C6    D T 298       0.368   5.147   8.369  1.00 17.20     0.086 A 
HETATM    8  N1    D T 298       0.386   4.063   9.259  1.00 17.20    -0.208 NA
HETATM    9  C7    D T 298       1.506   3.677   9.966  1.00 17.20     0.284 A 
HETATM   10  O1    D T 298       1.461   2.713  10.737  1.00 17.20    -0.265 OA
HETATM   11  C8    D T 298       2.773   4.461   9.748  1.00 17.20     0.111 A 
HETATM   12  C10   D T 298       2.793   5.528   8.889  1.00 17.20     0.085 A 
ENDROOT
BRANCH  11  13
HETATM   13  C9    D T 298       3.987   4.116  10.459  1.00 17.20     0.169 A 
HETATM   14  N3    D T 298       5.153   3.683   9.978  1.00 17.20    -0.225 NA
HETATM   15  C12   D T 298       5.972   3.490  11.061  1.00 17.20     0.101 A 
HETATM   16  C13   D T 298       5.306   3.800  12.246  1.00 17.20     0.101 A 
HETATM   17  C14   D T 298       7.310   3.042  11.111  1.00 17.20     0.021 A 
HETATM   18  N4    D T 298       4.053   4.191  11.842  1.00 17.20    -0.225 NA
HETATM   19  C17   D T 298       5.906   3.694  13.510  1.00 17.20     0.021 A 
HETATM   20  C16   D T 298       7.242   3.244  13.541  1.00 17.20     0.002 A 
HETATM   21  C15   D T 298       7.935   2.924  12.364  1.00 17.20     0.002 A 
ENDBRANCH  11  13
BRANCH  12  22
HETATM   22  N2    D T 298       3.972   6.247   8.672  1.00 17.20    -0.270 NA
BRANCH  22  23
HETATM   23  C11   D T 298       5.039   6.101   7.692  1.00 20.30     0.137 C 
HETATM   24  C18   D T 298       6.373   6.636   8.288  1.00 20.30     0.274 C 
HETATM   25  N5    D T 298       6.918   7.751   7.393  1.00 20.30     0.139 N 
HETATM   26  C19   D T 298       7.196   7.209   6.001  1.00 20.30     0.250 C 
HETATM   27  C21   D T 298       5.928   8.909   7.312  1.00 20.30     0.250 C 
HETATM   28  C20   D T 298       5.878   6.693   5.404  1.00 20.30     0.037 C 
HETATM   29  C23   D T 298       4.710   6.894   6.400  1.00 20.30     0.029 C 
HETATM   30  C22   D T 298       4.613   8.398   6.715  1.00 20.30     0.037 C 
ENDBRANCH  22  23
ENDBRANCH  12  22
TORSDOF 3
ENDMDL
MODEL 2
REMARK VINA RESULT:    -8.606      2.492      6.409
REMARK INTER + INTRA:         -10.839
REMARK INTER:                 -10.337
REMARK INTRA:                  -0.502
REMARK UNBOUND:                -0.724
REMARK  3 active torsions:
REMARK  status: ('A' for Active; 'I' for Inactive)
REMARK    1  A    between atoms: C8_11  and  C9_12 
REMARK    2  A    between atoms: C10_13  and  N2_14 
REMARK    3  A    between atoms: N2_14  and  C11_15 
ROOT
HETATM    1  C1    D T 298       5.116   4.936   9.240  1.00 17.20     0.036 A 
HETATM    2  C2    D T 298       6.499   4.878   8.964  1.00 17.20     0.014 A 
HETATM    3  C3    D T 298       7.402   4.323   9.872  1.00 17.20     0.058 A 
HETATM    4 CL     D T 298       9.073   4.275   9.475  1.00 17.20    -0.082 Cl
HETATM    5  C4    D T 298       6.957   3.807  11.092  1.00 17.20     0.013 A 
HETATM    6  C5    D T 298       5.587   3.845  11.397  1.00 17.20     0.020 A 
HETATM    7  C6    D T 298       4.681   4.404  10.477  1.00 17.20     0.086 A 
HETATM    8  N1    D T 298       3.316   4.419  10.794  1.00 17.20    -0.208 NA
HETATM    9  C7    D T 298       2.344   4.930   9.957  1.00 17.20     0.284 A 
HETATM   10  O1    D T 298       1.155   4.915  10.291  1.00 17.20    -0.265 OA
HETATM   11  C8    D T 298       2.792   5.513   8.644  1.00 17.20     0.111 A 
HETATM   12  C10   D T 298       4.118   5.514   8.297  1.00 17.20     0.085 A 
ENDROOT
BRANCH  11  13
HETATM   13  C9    D T 298       1.829   6.065   7.713  1.00 17.20     0.169 A 
HETATM   14  N3    D T 298       1.832   7.245   7.095  1.00 17.20    -0.225 NA
HETATM   15  C12   D T 298       0.694   7.287   6.331  1.00 17.20     0.101 A 
HETATM   16  C13   D T 298      -0.043   6.113   6.477  1.00 17.20     0.101 A 
HETATM   17  C14   D T 298       0.215   8.309   5.481  1.00 17.20     0.021 A 
HETATM   18  N4    D T 298       0.692   5.356   7.356  1.00 17.20    -0.225 NA
HETATM   19  C17   D T 298      -1.256   5.883   5.809  1.00 17.20     0.021 A 
HETATM   20  C16   D T 298      -1.719   6.914   4.965  1.00 17.20     0.002 A 
HETATM   21  C15   D T 298      -0.997   8.107   4.801  1.00 17.20     0.002 A 
ENDBRANCH  11  13
BRANCH  12  22
HETATM   22  N2    D T 298       4.539   6.070   7.086  1.00 17.20    -0.270 NA
BRANCH  22  23
HETATM   23  C11   D T 298       5.622   6.985   6.756  1.00 20.30     0.137 C 
HETATM   24  C18   D T 298       5.286   8.407   7.291  1.00 20.30     0.274 C 
HETATM   25  N5    D T 298       5.287   9.401   6.128  1.00 20.30     0.139 N 
HETATM   26  C19   D T 298       6.662   9.442   5.483  1.00 20.30     0.250 C 
HETATM   27  C21   D T 298       4.237   9.017   5.090  1.00 20.30     0.250 C 
HETATM   28  C20   D T 298       6.991   8.043   4.940  1.00 20.30     0.037 C 
HETATM   29  C23   D T 298       5.829   7.060   5.220  1.00 20.30     0.029 C 
HETATM   30  C22   D T 298       4.564   7.623   4.545  1.00 20.30     0.037 C 
ENDBRANCH  22  23
ENDBRANCH  12  22
TORSDOF 3
ENDMDL
MODEL 3
REMARK VINA RESULT:    -8.604      2.407      3.383
REMARK INTER + INTRA:         -10.837
REMARK INTER:                  -9.757
REMARK INTRA:                  -1.080
REMARK UNBOUND:                -0.724
REMARK  3 active torsions:
REMARK  status: ('A' for Active; 'I' for Inactive)
REMARK    1  A    between atoms: C8_11  and  C9_12 
REMARK    2  A    between atoms: C10_13  and  N2_14 
REMARK    3  A    between atoms: N2_14  and  C11_15 
ROOT
HETATM    1  C1    D T 298       2.417   6.215   7.871  1.00 17.20     0.036 A 
HETATM    2  C2    D T 298       1.561   7.073   7.147  1.00 17.20     0.014 A 
HETATM    3  C3    D T 298       0.173   7.008   7.289  1.00 17.20     0.058 A 
HETATM    4 CL     D T 298      -0.816   8.084   6.387  1.00 17.20    -0.082 Cl
HETATM    5  C4    D T 298      -0.410   6.082   8.157  1.00 17.20     0.013 A 
HETATM    6  C5    D T 298       0.414   5.216   8.895  1.00 17.20     0.020 A 
HETATM    7  C6    D T 298       1.811   5.288   8.749  1.00 17.20     0.086 A 
HETATM    8  N1    D T 298       2.616   4.424   9.506  1.00 17.20    -0.208 NA
HETATM    9  C7    D T 298       3.995   4.422   9.449  1.00 17.20     0.284 A 
HETATM   10  O1    D T 298       4.652   3.638  10.140  1.00 17.20    -0.265 OA
HETATM   11  C8    D T 298       4.655   5.394   8.507  1.00 17.20     0.111 A 
HETATM   12  C10   D T 298       3.902   6.255   7.753  1.00 17.20     0.085 A 
ENDROOT
BRANCH  11  13
HETATM   13  C9    D T 298       6.099   5.451   8.396  1.00 17.20     0.169 A 
HETATM   14  N3    D T 298       6.945   4.544   7.909  1.00 17.20    -0.225 NA
HETATM   15  C12   D T 298       8.202   5.075   8.041  1.00 17.20     0.101 A 
HETATM   16  C13   D T 298       8.146   6.338   8.629  1.00 17.20     0.101 A 
HETATM   17  C14   D T 298       9.454   4.529   7.682  1.00 17.20     0.021 A 
HETATM   18  N4    D T 298       6.808   6.554   8.847  1.00 17.20    -0.225 NA
HETATM   19  C17   D T 298       9.288   7.113   8.885  1.00 17.20     0.021 A 
HETATM   20  C16   D T 298      10.529   6.552   8.521  1.00 17.20     0.002 A 
HETATM   21  C15   D T 298      10.614   5.282   7.929  1.00 17.20     0.002 A 
ENDBRANCH  11  13
BRANCH  12  22
HETATM   22  N2    D T 298       4.511   7.147   6.866  1.00 17.20    -0.270 NA
BRANCH  22  23
HETATM   23  C11   D T 298       4.670   7.129   5.419  1.00 20.30     0.137 C 
HETATM   24  C18   D T 298       6.178   7.249   5.057  1.00 20.30     0.274 C 
HETATM   25  N5    D T 298       6.391   8.478   4.170  1.00 20.30     0.139 N 
HETATM   26  C19   D T 298       5.598   8.331   2.882  1.00 20.30     0.250 C 
HETATM   27  C21   D T 298       5.968   9.749   4.900  1.00 20.30     0.250 C 
HETATM   28  C20   D T 298       4.107   8.226   3.235  1.00 20.30     0.037 C 
HETATM   29  C23   D T 298       3.899   8.307   4.766  1.00 20.30     0.029 C 
HETATM   30  C22   D T 298       4.480   9.649   5.250  1.00 20.30     0.037 C 
ENDBRANCH  22  23
ENDBRANCH  12  22
TORSDOF 3
ENDMDL
MODEL 4
REMARK VINA RESULT:    -8.521      3.901      7.069
REMARK INTER + INTRA:         -10.739
REMARK INTER:                  -9.321
REMARK INTRA:                  -1.418
REMARK UNBOUND:                -0.724
REMARK  3 active torsions:
REMARK  status: ('A' for Active; 'I' for Inactive)
REMARK    1  A    between atoms: C8_11  and  C9_12 
REMARK    2  A    between atoms: C10_13  and  N2_14 
REMARK    3  A    between atoms: N2_14  and  C11_15 
ROOT
HETATM    1  C1    D T 298       1.005   6.218   7.479  1.00 17.20     0.036 A 
HETATM    2  C2    D T 298       1.661   5.597   8.564  1.00 17.20     0.014 A 
HETATM    3  C3    D T 298       1.017   4.645   9.357  1.00 17.20     0.058 A 
HETATM    4 CL     D T 298       1.870   3.919  10.659  1.00 17.20    -0.082 Cl
HETATM    5  C4    D T 298      -0.306   4.280   9.097  1.00 17.20     0.013 A 
HETATM    6  C5    D T 298      -0.986   4.875   8.022  1.00 17.20     0.020 A 
HETATM    7  C6    D T 298      -0.332   5.833   7.225  1.00 17.20     0.086 A 
HETATM    8  N1    D T 298      -1.024   6.405   6.149  1.00 17.20    -0.208 NA
HETATM    9  C7    D T 298      -0.471   7.341   5.298  1.00 17.20     0.284 A 
HETATM   10  O1    D T 298      -1.130   7.810   4.365  1.00 17.20    -0.265 OA
HETATM   11  C8    D T 298       0.947   7.772   5.564  1.00 17.20     0.111 A 
HETATM   12  C10   D T 298       1.656   7.234   6.605  1.00 17.20     0.085 A 
ENDROOT
BRANCH  11  13
HETATM   13  C9    D T 298       1.595   8.749   4.712  1.00 17.20     0.169 A 
HETATM   14  N3    D T 298       1.607  10.078   4.808  1.00 17.20    -0.225 NA
HETATM   15  C12   D T 298       2.351  10.537   3.752  1.00 17.20     0.101 A 
HETATM   16  C13   D T 298       2.808   9.476   2.971  1.00 17.20     0.101 A 
HETATM   17  C14   D T 298       2.677  11.862   3.386  1.00 17.20     0.021 A 
HETATM   18  N4    D T 298       2.317   8.356   3.595  1.00 17.20    -0.225 NA
HETATM   19  C17   D T 298       3.595   9.656   1.823  1.00 17.20     0.021 A 
HETATM   20  C16   D T 298       3.911  10.985   1.473  1.00 17.20     0.002 A 
HETATM   21  C15   D T 298       3.462  12.071   2.240  1.00 17.20     0.002 A 
ENDBRANCH  11  13
BRANCH  12  22
HETATM   22  N2    D T 298       2.967   7.644   6.865  1.00 17.20    -0.270 NA
BRANCH  22  23
HETATM   23  C11   D T 298       4.249   6.970   6.716  1.00 20.30     0.137 C 
HETATM   24  C18   D T 298       5.086   7.146   8.015  1.00 20.30     0.274 C 
HETATM   25  N5    D T 298       6.414   7.826   7.675  1.00 20.30     0.139 N 
HETATM   26  C19   D T 298       7.205   6.963   6.707  1.00 20.30     0.250 C 
HETATM   27  C21   D T 298       6.174   9.204   7.067  1.00 20.30     0.250 C 
HETATM   28  C20   D T 298       6.387   6.799   5.417  1.00 20.30     0.037 C 
HETATM   29  C23   D T 298       5.043   7.559   5.521  1.00 20.30     0.029 C 
HETATM   30  C22   D T 298       5.361   9.044   5.779  1.00 20.30     0.037 C 
ENDBRANCH  22  23
ENDBRANCH  12  22
TORSDOF 3
ENDMDL
MODEL 5
REMARK VINA RESULT:    -8.453      3.685      6.962
REMARK INTER + INTRA:         -10.659
REMARK INTER:                  -9.628
REMARK INTRA:                  -1.032
REMARK UNBOUND:                -0.724
REMARK  3 active torsions:
REMARK  status: ('A' for Active; 'I' for Inactive)
REMARK    1  A    between atoms: C8_11  and  C9_12 
REMARK    2  A    between atoms: C10_13  and  N2_14 
REMARK    3  A    between atoms: N2_14  and  C11_15 
ROOT
HETATM    1  C1    D T 298       2.522   6.474   7.805  1.00 17.20     0.036 A 
HETATM    2  C2    D T 298       3.167   5.677   8.775  1.00 17.20     0.014 A 
HETATM    3  C3    D T 298       2.441   4.891   9.672  1.00 17.20     0.058 A 
HETATM    4 CL     D T 298       3.284   3.935  10.825  1.00 17.20    -0.082 Cl
HETATM    5  C4    D T 298       1.045   4.874   9.635  1.00 17.20     0.013 A 
HETATM    6  C5    D T 298       0.372   5.653   8.680  1.00 17.20     0.020 A 
HETATM    7  C6    D T 298       1.108   6.442   7.777  1.00 17.20     0.086 A 
HETATM    8  N1    D T 298       0.418   7.202   6.822  1.00 17.20    -0.208 NA
HETATM    9  C7    D T 298       1.043   7.996   5.883  1.00 17.20     0.284 A 
HETATM   10  O1    D T 298       0.382   8.643   5.065  1.00 17.20    -0.265 OA
HETATM   11  C8    D T 298       2.548   8.053   5.909  1.00 17.20     0.111 A 
HETATM   12  C10   D T 298       3.257   7.323   6.826  1.00 17.20     0.085 A 
ENDROOT
BRANCH  11  13
HETATM   13  C9    D T 298       3.274   8.864   4.952  1.00 17.20     0.169 A 
HETATM   14  N3    D T 298       3.319  10.190   4.831  1.00 17.20    -0.225 NA
HETATM   15  C12   D T 298       4.137  10.455   3.764  1.00 17.20     0.101 A 
HETATM   16  C13   D T 298       4.610   9.272   3.197  1.00 17.20     0.101 A 
HETATM   17  C14   D T 298       4.523  11.696   3.209  1.00 17.20     0.021 A 
HETATM   18  N4    D T 298       4.050   8.280   3.962  1.00 17.20    -0.225 NA
HETATM   19  C17   D T 298       5.469   9.246   2.087  1.00 17.20     0.021 A 
HETATM   20  C16   D T 298       5.843  10.493   1.546  1.00 17.20     0.002 A 
HETATM   21  C15   D T 298       5.381  11.699   2.096  1.00 17.20     0.002 A 
ENDBRANCH  11  13
BRANCH  12  22
HETATM   22  N2    D T 298       4.653   7.387   6.863  1.00 17.20    -0.270 NA
BRANCH  22  23
HETATM   23  C11   D T 298       5.575   8.100   7.736  1.00 20.30     0.137 C 
HETATM   24  C18   D T 298       6.126   9.355   7.000  1.00 20.30     0.274 C 
HETATM   25  N5    D T 298       7.653   9.276   6.935  1.00 20.30     0.139 N 
HETATM   26  C19   D T 298       8.230   9.250   8.340  1.00 20.30     0.250 C 
HETATM   27  C21   D T 298       8.096   8.034   6.168  1.00 20.30     0.250 C 
HETATM   28  C20   D T 298       7.699   8.004   9.065  1.00 20.30     0.037 C 
HETATM   29  C23   D T 298       6.764   7.190   8.140  1.00 20.30     0.029 C 
HETATM   30  C22   D T 298       7.571   6.790   6.890  1.00 20.30     0.037 C 
ENDBRANCH  22  23
ENDBRANCH  12  22
TORSDOF 3
ENDMDL
MODEL 6
REMARK VINA RESULT:    -8.176      3.152      6.366
REMARK INTER + INTRA:         -10.334
REMARK INTER:                  -9.458
REMARK INTRA:                  -0.876
REMARK UNBOUND:                -0.724
REMARK  3 active torsions:
REMARK  status: ('A' for Active; 'I' for Inactive)
REMARK    1  A    between atoms: C8_11  and  C9_12 
REMARK    2  A    between atoms: C10_13  and  N2_14 
REMARK    3  A    between atoms: N2_14  and  C11_15 
ROOT
HETATM    1  C1    D T 298       2.415   6.205   7.758  1.00 17.20     0.036 A 
HETATM    2  C2    D T 298       2.613   5.187   8.716  1.00 17.20     0.014 A 
HETATM    3  C3    D T 298       1.543   4.628   9.417  1.00 17.20     0.058 A 
HETATM    4 CL     D T 298       1.846   3.386  10.565  1.00 17.20    -0.082 Cl
HETATM    5  C4    D T 298       0.237   5.067   9.190  1.00 17.20     0.013 A 
HETATM    6  C5    D T 298       0.005   6.076   8.240  1.00 17.20     0.020 A 
HETATM    7  C6    D T 298       1.087   6.634   7.536  1.00 17.20     0.086 A 
HETATM    8  N1    D T 298       0.832   7.630   6.582  1.00 17.20    -0.208 NA
HETATM    9  C7    D T 298       1.818   8.232   5.827  1.00 17.20     0.284 A 
HETATM   10  O1    D T 298       1.533   9.104   5.001  1.00 17.20    -0.265 OA
HETATM   11  C8    D T 298       3.240   7.797   6.064  1.00 17.20     0.111 A 
HETATM   12  C10   D T 298       3.528   6.825   6.985  1.00 17.20     0.085 A 
ENDROOT
BRANCH  11  13
HETATM   13  C9    D T 298       4.328   8.382   5.306  1.00 17.20     0.169 A 
HETATM   14  N3    D T 298       4.690   8.162   4.042  1.00 17.20    -0.225 NA
HETATM   15  C12   D T 298       5.786   8.953   3.809  1.00 17.20     0.101 A 
HETATM   16  C13   D T 298       6.123   9.679   4.951  1.00 17.20     0.101 A 
HETATM   17  C14   D T 298       6.558   9.101   2.636  1.00 17.20     0.021 A 
HETATM   18  N4    D T 298       5.190   9.301   5.884  1.00 17.20    -0.225 NA
HETATM   19  C17   D T 298       7.206  10.571   4.997  1.00 17.20     0.021 A 
HETATM   20  C16   D T 298       7.966  10.706   3.817  1.00 17.20     0.002 A 
HETATM   21  C15   D T 298       7.649   9.986   2.655  1.00 17.20     0.002 A 
ENDBRANCH  11  13
BRANCH  12  22
HETATM   22  N2    D T 298       4.848   6.430   7.218  1.00 17.20    -0.270 NA
BRANCH  22  23
HETATM   23  C11   D T 298       5.630   6.311   8.441  1.00 20.30     0.137 C 
HETATM   24  C18   D T 298       6.773   7.366   8.436  1.00 20.30     0.274 C 
HETATM   25  N5    D T 298       8.122   6.654   8.562  1.00 20.30     0.139 N 
HETATM   26  C19   D T 298       8.181   5.887   9.873  1.00 20.30     0.250 C 
HETATM   27  C21   D T 298       8.341   5.702   7.391  1.00 20.30     0.250 C 
HETATM   28  C20   D T 298       7.063   4.834   9.875  1.00 20.30     0.037 C 
HETATM   29  C23   D T 298       6.252   4.894   8.558  1.00 20.30     0.029 C 
HETATM   30  C22   D T 298       7.228   4.649   7.392  1.00 20.30     0.037 C 
ENDBRANCH  22  23
ENDBRANCH  12  22
TORSDOF 3
ENDMDL
MODEL 7
REMARK VINA RESULT:    -8.090      2.545      3.907
REMARK INTER + INTRA:         -10.233
REMARK INTER:                  -9.050
REMARK INTRA:                  -1.182
REMARK UNBOUND:                -0.724
REMARK  3 active torsions:
REMARK  status: ('A' for Active; 'I' for Inactive)
REMARK    1  A    between atoms: C8_11  and  C9_12 
REMARK    2  A    between atoms: C10_13  and  N2_14 
REMARK    3  A    between atoms: N2_14  and  C11_15 
ROOT
HETATM    1  C1    D T 298       3.350   4.957   9.232  1.00 17.20     0.036 A 
HETATM    2  C2    D T 298       2.240   5.617   8.661  1.00 17.20     0.014 A 
HETATM    3  C3    D T 298       0.932   5.197   8.915  1.00 17.20     0.058 A 
HETATM    4 CL     D T 298      -0.377   6.046   8.197  1.00 17.20    -0.082 Cl
HETATM    5  C4    D T 298       0.686   4.101   9.745  1.00 17.20     0.013 A 
HETATM    6  C5    D T 298       1.767   3.425  10.333  1.00 17.20     0.020 A 
HETATM    7  C6    D T 298       3.083   3.853  10.075  1.00 17.20     0.086 A 
HETATM    8  N1    D T 298       4.148   3.173  10.682  1.00 17.20    -0.208 NA
HETATM    9  C7    D T 298       5.472   3.520  10.508  1.00 17.20     0.284 A 
HETATM   10  O1    D T 298       6.368   2.884  11.070  1.00 17.20    -0.265 OA
HETATM   11  C8    D T 298       5.774   4.684   9.601  1.00 17.20     0.111 A 
HETATM   12  C10   D T 298       4.760   5.375   8.993  1.00 17.20     0.085 A 
ENDROOT
BRANCH  11  13
HETATM   13  C9    D T 298       7.140   5.108   9.374  1.00 17.20     0.169 A 
HETATM   14  N3    D T 298       7.869   6.001  10.042  1.00 17.20    -0.225 NA
HETATM   15  C12   D T 298       9.092   6.047   9.423  1.00 17.20     0.101 A 
HETATM   16  C13   D T 298       9.129   5.171   8.339  1.00 17.20     0.101 A 
HETATM   17  C14   D T 298      10.230   6.825   9.729  1.00 17.20     0.021 A 
HETATM   18  N4    D T 298       7.885   4.590   8.325  1.00 17.20    -0.225 NA
HETATM   19  C17   D T 298      10.260   5.013   7.522  1.00 17.20     0.021 A 
HETATM   20  C16   D T 298      11.387   5.798   7.843  1.00 17.20     0.002 A 
HETATM   21  C15   D T 298      11.376   6.688   8.928  1.00 17.20     0.002 A 
ENDBRANCH  11  13
BRANCH  12  22
HETATM   22  N2    D T 298       5.037   6.445   8.138  1.00 17.20    -0.270 NA
BRANCH  22  23
HETATM   23  C11   D T 298       4.900   6.605   6.697  1.00 20.30     0.137 C 
HETATM   24  C18   D T 298       6.310   6.674   6.042  1.00 20.30     0.274 C 
HETATM   25  N5    D T 298       6.450   7.991   5.276  1.00 20.30     0.139 N 
HETATM   26  C19   D T 298       5.405   8.064   4.176  1.00 20.30     0.250 C 
HETATM   27  C21   D T 298       6.297   9.182   6.218  1.00 20.30     0.250 C 
HETATM   28  C20   D T 298       4.011   8.010   4.820  1.00 20.30     0.037 C 
HETATM   29  C23   D T 298       4.123   7.904   6.360  1.00 20.30     0.029 C 
HETATM   30  C22   D T 298       4.907   9.132   6.860  1.00 20.30     0.037 C 
ENDBRANCH  22  23
ENDBRANCH  12  22
TORSDOF 3
ENDMDL
MODEL 8
REMARK VINA RESULT:    -8.038      3.846      6.204
REMARK INTER + INTRA:         -10.172
REMARK INTER:                  -9.572
REMARK INTRA:                  -0.600
REMARK UNBOUND:                -0.724
REMARK  3 active torsions:
REMARK  status: ('A' for Active; 'I' for Inactive)
REMARK    1  A    between atoms: C8_11  and  C9_12 
REMARK    2  A    between atoms: C10_13  and  N2_14 
REMARK    3  A    between atoms: N2_14  and  C11_15 
ROOT
HETATM    1  C1    D T 298       3.972   9.561   3.625  1.00 17.20     0.036 A 
HETATM    2  C2    D T 298       5.126   9.468   2.817  1.00 17.20     0.014 A 
HETATM    3  C3    D T 298       5.377  10.385   1.795  1.00 17.20     0.058 A 
HETATM    4 CL     D T 298       6.803  10.224   0.850  1.00 17.20    -0.082 Cl
HETATM    5  C4    D T 298       4.483  11.428   1.540  1.00 17.20     0.013 A 
HETATM    6  C5    D T 298       3.327  11.552   2.328  1.00 17.20     0.020 A 
HETATM    7  C6    D T 298       3.081  10.626   3.358  1.00 17.20     0.086 A 
HETATM    8  N1    D T 298       1.928  10.775   4.142  1.00 17.20    -0.208 NA
HETATM    9  C7    D T 298       1.601   9.932   5.184  1.00 17.20     0.284 A 
HETATM   10  O1    D T 298       0.571  10.114   5.841  1.00 17.20    -0.265 OA
HETATM   11  C8    D T 298       2.532   8.784   5.471  1.00 17.20     0.111 A 
HETATM   12  C10   D T 298       3.669   8.607   4.728  1.00 17.20     0.085 A 
ENDROOT
BRANCH  11  13
HETATM   13  C9    D T 298       2.255   7.860   6.552  1.00 17.20     0.169 A 
HETATM   14  N3    D T 298       2.890   7.704   7.713  1.00 17.20    -0.225 NA
HETATM   15  C12   D T 298       2.244   6.692   8.376  1.00 17.20     0.101 A 
HETATM   16  C13   D T 298       1.188   6.196   7.613  1.00 17.20     0.101 A 
HETATM   17  C14   D T 298       2.510   6.131   9.645  1.00 17.20     0.021 A 
HETATM   18  N4    D T 298       1.214   6.947   6.464  1.00 17.20    -0.225 NA
HETATM   19  C17   D T 298       0.354   5.154   8.048  1.00 17.20     0.021 A 
HETATM   20  C16   D T 298       0.634   4.606   9.316  1.00 17.20     0.002 A 
HETATM   21  C15   D T 298       1.692   5.085  10.104  1.00 17.20     0.002 A 
ENDBRANCH  11  13
BRANCH  12  22
HETATM   22  N2    D T 298       4.528   7.533   4.981  1.00 17.20    -0.270 NA
BRANCH  22  23
HETATM   23  C11   D T 298       5.974   7.453   5.124  1.00 20.30     0.137 C 
HETATM   24  C18   D T 298       6.352   6.164   5.910  1.00 20.30     0.274 C 
HETATM   25  N5    D T 298       7.144   6.546   7.162  1.00 20.30     0.139 N 
HETATM   26  C19   D T 298       8.426   7.260   6.765  1.00 20.30     0.250 C 
HETATM   27  C21   D T 298       6.312   7.441   8.075  1.00 20.30     0.250 C 
HETATM   28  C20   D T 298       8.057   8.540   6.001  1.00 20.30     0.037 C 
HETATM   29  C23   D T 298       6.521   8.687   5.888  1.00 20.30     0.029 C 
HETATM   30  C22   D T 298       5.944   8.720   7.316  1.00 20.30     0.037 C 
ENDBRANCH  22  23
ENDBRANCH  12  22
TORSDOF 3
ENDMDL
MODEL 9
REMARK VINA RESULT:    -7.861      2.723      5.297
REMARK INTER + INTRA:          -9.963
REMARK INTER:                  -8.840
REMARK INTRA:                  -1.123
REMARK UNBOUND:                -0.724
REMARK  3 active torsions:
REMARK  status: ('A' for Active; 'I' for Inactive)
REMARK    1  A    between atoms: C8_11  and  C9_12 
REMARK    2  A    between atoms: C10_13  and  N2_14 
REMARK    3  A    between atoms: N2_14  and  C11_15 
ROOT
HETATM    1  C1    D T 298       3.214   5.674   8.685  1.00 17.20     0.036 A 
HETATM    2  C2    D T 298       1.838   5.869   8.440  1.00 17.20     0.014 A 
HETATM    3  C3    D T 298       0.869   5.053   9.029  1.00 17.20     0.058 A 
HETATM    4 CL     D T 298      -0.791   5.346   8.698  1.00 17.20    -0.082 Cl
HETATM    5  C4    D T 298       1.240   4.011   9.881  1.00 17.20     0.013 A 
HETATM    6  C5    D T 298       2.602   3.791  10.149  1.00 17.20     0.020 A 
HETATM    7  C6    D T 298       3.573   4.618   9.554  1.00 17.20     0.086 A 
HETATM    8  N1    D T 298       4.926   4.391   9.846  1.00 17.20    -0.208 NA
HETATM    9  C7    D T 298       5.954   5.151   9.328  1.00 17.20     0.284 A 
HETATM   10  O1    D T 298       7.128   4.904   9.622  1.00 17.20    -0.265 OA
HETATM   11  C8    D T 298       5.590   6.269   8.388  1.00 17.20     0.111 A 
HETATM   12  C10   D T 298       4.279   6.523   8.082  1.00 17.20     0.085 A 
ENDROOT
BRANCH  11  13
HETATM   13  C9    D T 298       6.617   7.112   7.809  1.00 17.20     0.169 A 
HETATM   14  N3    D T 298       7.318   6.938   6.689  1.00 17.20    -0.225 NA
HETATM   15  C12   D T 298       8.168   8.010   6.593  1.00 17.20     0.101 A 
HETATM   16  C13   D T 298       8.003   8.870   7.678  1.00 17.20     0.101 A 
HETATM   17  C14   D T 298       9.125   8.317   5.600  1.00 17.20     0.021 A 
HETATM   18  N4    D T 298       7.020   8.282   8.434  1.00 17.20    -0.225 NA
HETATM   19  C17   D T 298       8.747  10.050   7.837  1.00 17.20     0.021 A 
HETATM   20  C16   D T 298       9.697  10.341   6.837  1.00 17.20     0.002 A 
HETATM   21  C15   D T 298       9.884   9.491   5.735  1.00 17.20     0.002 A 
ENDBRANCH  11  13
BRANCH  12  22
HETATM   22  N2    D T 298       3.939   7.551   7.197  1.00 17.20    -0.270 NA
BRANCH  22  23
HETATM   23  C11   D T 298       3.312   7.540   5.884  1.00 20.30     0.137 C 
HETATM   24  C18   D T 298       4.393   7.756   4.786  1.00 20.30     0.274 C 
HETATM   25  N5    D T 298       4.038   8.994   3.960  1.00 20.30     0.139 N 
HETATM   26  C19   D T 298       2.695   8.795   3.279  1.00 20.30     0.250 C 
HETATM   27  C21   D T 298       3.994  10.237   4.843  1.00 20.30     0.250 C 
HETATM   28  C20   D T 298       1.622   8.596   4.360  1.00 20.30     0.037 C 
HETATM   29  C23   D T 298       2.250   8.666   5.773  1.00 20.30     0.029 C 
HETATM   30  C22   D T 298       2.924  10.042   5.921  1.00 20.30     0.037 C 
ENDBRANCH  22  23
ENDBRANCH  12  22
TORSDOF 3
ENDMDL
