MODEL 1
REMARK VINA RESULT:   -10.159      0.000      0.000
REMARK INTER + INTRA:         -12.931
REMARK INTER:                 -11.941
REMARK INTRA:                  -0.990
REMARK UNBOUND:                -0.990
REMARK  3 active torsions:
REMARK  status: ('A' for Active; 'I' for Inactive)
REMARK    1  A    between atoms: C8_11  and  C9_12 
REMARK    2  A    between atoms: C10_13  and  N2_14 
REMARK    3  A    between atoms: N2_14  and  C11_15 
ROOT
HETATM    1  C1    D T 298       6.787  11.818   2.838  1.00 17.20     0.036 A 
HETATM    2  C2    D T 298       8.046  12.378   2.534  1.00 17.20     0.014 A 
HETATM    3  C3    D T 298       9.207  11.960   3.186  1.00 17.20     0.058 A 
HETATM    4 CL     D T 298      10.712  12.676   2.767  1.00 17.20    -0.082 Cl
HETATM    5  C4    D T 298       9.154  10.969   4.168  1.00 17.20     0.013 A 
HETATM    6  C5    D T 298       7.916  10.386   4.492  1.00 17.20     0.020 A 
HETATM    7  C6    D T 298       6.750  10.811   3.829  1.00 17.20     0.086 A 
HETATM    8  N1    D T 298       5.527  10.207   4.158  1.00 17.20    -0.208 NA
HETATM    9  C7    D T 298       4.329  10.538   3.560  1.00 17.20     0.284 A 
HETATM   10  O1    D T 298       3.284   9.972   3.889  1.00 17.20    -0.265 OA
HETATM   11  C8    D T 298       4.350  11.620   2.512  1.00 17.20     0.111 A 
HETATM   12  C10   D T 298       5.525  12.231   2.163  1.00 17.20     0.085 A 
ENDROOT
BRANCH  11  13
HETATM   13  C9    D T 298       3.129  12.019   1.838  1.00 17.20     0.169 A 
HETATM   14  N3    D T 298       2.770  11.836   0.568  1.00 17.20    -0.225 NA
HETATM   15  C12   D T 298       1.531  12.410   0.430  1.00 17.20     0.101 A 
HETATM   16  C13   D T 298       1.109  12.969   1.634  1.00 17.20     0.101 A 
HETATM   17  C14   D T 298       0.699  12.496  -0.709  1.00 17.20     0.021 A 
HETATM   18  N4    D T 298       2.135  12.712   2.509  1.00 17.20    -0.225 NA
HETATM   19  C17   D T 298      -0.125  13.622   1.782  1.00 17.20     0.021 A 
HETATM   20  C16   D T 298      -0.943  13.700   0.637  1.00 17.20     0.002 A 
HETATM   21  C15   D T 298      -0.540  13.146  -0.590  1.00 17.20     0.002 A 
ENDBRANCH  11  13
BRANCH  12  22
HETATM   22  N2    D T 298       5.544  13.247   1.203  1.00 17.20    -0.270 NA
BRANCH  22  23
HETATM   23  C11   D T 298       6.173  13.339  -0.107  1.00 20.30     0.137 C 
HETATM   24  C18   D T 298       7.028  14.636  -0.186  1.00 20.30     0.274 C 
HETATM   25  N5    D T 298       6.536  15.499  -1.350  1.00 20.30     0.139 N 
HETATM   26  C19   D T 298       6.690  14.741  -2.659  1.00 20.30     0.250 C 
HETATM   27  C21   D T 298       5.077  15.896  -1.148  1.00 20.30     0.250 C 
HETATM   28  C20   D T 298       5.836  13.466  -2.589  1.00 20.30     0.037 C 
HETATM   29  C23   D T 298       5.102  13.373  -1.229  1.00 20.30     0.029 C 
HETATM   30  C22   D T 298       4.222  14.628  -1.080  1.00 20.30     0.037 C 
ENDBRANCH  22  23
ENDBRANCH  12  22
TORSDOF 3
ENDMDL
MODEL 2
REMARK VINA RESULT:    -9.522      1.423      2.126
REMARK INTER + INTRA:         -12.181
REMARK INTER:                 -11.358
REMARK INTRA:                  -0.823
REMARK UNBOUND:                -0.990
REMARK  3 active torsions:
REMARK  status: ('A' for Active; 'I' for Inactive)
REMARK    1  A    between atoms: C8_11  and  C9_12 
REMARK    2  A    between atoms: C10_13  and  N2_14 
REMARK    3  A    between atoms: N2_14  and  C11_15 
ROOT
HETATM    1  C1    D T 298       5.207  12.660   1.761  1.00 17.20     0.036 A 
HETATM    2  C2    D T 298       6.387  13.323   1.361  1.00 17.20     0.014 A 
HETATM    3  C3    D T 298       7.635  12.965   1.874  1.00 17.20     0.058 A 
HETATM    4 CL     D T 298       9.036  13.806   1.344  1.00 17.20    -0.082 Cl
HETATM    5  C4    D T 298       7.750  11.934   2.809  1.00 17.20     0.013 A 
HETATM    6  C5    D T 298       6.594  11.249   3.226  1.00 17.20     0.020 A 
HETATM    7  C6    D T 298       5.340  11.614   2.702  1.00 17.20     0.086 A 
HETATM    8  N1    D T 298       4.202  10.909   3.120  1.00 17.20    -0.208 NA
HETATM    9  C7    D T 298       2.929  11.175   2.659  1.00 17.20     0.284 A 
HETATM   10  O1    D T 298       1.965  10.521   3.063  1.00 17.20    -0.265 OA
HETATM   11  C8    D T 298       2.769  12.297   1.667  1.00 17.20     0.111 A 
HETATM   12  C10   D T 298       3.857  13.007   1.233  1.00 17.20     0.085 A 
ENDROOT
BRANCH  11  13
HETATM   13  C9    D T 298       1.461  12.632   1.136  1.00 17.20     0.169 A 
HETATM   14  N3    D T 298       0.975  12.441  -0.090  1.00 17.20    -0.225 NA
HETATM   15  C12   D T 298      -0.300  12.944  -0.083  1.00 17.20     0.101 A 
HETATM   16  C13   D T 298      -0.619  13.468   1.168  1.00 17.20     0.101 A 
HETATM   17  C14   D T 298      -1.256  12.993  -1.123  1.00 17.20     0.021 A 
HETATM   18  N4    D T 298       0.510  13.262   1.922  1.00 17.20    -0.225 NA
HETATM   19  C17   D T 298      -1.863  14.049   1.459  1.00 17.20     0.021 A 
HETATM   20  C16   D T 298      -2.805  14.090   0.411  1.00 17.20     0.002 A 
HETATM   21  C15   D T 298      -2.509  13.571  -0.860  1.00 17.20     0.002 A 
ENDBRANCH  11  13
BRANCH  12  22
HETATM   22  N2    D T 298       3.709  14.058   0.325  1.00 17.20    -0.270 NA
BRANCH  22  23
HETATM   23  C11   D T 298       3.728  14.101  -1.130  1.00 20.30     0.137 C 
HETATM   24  C18   D T 298       4.713  13.026  -1.672  1.00 20.30     0.274 C 
HETATM   25  N5    D T 298       5.786  13.705  -2.527  1.00 20.30     0.139 N 
HETATM   26  C19   D T 298       5.138  14.403  -3.712  1.00 20.30     0.250 C 
HETATM   27  C21   D T 298       6.579  14.711  -1.700  1.00 20.30     0.250 C 
HETATM   28  C20   D T 298       4.175  15.475  -3.180  1.00 20.30     0.037 C 
HETATM   29  C23   D T 298       4.181  15.498  -1.632  1.00 20.30     0.029 C 
HETATM   30  C22   D T 298       5.622  15.783  -1.170  1.00 20.30     0.037 C 
ENDBRANCH  22  23
ENDBRANCH  12  22
TORSDOF 3
ENDMDL
MODEL 3
REMARK VINA RESULT:    -9.197      3.191      6.866
REMARK INTER + INTRA:         -11.800
REMARK INTER:                 -10.895
REMARK INTRA:                  -0.905
REMARK UNBOUND:                -0.990
REMARK  3 active torsions:
REMARK  status: ('A' for Active; 'I' for Inactive)
REMARK    1  A    between atoms: C8_11  and  C9_12 
REMARK    2  A    between atoms: C10_13  and  N2_14 
REMARK    3  A    between atoms: N2_14  and  C11_15 
ROOT
HETATM    1  C1    D T 298       2.750  13.407  -0.021  1.00 17.20     0.036 A 
HETATM    2  C2    D T 298       2.832  12.272   0.815  1.00 17.20     0.014 A 
HETATM    3  C3    D T 298       1.810  11.951   1.710  1.00 17.20     0.058 A 
HETATM    4 CL     D T 298       1.964  10.553   2.696  1.00 17.20    -0.082 Cl
HETATM    5  C4    D T 298       0.671  12.753   1.807  1.00 17.20     0.013 A 
HETATM    6  C5    D T 298       0.556  13.889   0.986  1.00 17.20     0.020 A 
HETATM    7  C6    D T 298       1.589  14.205   0.083  1.00 17.20     0.086 A 
HETATM    8  N1    D T 298       1.448  15.334  -0.737  1.00 17.20    -0.208 NA
HETATM    9  C7    D T 298       2.392  15.725  -1.663  1.00 17.20     0.284 A 
HETATM   10  O1    D T 298       2.213  16.728  -2.358  1.00 17.20    -0.265 OA
HETATM   11  C8    D T 298       3.643  14.894  -1.776  1.00 17.20     0.111 A 
HETATM   12  C10   D T 298       3.815  13.782  -0.994  1.00 17.20     0.085 A 
ENDROOT
BRANCH  11  13
HETATM   13  C9    D T 298       4.678  15.241  -2.730  1.00 17.20     0.169 A 
HETATM   14  N3    D T 298       4.940  14.706  -3.922  1.00 17.20    -0.225 NA
HETATM   15  C12   D T 298       6.025  15.381  -4.419  1.00 17.20     0.101 A 
HETATM   16  C13   D T 298       6.457  16.353  -3.519  1.00 17.20     0.101 A 
HETATM   17  C14   D T 298       6.707  15.213  -5.646  1.00 17.20     0.021 A 
HETATM   18  N4    D T 298       5.593  16.245  -2.458  1.00 17.20    -0.225 NA
HETATM   19  C17   D T 298       7.553  17.194  -3.772  1.00 17.20     0.021 A 
HETATM   20  C16   D T 298       8.222  17.013  -4.999  1.00 17.20     0.002 A 
HETATM   21  C15   D T 298       7.809  16.040  -5.922  1.00 17.20     0.002 A 
ENDBRANCH  11  13
BRANCH  12  22
HETATM   22  N2    D T 298       4.982  13.018  -1.085  1.00 17.20    -0.270 NA
BRANCH  22  23
HETATM   23  C11   D T 298       6.367  13.306  -0.740  1.00 20.30     0.137 C 
HETATM   24  C18   D T 298       7.124  11.975  -0.465  1.00 20.30     0.274 C 
HETATM   25  N5    D T 298       7.700  12.002   0.952  1.00 20.30     0.139 N 
HETATM   26  C19   D T 298       8.684  13.152   1.090  1.00 20.30     0.250 C 
HETATM   27  C21   D T 298       6.586  12.143   1.985  1.00 20.30     0.250 C 
HETATM   28  C20   D T 298       7.935  14.469   0.833  1.00 20.30     0.037 C 
HETATM   29  C23   D T 298       6.442  14.199   0.526  1.00 20.30     0.029 C 
HETATM   30  C22   D T 298       5.839  13.456   1.733  1.00 20.30     0.037 C 
ENDBRANCH  22  23
ENDBRANCH  12  22
TORSDOF 3
ENDMDL
MODEL 4
REMARK VINA RESULT:    -8.887      2.585      6.320
REMARK INTER + INTRA:         -11.436
REMARK INTER:                 -10.404
REMARK INTRA:                  -1.031
REMARK UNBOUND:                -0.990
REMARK  3 active torsions:
REMARK  status: ('A' for Active; 'I' for Inactive)
REMARK    1  A    between atoms: C8_11  and  C9_12 
REMARK    2  A    between atoms: C10_13  and  N2_14 
REMARK    3  A    between atoms: N2_14  and  C11_15 
ROOT
HETATM    1  C1    D T 298       3.737  12.725   0.967  1.00 17.20     0.036 A 
HETATM    2  C2    D T 298       3.081  13.363  -0.107  1.00 17.20     0.014 A 
HETATM    3  C3    D T 298       1.697  13.548  -0.109  1.00 17.20     0.058 A 
HETATM    4 CL     D T 298       0.955  14.338  -1.443  1.00 17.20    -0.082 Cl
HETATM    5  C4    D T 298       0.918  13.098   0.959  1.00 17.20     0.013 A 
HETATM    6  C5    D T 298       1.541  12.461   2.047  1.00 17.20     0.020 A 
HETATM    7  C6    D T 298       2.937  12.282   2.044  1.00 17.20     0.086 A 
HETATM    8  N1    D T 298       3.541  11.657   3.145  1.00 17.20    -0.208 NA
HETATM    9  C7    D T 298       4.899  11.445   3.249  1.00 17.20     0.284 A 
HETATM   10  O1    D T 298       5.374  10.890   4.244  1.00 17.20    -0.265 OA
HETATM   11  C8    D T 298       5.765  11.898   2.103  1.00 17.20     0.111 A 
HETATM   12  C10   D T 298       5.212  12.514   1.012  1.00 17.20     0.085 A 
ENDROOT
BRANCH  11  13
HETATM   13  C9    D T 298       7.203  11.711   2.144  1.00 17.20     0.169 A 
HETATM   14  N3    D T 298       7.977  10.957   1.365  1.00 17.20    -0.225 NA
HETATM   15  C12   D T 298       9.260  11.118   1.823  1.00 17.20     0.101 A 
HETATM   16  C13   D T 298       9.290  11.984   2.914  1.00 17.20     0.101 A 
HETATM   17  C14   D T 298      10.463  10.545   1.353  1.00 17.20     0.021 A 
HETATM   18  N4    D T 298       7.979  12.344   3.101  1.00 17.20    -0.225 NA
HETATM   19  C17   D T 298      10.476  12.328   3.583  1.00 17.20     0.021 A 
HETATM   20  C16   D T 298      11.667  11.748   3.102  1.00 17.20     0.002 A 
HETATM   21  C15   D T 298      11.664  10.872   2.005  1.00 17.20     0.002 A 
ENDBRANCH  11  13
BRANCH  12  22
HETATM   22  N2    D T 298       6.011  12.921  -0.060  1.00 17.20    -0.270 NA
BRANCH  22  23
HETATM   23  C11   D T 298       6.889  14.068  -0.242  1.00 20.30     0.137 C 
HETATM   24  C18   D T 298       6.290  15.306   0.484  1.00 20.30     0.274 C 
HETATM   25  N5    D T 298       6.080  16.435  -0.527  1.00 20.30     0.139 N 
HETATM   26  C19   D T 298       7.411  16.836  -1.141  1.00 20.30     0.250 C 
HETATM   27  C21   D T 298       5.111  16.004  -1.624  1.00 20.30     0.250 C 
HETATM   28  C20   D T 298       8.000  15.619  -1.870  1.00 20.30     0.037 C 
HETATM   29  C23   D T 298       7.055  14.398  -1.749  1.00 20.30     0.029 C 
HETATM   30  C22   D T 298       5.695  14.793  -2.355  1.00 20.30     0.037 C 
ENDBRANCH  22  23
ENDBRANCH  12  22
TORSDOF 3
ENDMDL
MODEL 5
REMARK VINA RESULT:    -8.828      2.606      5.535
REMARK INTER + INTRA:         -11.366
REMARK INTER:                 -10.491
REMARK INTRA:                  -0.875
REMARK UNBOUND:                -0.990
REMARK  3 active torsions:
REMARK  status: ('A' for Active; 'I' for Inactive)
REMARK    1  A    between atoms: C8_11  and  C9_12 
REMARK    2  A    between atoms: C10_13  and  N2_14 
REMARK    3  A    between atoms: N2_14  and  C11_15 
ROOT
HETATM    1  C1    D T 298       5.613  12.338   1.926  1.00 17.20     0.036 A 
HETATM    2  C2    D T 298       4.694  11.499   2.592  1.00 17.20     0.014 A 
HETATM    3  C3    D T 298       5.073  10.735   3.697  1.00 17.20     0.058 A 
HETATM    4 CL     D T 298       3.907   9.737   4.470  1.00 17.20    -0.082 Cl
HETATM    5  C4    D T 298       6.384  10.777   4.175  1.00 17.20     0.013 A 
HETATM    6  C5    D T 298       7.323  11.606   3.537  1.00 17.20     0.020 A 
HETATM    7  C6    D T 298       6.934  12.376   2.426  1.00 17.20     0.086 A 
HETATM    8  N1    D T 298       7.883  13.207   1.812  1.00 17.20    -0.208 NA
HETATM    9  C7    D T 298       7.603  14.011   0.728  1.00 17.20     0.284 A 
HETATM   10  O1    D T 298       8.480  14.723   0.230  1.00 17.20    -0.265 OA
HETATM   11  C8    D T 298       6.203  13.971   0.173  1.00 17.20     0.111 A 
HETATM   12  C10   D T 298       5.248  13.174   0.747  1.00 17.20     0.085 A 
ENDROOT
BRANCH  11  13
HETATM   13  C9    D T 298       5.834  14.792  -0.964  1.00 17.20     0.169 A 
HETATM   14  N3    D T 298       5.178  15.952  -0.988  1.00 17.20    -0.225 NA
HETATM   15  C12   D T 298       5.074  16.309  -2.308  1.00 17.20     0.101 A 
HETATM   16  C13   D T 298       5.669  15.352  -3.128  1.00 17.20     0.101 A 
HETATM   17  C14   D T 298       4.472  17.448  -2.889  1.00 17.20     0.021 A 
HETATM   18  N4    D T 298       6.141  14.402  -2.257  1.00 17.20    -0.225 NA
HETATM   19  C17   D T 298       5.709  15.463  -4.527  1.00 17.20     0.021 A 
HETATM   20  C16   D T 298       5.104  16.605  -5.091  1.00 17.20     0.002 A 
HETATM   21  C15   D T 298       4.495  17.583  -4.288  1.00 17.20     0.002 A 
ENDBRANCH  11  13
BRANCH  12  22
HETATM   22  N2    D T 298       3.953  13.122   0.225  1.00 17.20    -0.270 NA
BRANCH  22  23
HETATM   23  C11   D T 298       2.647  13.020   0.862  1.00 20.30     0.137 C 
HETATM   24  C18   D T 298       1.763  12.005   0.082  1.00 20.30     0.274 C 
HETATM   25  N5    D T 298       0.486  12.702  -0.391  1.00 20.30     0.139 N 
HETATM   26  C19   D T 298      -0.303  13.206   0.806  1.00 20.30     0.250 C 
HETATM   27  C21   D T 298       0.819  13.864  -1.321  1.00 20.30     0.250 C 
HETATM   28  C20   D T 298       0.563  14.220   1.571  1.00 20.30     0.037 C 
HETATM   29  C23   D T 298       1.936  14.399   0.879  1.00 20.30     0.029 C 
HETATM   30  C22   D T 298       1.680  14.878  -0.562  1.00 20.30     0.037 C 
ENDBRANCH  22  23
ENDBRANCH  12  22
TORSDOF 3
ENDMDL
MODEL 6
REMARK VINA RESULT:    -8.610      2.778      6.831
REMARK INTER + INTRA:         -11.110
REMARK INTER:                  -9.962
REMARK INTRA:                  -1.148
REMARK UNBOUND:                -0.990
REMARK  3 active torsions:
REMARK  status: ('A' for Active; 'I' for Inactive)
REMARK    1  A    between atoms: C8_11  and  C9_12 
REMARK    2  A    between atoms: C10_13  and  N2_14 
REMARK    3  A    between atoms: N2_14  and  C11_15 
ROOT
HETATM    1  C1    D T 298       4.091  12.530   0.975  1.00 17.20     0.036 A 
HETATM    2  C2    D T 298       4.194  11.542   1.977  1.00 17.20     0.014 A 
HETATM    3  C3    D T 298       3.068  11.072   2.656  1.00 17.20     0.058 A 
HETATM    4 CL     D T 298       3.257   9.863   3.862  1.00 17.20    -0.082 Cl
HETATM    5  C4    D T 298       1.800  11.575   2.362  1.00 17.20     0.013 A 
HETATM    6  C5    D T 298       1.661  12.557   1.366  1.00 17.20     0.020 A 
HETATM    7  C6    D T 298       2.799  13.024   0.683  1.00 17.20     0.086 A 
HETATM    8  N1    D T 298       2.638  13.994  -0.317  1.00 17.20    -0.208 NA
HETATM    9  C7    D T 298       3.683  14.509  -1.055  1.00 17.20     0.284 A 
HETATM   10  O1    D T 298       3.481  15.361  -1.923  1.00 17.20    -0.265 OA
HETATM   11  C8    D T 298       5.068  14.004  -0.746  1.00 17.20     0.111 A 
HETATM   12  C10   D T 298       5.266  13.055   0.222  1.00 17.20     0.085 A 
ENDROOT
BRANCH  11  13
HETATM   13  C9    D T 298       6.216  14.496  -1.483  1.00 17.20     0.169 A 
HETATM   14  N3    D T 298       7.097  15.437  -1.143  1.00 17.20    -0.225 NA
HETATM   15  C12   D T 298       7.979  15.537  -2.188  1.00 17.20     0.101 A 
HETATM   16  C13   D T 298       7.642  14.647  -3.206  1.00 17.20     0.101 A 
HETATM   17  C14   D T 298       9.104  16.379  -2.340  1.00 17.20     0.021 A 
HETATM   18  N4    D T 298       6.524  14.002  -2.741  1.00 17.20    -0.225 NA
HETATM   19  C17   D T 298       8.377  14.537  -4.397  1.00 17.20     0.021 A 
HETATM   20  C16   D T 298       9.496  15.384  -4.534  1.00 17.20     0.002 A 
HETATM   21  C15   D T 298       9.856  16.290  -3.524  1.00 17.20     0.002 A 
ENDBRANCH  11  13
BRANCH  12  22
HETATM   22  N2    D T 298       6.551  12.596   0.522  1.00 17.20    -0.270 NA
BRANCH  22  23
HETATM   23  C11   D T 298       7.433  12.833   1.656  1.00 20.30     0.137 C 
HETATM   24  C18   D T 298       8.849  13.224   1.145  1.00 20.30     0.274 C 
HETATM   25  N5    D T 298       9.878  12.233   1.694  1.00 20.30     0.139 N 
HETATM   26  C19   D T 298       9.885  12.282   3.213  1.00 20.30     0.250 C 
HETATM   27  C21   D T 298       9.569  10.816   1.220  1.00 20.30     0.250 C 
HETATM   28  C20   D T 298       8.491  11.883   3.721  1.00 20.30     0.037 C 
HETATM   29  C23   D T 298       7.548  11.562   2.537  1.00 20.30     0.029 C 
HETATM   30  C22   D T 298       8.181  10.415   1.727  1.00 20.30     0.037 C 
ENDBRANCH  22  23
ENDBRANCH  12  22
TORSDOF 3
ENDMDL
MODEL 7
REMARK VINA RESULT:    -7.677      5.482      9.360
REMARK INTER + INTRA:         -10.014
REMARK INTER:                  -8.685
REMARK INTRA:                  -1.329
REMARK UNBOUND:                -0.990
REMARK  3 active torsions:
REMARK  status: ('A' for Active; 'I' for Inactive)
REMARK    1  A    between atoms: C8_11  and  C9_12 
REMARK    2  A    between atoms: C10_13  and  N2_14 
REMARK    3  A    between atoms: N2_14  and  C11_15 
ROOT
HETATM    1  C1    D T 298       4.944  16.599  -2.962  1.00 17.20     0.036 A 
HETATM    2  C2    D T 298       4.106  17.702  -3.232  1.00 17.20     0.014 A 
HETATM    3  C3    D T 298       2.767  17.715  -2.839  1.00 17.20     0.058 A 
HETATM    4 CL     D T 298       1.799  19.090  -3.190  1.00 17.20    -0.082 Cl
HETATM    5  C4    D T 298       2.214  16.624  -2.165  1.00 17.20     0.013 A 
HETATM    6  C5    D T 298       3.022  15.510  -1.877  1.00 17.20     0.020 A 
HETATM    7  C6    D T 298       4.371  15.506  -2.274  1.00 17.20     0.086 A 
HETATM    8  N1    D T 298       5.164  14.390  -1.964  1.00 17.20    -0.208 NA
HETATM    9  C7    D T 298       6.499  14.290  -2.294  1.00 17.20     0.284 A 
HETATM   10  O1    D T 298       7.147  13.283  -1.995  1.00 17.20    -0.265 OA
HETATM   11  C8    D T 298       7.121  15.440  -3.042  1.00 17.20     0.111 A 
HETATM   12  C10   D T 298       6.379  16.548  -3.360  1.00 17.20     0.085 A 
ENDROOT
BRANCH  11  13
HETATM   13  C9    D T 298       8.521  15.407  -3.419  1.00 17.20     0.169 A 
HETATM   14  N3    D T 298       9.102  14.793  -4.449  1.00 17.20    -0.225 NA
HETATM   15  C12   D T 298      10.443  15.061  -4.352  1.00 17.20     0.101 A 
HETATM   16  C13   D T 298      10.710  15.852  -3.237  1.00 17.20     0.101 A 
HETATM   17  C14   D T 298      11.507  14.652  -5.188  1.00 17.20     0.021 A 
HETATM   18  N4    D T 298       9.481  16.057  -2.661  1.00 17.20    -0.225 NA
HETATM   19  C17   D T 298      12.003  16.278  -2.895  1.00 17.20     0.021 A 
HETATM   20  C16   D T 298      13.053  15.863  -3.738  1.00 17.20     0.002 A 
HETATM   21  C15   D T 298      12.811  15.063  -4.867  1.00 17.20     0.002 A 
ENDBRANCH  11  13
BRANCH  12  22
HETATM   22  N2    D T 298       6.949  17.610  -4.067  1.00 17.20    -0.270 NA
BRANCH  22  23
HETATM   23  C11   D T 298       6.777  18.074  -5.437  1.00 20.30     0.137 C 
HETATM   24  C18   D T 298       7.049  16.903  -6.424  1.00 20.30     0.274 C 
HETATM   25  N5    D T 298       8.180  17.295  -7.378  1.00 20.30     0.139 N 
HETATM   26  C19   D T 298       7.776  18.519  -8.184  1.00 20.30     0.250 C 
HETATM   27  C21   D T 298       9.463  17.580  -6.605  1.00 20.30     0.250 C 
HETATM   28  C20   D T 298       7.521  19.681  -7.212  1.00 20.30     0.037 C 
HETATM   29  C23   D T 298       7.758  19.234  -5.749  1.00 20.30     0.029 C 
HETATM   30  C22   D T 298       9.213  18.740  -5.637  1.00 20.30     0.037 C 
ENDBRANCH  22  23
ENDBRANCH  12  22
TORSDOF 3
ENDMDL
MODEL 8
REMARK VINA RESULT:    -7.658      2.904      5.837
REMARK INTER + INTRA:          -9.990
REMARK INTER:                  -9.612
REMARK INTRA:                  -0.378
REMARK UNBOUND:                -0.990
REMARK  3 active torsions:
REMARK  status: ('A' for Active; 'I' for Inactive)
REMARK    1  A    between atoms: C8_11  and  C9_12 
REMARK    2  A    between atoms: C10_13  and  N2_14 
REMARK    3  A    between atoms: N2_14  and  C11_15 
ROOT
HETATM    1  C1    D T 298       9.263  15.241  -0.161  1.00 17.20     0.036 A 
HETATM    2  C2    D T 298      10.608  14.921   0.122  1.00 17.20     0.014 A 
HETATM    3  C3    D T 298      11.651  15.780  -0.230  1.00 17.20     0.058 A 
HETATM    4 CL     D T 298      13.268  15.338   0.147  1.00 17.20    -0.082 Cl
HETATM    5  C4    D T 298      11.389  16.987  -0.880  1.00 17.20     0.013 A 
HETATM    6  C5    D T 298      10.059  17.338  -1.173  1.00 17.20     0.020 A 
HETATM    7  C6    D T 298       9.013  16.469  -0.813  1.00 17.20     0.086 A 
HETATM    8  N1    D T 298       7.693  16.844  -1.102  1.00 17.20    -0.208 NA
HETATM    9  C7    D T 298       6.594  16.074  -0.780  1.00 17.20     0.284 A 
HETATM   10  O1    D T 298       5.455  16.456  -1.059  1.00 17.20    -0.265 OA
HETATM   11  C8    D T 298       6.844  14.755  -0.098  1.00 17.20     0.111 A 
HETATM   12  C10   D T 298       8.120  14.355   0.202  1.00 17.20     0.085 A 
ENDROOT
BRANCH  11  13
HETATM   13  C9    D T 298       5.739  13.893   0.273  1.00 17.20     0.169 A 
HETATM   14  N3    D T 298       4.750  13.417  -0.483  1.00 17.20    -0.225 NA
HETATM   15  C12   D T 298       3.958  12.664   0.346  1.00 17.20     0.101 A 
HETATM   16  C13   D T 298       4.455  12.673   1.647  1.00 17.20     0.101 A 
HETATM   17  C14   D T 298       2.782  11.938   0.053  1.00 17.20     0.021 A 
HETATM   18  N4    D T 298       5.579  13.458   1.579  1.00 17.20    -0.225 NA
HETATM   19  C17   D T 298       3.840  11.983   2.704  1.00 17.20     0.021 A 
HETATM   20  C16   D T 298       2.668  11.264   2.396  1.00 17.20     0.002 A 
HETATM   21  C15   D T 298       2.145  11.240   1.093  1.00 17.20     0.002 A 
ENDBRANCH  11  13
BRANCH  12  22
HETATM   22  N2    D T 298       8.356  13.124   0.820  1.00 17.20    -0.270 NA
BRANCH  22  23
HETATM   23  C11   D T 298       9.333  12.703   1.814  1.00 20.30     0.137 C 
HETATM   24  C18   D T 298      10.121  11.471   1.284  1.00 20.30     0.274 C 
HETATM   25  N5    D T 298       9.952  10.302   2.257  1.00 20.30     0.139 N 
HETATM   26  C19   D T 298      10.509  10.678   3.620  1.00 20.30     0.250 C 
HETATM   27  C21   D T 298       8.482   9.915   2.385  1.00 20.30     0.250 C 
HETATM   28  C20   D T 298       9.724  11.887   4.153  1.00 20.30     0.037 C 
HETATM   29  C23   D T 298       8.632  12.318   3.144  1.00 20.30     0.029 C 
HETATM   30  C22   D T 298       7.696  11.116   2.918  1.00 20.30     0.037 C 
ENDBRANCH  22  23
ENDBRANCH  12  22
TORSDOF 3
ENDMDL
MODEL 9
REMARK VINA RESULT:    -7.435      2.502      3.572
REMARK INTER + INTRA:          -9.728
REMARK INTER:                  -9.027
REMARK INTRA:                  -0.701
REMARK UNBOUND:                -0.990
REMARK  3 active torsions:
REMARK  status: ('A' for Active; 'I' for Inactive)
REMARK    1  A    between atoms: C8_11  and  C9_12 
REMARK    2  A    between atoms: C10_13  and  N2_14 
REMARK    3  A    between atoms: N2_14  and  C11_15 
ROOT
HETATM    1  C1    D T 298       9.527  13.846   0.798  1.00 17.20     0.036 A 
HETATM    2  C2    D T 298      10.232  15.004   0.407  1.00 17.20     0.014 A 
HETATM    3  C3    D T 298      11.625  15.065   0.470  1.00 17.20     0.058 A 
HETATM    4 CL     D T 298      12.428  16.501  -0.026  1.00 17.20    -0.082 Cl
HETATM    5  C4    D T 298      12.365  13.973   0.929  1.00 17.20     0.013 A 
HETATM    6  C5    D T 298      11.693  12.802   1.322  1.00 17.20     0.020 A 
HETATM    7  C6    D T 298      10.289  12.746   1.253  1.00 17.20     0.086 A 
HETATM    8  N1    D T 298       9.639  11.564   1.636  1.00 17.20    -0.208 NA
HETATM    9  C7    D T 298       8.271  11.399   1.594  1.00 17.20     0.284 A 
HETATM   10  O1    D T 298       7.755  10.334   1.944  1.00 17.20    -0.265 OA
HETATM   11  C8    D T 298       7.443  12.566   1.126  1.00 17.20     0.111 A 
HETATM   12  C10   D T 298       8.041  13.737   0.741  1.00 17.20     0.085 A 
ENDROOT
BRANCH  11  13
HETATM   13  C9    D T 298       5.998  12.466   1.052  1.00 17.20     0.169 A 
HETATM   14  N3    D T 298       5.207  12.459  -0.020  1.00 17.20    -0.225 NA
HETATM   15  C12   D T 298       3.922  12.357   0.448  1.00 17.20     0.101 A 
HETATM   16  C13   D T 298       3.905  12.306   1.840  1.00 17.20     0.101 A 
HETATM   17  C14   D T 298       2.704  12.307  -0.267  1.00 17.20     0.021 A 
HETATM   18  N4    D T 298       5.228  12.378   2.200  1.00 17.20    -0.225 NA
HETATM   19  C17   D T 298       2.721  12.200   2.586  1.00 17.20     0.021 A 
HETATM   20  C16   D T 298       1.514  12.152   1.858  1.00 17.20     0.002 A 
HETATM   21  C15   D T 298       1.503  12.203   0.455  1.00 17.20     0.002 A 
ENDBRANCH  11  13
BRANCH  12  22
HETATM   22  N2    D T 298       7.275  14.827   0.321  1.00 17.20    -0.270 NA
BRANCH  22  23
HETATM   23  C11   D T 298       7.461  15.797  -0.749  1.00 20.30     0.137 C 
HETATM   24  C18   D T 298       6.314  16.847  -0.709  1.00 20.30     0.274 C 
HETATM   25  N5    D T 298       5.575  16.845  -2.049  1.00 20.30     0.139 N 
HETATM   26  C19   D T 298       6.533  17.221  -3.168  1.00 20.30     0.250 C 
HETATM   27  C21   D T 298       4.965  15.475  -2.326  1.00 20.30     0.250 C 
HETATM   28  C20   D T 298       7.659  16.178  -3.220  1.00 20.30     0.037 C 
HETATM   29  C23   D T 298       7.453  15.095  -2.133  1.00 20.30     0.029 C 
HETATM   30  C22   D T 298       6.085  14.433  -2.381  1.00 20.30     0.037 C 
ENDBRANCH  22  23
ENDBRANCH  12  22
TORSDOF 3
ENDMDL
