MODEL 1
REMARK VINA RESULT:    -9.822      0.000      0.000
REMARK INTER + INTRA:         -13.985
REMARK INTER:                 -13.267
REMARK INTRA:                  -0.718
REMARK UNBOUND:                -0.718
REMARK  6 active torsions:
REMARK  status: ('A' for Active; 'I' for Inactive)
REMARK    1  A    between atoms: NBF_3  and  CAN_4 
REMARK    2  A    between atoms: NBG_8  and  CAS_9 
REMARK    3  A    between atoms: CAS_9  and  CAX_10 
REMARK    4  A    between atoms: CAY_15  and  CBA_16 
REMARK    5  A    between atoms: NAV_25  and  CBE_26 
REMARK    6  A    between atoms: CBE_26  and  CAZ_28 
ROOT
HETATM    1  CBA   D T2019       6.704  12.106   0.465  1.00 67.38     0.083 A 
HETATM    2  NAW   D T2019       7.323  12.499  -0.658  1.00 64.38    -0.227 NA
HETATM    3  CAM   D T2019       5.399  12.361   0.356  1.00 64.23     0.025 A 
HETATM    4  C5    D T2019       5.180  12.888  -0.845  1.00 64.03     0.073 A 
HETATM    5  C4    D T2019       6.403  12.973  -1.491  1.00 64.35     0.167 A 
HETATM    6  N3    D T2019       6.460  13.493  -2.736  1.00 65.15    -0.205 NA
HETATM    7  C2    D T2019       5.359  13.933  -3.357  1.00 64.91     0.202 A 
HETATM    8  N1    D T2019       4.174  13.861  -2.764  1.00 65.23    -0.205 NA
HETATM    9  C6    D T2019       4.042  13.344  -1.512  1.00 65.21     0.163 A 
HETATM   10  NAV   D T2019       2.843  13.277  -0.915  1.00 66.46    -0.250 NA
ENDROOT
BRANCH   1  11
HETATM   11  CAY   D T2019       7.337  11.569   1.586  1.00 67.34     0.018 A 
HETATM   12  CAK   D T2019       6.744  11.654   2.854  1.00 69.05     0.001 A 
HETATM   13  CAI   D T2019       7.385  11.086   3.959  1.00 70.54    -0.002 A 
HETATM   14  CAX   D T2019       8.613  10.438   3.785  1.00 71.07     0.011 A 
HETATM   15  CAJ   D T2019       9.192  10.333   2.525  1.00 68.91    -0.002 A 
HETATM   16  CAL   D T2019       8.550  10.899   1.430  1.00 67.71     0.001 A 
BRANCH  14  17
HETATM   17  CAS   D T2019       9.297   9.772   4.977  1.00 74.21     0.277 C 
BRANCH  17  18
HETATM   18  NBG   D T2019      10.759  10.066   4.781  1.00 81.39     0.146 N 
HETATM   19  CAQ   D T2019      11.616   8.927   5.199  1.00 83.32     0.286 C 
HETATM   20  CAO   D T2019      11.793   8.935   6.738  1.00 86.22     0.285 C 
HETATM   21  NBF   D T2019      12.399  10.211   7.243  1.00 86.50     0.141 N 
HETATM   22  CAP   D T2019      11.729  11.463   6.763  1.00 84.69     0.285 C 
HETATM   23  CAR   D T2019      11.184  11.412   5.308  1.00 81.90     0.286 C 
BRANCH  21  24
HETATM   24  CAN   D T2019      13.878  10.224   7.058  1.00 86.80     0.251 C 
HETATM   25  CAA   D T2019      14.513   8.916   7.588  1.00 86.31     0.037 C 
ENDBRANCH  21  24
ENDBRANCH  17  18
ENDBRANCH  14  17
ENDBRANCH   1  11
BRANCH  10  26
HETATM   26  CBE   D T2019       1.751  14.136  -1.389  1.00 69.45     0.127 C 
HETATM   27  CAB   D T2019       2.146  15.620  -1.417  1.00 70.81     0.031 C 
BRANCH  26  28
HETATM   28  CAZ   D T2019       0.533  13.884  -0.490  1.00 71.15    -0.000 A 
HETATM   29  CAG   D T2019       0.694  13.906   0.916  1.00 70.34    -0.002 A 
HETATM   30  CAD   D T2019      -0.386  13.664   1.774  1.00 69.22    -0.000 A 
HETATM   31  CAC   D T2019      -1.632  13.404   1.189  1.00 70.75    -0.000 A 
HETATM   32  CAE   D T2019      -1.800  13.386  -0.210  1.00 71.52    -0.000 A 
HETATM   33  CAH   D T2019      -0.720  13.613  -1.067  1.00 71.18    -0.002 A 
ENDBRANCH  26  28
ENDBRANCH  10  26
TORSDOF 6
ENDMDL
MODEL 2
REMARK VINA RESULT:    -9.729      2.221      3.726
REMARK INTER + INTRA:         -13.859
REMARK INTER:                 -12.737
REMARK INTRA:                  -1.122
REMARK UNBOUND:                -0.718
REMARK  6 active torsions:
REMARK  status: ('A' for Active; 'I' for Inactive)
REMARK    1  A    between atoms: NBF_3  and  CAN_4 
REMARK    2  A    between atoms: NBG_8  and  CAS_9 
REMARK    3  A    between atoms: CAS_9  and  CAX_10 
REMARK    4  A    between atoms: CAY_15  and  CBA_16 
REMARK    5  A    between atoms: NAV_25  and  CBE_26 
REMARK    6  A    between atoms: CBE_26  and  CAZ_28 
ROOT
HETATM    1  CBA   D T2019       5.337  12.568   1.561  1.00 67.38     0.083 A 
HETATM    2  NAW   D T2019       4.193  11.869   1.492  1.00 64.38    -0.227 NA
HETATM    3  CAM   D T2019       5.270  13.597   0.713  1.00 64.23     0.025 A 
HETATM    4  C5    D T2019       4.078  13.574   0.128  1.00 64.03     0.073 A 
HETATM    5  C4    D T2019       3.391  12.478   0.624  1.00 64.35     0.167 A 
HETATM    6  N3    D T2019       2.144  12.217   0.176  1.00 65.15    -0.205 NA
HETATM    7  C2    D T2019       1.560  12.993  -0.744  1.00 64.91     0.202 A 
HETATM    8  N1    D T2019       2.192  14.052  -1.236  1.00 65.23    -0.205 NA
HETATM    9  C6    D T2019       3.449  14.377  -0.824  1.00 65.21     0.163 A 
HETATM   10  NAV   D T2019       4.085  15.445  -1.328  1.00 66.46    -0.250 NA
ENDROOT
BRANCH   1  11
HETATM   11  CAY   D T2019       6.437  12.234   2.351  1.00 67.34     0.018 A 
HETATM   12  CAK   D T2019       6.342  11.230   3.325  1.00 69.05     0.001 A 
HETATM   13  CAI   D T2019       7.464  10.895   4.088  1.00 70.54    -0.002 A 
HETATM   14  CAX   D T2019       8.671  11.567   3.868  1.00 71.07     0.011 A 
HETATM   15  CAJ   D T2019       8.773  12.549   2.888  1.00 68.91    -0.002 A 
HETATM   16  CAL   D T2019       7.654  12.878   2.132  1.00 67.71     0.001 A 
BRANCH  14  17
HETATM   17  CAS   D T2019       9.915  11.175   4.662  1.00 74.21     0.277 C 
BRANCH  17  18
HETATM   18  NBG   D T2019      10.456   9.972   3.939  1.00 81.39     0.146 N 
HETATM   19  CAQ   D T2019      10.731   8.844   4.867  1.00 83.32     0.286 C 
HETATM   20  CAO   D T2019      12.090   9.062   5.577  1.00 86.22     0.285 C 
HETATM   21  NBF   D T2019      13.232   9.189   4.612  1.00 86.50     0.141 N 
HETATM   22  CAP   D T2019      13.024  10.185   3.512  1.00 84.69     0.285 C 
HETATM   23  CAR   D T2019      11.568  10.291   2.975  1.00 81.90     0.286 C 
BRANCH  21  24
HETATM   24  CAN   D T2019      13.685   7.855   4.124  1.00 86.80     0.251 C 
HETATM   25  CAA   D T2019      14.103   6.946   5.305  1.00 86.31     0.037 C 
ENDBRANCH  21  24
ENDBRANCH  17  18
ENDBRANCH  14  17
ENDBRANCH   1  11
BRANCH  10  26
HETATM   26  CBE   D T2019       3.647  16.010  -2.609  1.00 69.45     0.127 C 
HETATM   27  CAB   D T2019       4.757  15.979  -3.671  1.00 70.81     0.031 C 
BRANCH  26  28
HETATM   28  CAZ   D T2019       3.148  17.437  -2.346  1.00 71.15    -0.000 A 
HETATM   29  CAG   D T2019       3.309  18.000  -1.057  1.00 70.34    -0.002 A 
HETATM   30  CAD   D T2019       2.852  19.293  -0.767  1.00 69.22    -0.000 A 
HETATM   31  CAC   D T2019       2.234  20.007  -1.801  1.00 70.75    -0.000 A 
HETATM   32  CAE   D T2019       2.074  19.454  -3.087  1.00 71.52    -0.000 A 
HETATM   33  CAH   D T2019       2.516  18.160  -3.373  1.00 71.18    -0.002 A 
ENDBRANCH  26  28
ENDBRANCH  10  26
TORSDOF 6
ENDMDL
MODEL 3
REMARK VINA RESULT:    -9.674      2.235      3.902
REMARK INTER + INTRA:         -13.785
REMARK INTER:                 -12.624
REMARK INTRA:                  -1.162
REMARK UNBOUND:                -0.718
REMARK  6 active torsions:
REMARK  status: ('A' for Active; 'I' for Inactive)
REMARK    1  A    between atoms: NBF_3  and  CAN_4 
REMARK    2  A    between atoms: NBG_8  and  CAS_9 
REMARK    3  A    between atoms: CAS_9  and  CAX_10 
REMARK    4  A    between atoms: CAY_15  and  CBA_16 
REMARK    5  A    between atoms: NAV_25  and  CBE_26 
REMARK    6  A    between atoms: CBE_26  and  CAZ_28 
ROOT
HETATM    1  CBA   D T2019       6.135  11.873   2.790  1.00 67.38     0.083 A 
HETATM    2  NAW   D T2019       4.942  11.498   3.276  1.00 64.38    -0.227 NA
HETATM    3  CAM   D T2019       5.955  12.494   1.623  1.00 64.23     0.025 A 
HETATM    4  C5    D T2019       4.650  12.543   1.377  1.00 64.03     0.073 A 
HETATM    5  C4    D T2019       4.004  11.913   2.429  1.00 64.35     0.167 A 
HETATM    6  N3    D T2019       2.658  11.813   2.417  1.00 65.15    -0.205 NA
HETATM    7  C2    D T2019       1.934  12.305   1.406  1.00 64.91     0.202 A 
HETATM    8  N1    D T2019       2.524  12.917   0.386  1.00 65.23    -0.205 NA
HETATM    9  C6    D T2019       3.877  13.058   0.336  1.00 65.21     0.163 A 
HETATM   10  NAV   D T2019       4.469  13.672  -0.699  1.00 66.46    -0.250 NA
ENDROOT
BRANCH   1  11
HETATM   11  CAY   D T2019       7.366  11.603   3.387  1.00 67.34     0.018 A 
HETATM   12  CAK   D T2019       7.515  10.523   4.269  1.00 69.05     0.001 A 
HETATM   13  CAI   D T2019       8.765  10.257   4.835  1.00 70.54    -0.002 A 
HETATM   14  CAX   D T2019       9.854  11.074   4.515  1.00 71.07     0.011 A 
HETATM   15  CAJ   D T2019       9.714  12.133   3.625  1.00 68.91    -0.002 A 
HETATM   16  CAL   D T2019       8.469  12.393   3.063  1.00 67.71     0.001 A 
BRANCH  14  17
HETATM   17  CAS   D T2019      11.234  10.763   5.090  1.00 74.21     0.277 C 
BRANCH  17  18
HETATM   18  NBG   D T2019      11.757   9.649   4.226  1.00 81.39     0.146 N 
HETATM   19  CAQ   D T2019      12.005   8.409   5.007  1.00 83.32     0.286 C 
HETATM   20  CAO   D T2019      13.364   8.511   5.744  1.00 86.22     0.285 C 
HETATM   21  NBF   D T2019      14.514   8.735   4.807  1.00 86.50     0.141 N 
HETATM   22  CAP   D T2019      14.331   9.864   3.838  1.00 84.69     0.285 C 
HETATM   23  CAR   D T2019      12.881  10.063   3.313  1.00 81.90     0.286 C 
BRANCH  21  24
HETATM   24  CAN   D T2019      14.945   7.464   4.158  1.00 86.80     0.251 C 
HETATM   25  CAA   D T2019      15.179   6.355   5.214  1.00 86.31     0.037 C 
ENDBRANCH  21  24
ENDBRANCH  17  18
ENDBRANCH  14  17
ENDBRANCH   1  11
BRANCH  10  26
HETATM   26  CBE   D T2019       3.748  13.805  -1.970  1.00 69.45     0.127 C 
HETATM   27  CAB   D T2019       4.471  13.102  -3.128  1.00 70.81     0.031 C 
BRANCH  26  28
HETATM   28  CAZ   D T2019       3.552  15.302  -2.243  1.00 71.15    -0.000 A 
HETATM   29  CAG   D T2019       4.503  15.993  -3.032  1.00 70.34    -0.002 A 
HETATM   30  CAD   D T2019       4.373  17.363  -3.292  1.00 69.22    -0.000 A 
HETATM   31  CAC   D T2019       3.266  18.023  -2.746  1.00 70.75    -0.000 A 
HETATM   32  CAE   D T2019       2.312  17.341  -1.963  1.00 71.52    -0.000 A 
HETATM   33  CAH   D T2019       2.449  15.977  -1.691  1.00 71.18    -0.002 A 
ENDBRANCH  26  28
ENDBRANCH  10  26
TORSDOF 6
ENDMDL
MODEL 4
REMARK VINA RESULT:    -9.116      2.103      3.860
REMARK INTER + INTRA:         -13.032
REMARK INTER:                 -11.896
REMARK INTRA:                  -1.136
REMARK UNBOUND:                -0.718
REMARK  6 active torsions:
REMARK  status: ('A' for Active; 'I' for Inactive)
REMARK    1  A    between atoms: NBF_3  and  CAN_4 
REMARK    2  A    between atoms: NBG_8  and  CAS_9 
REMARK    3  A    between atoms: CAS_9  and  CAX_10 
REMARK    4  A    between atoms: CAY_15  and  CBA_16 
REMARK    5  A    between atoms: NAV_25  and  CBE_26 
REMARK    6  A    between atoms: CBE_26  and  CAZ_28 
ROOT
HETATM    1  CBA   D T2019       6.320  11.763   2.896  1.00 67.38     0.083 A 
HETATM    2  NAW   D T2019       5.157  11.400   3.459  1.00 64.38    -0.227 NA
HETATM    3  CAM   D T2019       6.069  12.413   1.758  1.00 64.23     0.025 A 
HETATM    4  C5    D T2019       4.751  12.493   1.609  1.00 64.03     0.073 A 
HETATM    5  C4    D T2019       4.170  11.852   2.692  1.00 64.35     0.167 A 
HETATM    6  N3    D T2019       2.824  11.779   2.776  1.00 65.15    -0.205 NA
HETATM    7  C2    D T2019       2.040  12.308   1.830  1.00 64.91     0.202 A 
HETATM    8  N1    D T2019       2.567  12.931   0.783  1.00 65.23    -0.205 NA
HETATM    9  C6    D T2019       3.916  13.046   0.637  1.00 65.21     0.163 A 
HETATM   10  NAV   D T2019       4.444  13.672  -0.424  1.00 66.46    -0.250 NA
ENDROOT
BRANCH   1  11
HETATM   11  CAY   D T2019       7.585  11.456   3.396  1.00 67.34     0.018 A 
HETATM   12  CAK   D T2019       7.762  10.399   4.301  1.00 69.05     0.001 A 
HETATM   13  CAI   D T2019       9.044  10.094   4.769  1.00 70.54    -0.002 A 
HETATM   14  CAX   D T2019      10.136  10.848   4.327  1.00 71.07     0.011 A 
HETATM   15  CAJ   D T2019       9.965  11.883   3.414  1.00 68.91    -0.002 A 
HETATM   16  CAL   D T2019       8.690  12.182   2.950  1.00 67.71     0.001 A 
BRANCH  14  17
HETATM   17  CAS   D T2019      11.545  10.492   4.795  1.00 74.21     0.277 C 
BRANCH  17  18
HETATM   18  NBG   D T2019      11.445  10.466   6.295  1.00 81.39     0.146 N 
HETATM   19  CAQ   D T2019      12.063  11.667   6.914  1.00 83.32     0.286 C 
HETATM   20  CAO   D T2019      13.600  11.494   6.986  1.00 86.22     0.285 C 
HETATM   21  NBF   D T2019      14.009  10.280   7.766  1.00 86.50     0.141 N 
HETATM   22  CAP   D T2019      13.335   9.006   7.355  1.00 84.69     0.285 C 
HETATM   23  CAR   D T2019      11.853   9.151   6.908  1.00 81.90     0.286 C 
BRANCH  21  24
HETATM   24  CAN   D T2019      13.955  10.530   9.235  1.00 86.80     0.251 C 
HETATM   25  CAA   D T2019      15.187  11.341   9.705  1.00 86.31     0.037 C 
ENDBRANCH  21  24
ENDBRANCH  17  18
ENDBRANCH  14  17
ENDBRANCH   1  11
BRANCH  10  26
HETATM   26  CBE   D T2019       3.636  13.848  -1.636  1.00 69.45     0.127 C 
HETATM   27  CAB   D T2019       4.208  13.078  -2.836  1.00 70.81     0.031 C 
BRANCH  26  28
HETATM   28  CAZ   D T2019       3.535  15.353  -1.918  1.00 71.15    -0.000 A 
HETATM   29  CAG   D T2019       4.672  16.045  -2.399  1.00 70.34    -0.002 A 
HETATM   30  CAD   D T2019       4.629  17.422  -2.653  1.00 69.22    -0.000 A 
HETATM   31  CAC   D T2019       3.419  18.087  -2.417  1.00 70.75    -0.000 A 
HETATM   32  CAE   D T2019       2.282  17.402  -1.943  1.00 71.52    -0.000 A 
HETATM   33  CAH   D T2019       2.328  16.031  -1.675  1.00 71.18    -0.002 A 
ENDBRANCH  26  28
ENDBRANCH  10  26
TORSDOF 6
ENDMDL
MODEL 5
REMARK VINA RESULT:    -8.585      2.909      5.131
REMARK INTER + INTRA:         -12.315
REMARK INTER:                 -11.294
REMARK INTRA:                  -1.021
REMARK UNBOUND:                -0.718
REMARK  6 active torsions:
REMARK  status: ('A' for Active; 'I' for Inactive)
REMARK    1  A    between atoms: NBF_3  and  CAN_4 
REMARK    2  A    between atoms: NBG_8  and  CAS_9 
REMARK    3  A    between atoms: CAS_9  and  CAX_10 
REMARK    4  A    between atoms: CAY_15  and  CBA_16 
REMARK    5  A    between atoms: NAV_25  and  CBE_26 
REMARK    6  A    between atoms: CBE_26  and  CAZ_28 
ROOT
HETATM    1  CBA   D T2019       7.777  10.927   3.741  1.00 67.38     0.083 A 
HETATM    2  NAW   D T2019       6.716  10.302   4.274  1.00 64.38    -0.227 NA
HETATM    3  CAM   D T2019       7.354  11.797   2.822  1.00 64.23     0.025 A 
HETATM    4  C5    D T2019       6.026  11.750   2.788  1.00 64.03     0.073 A 
HETATM    5  C4    D T2019       5.619  10.802   3.714  1.00 64.35     0.167 A 
HETATM    6  N3    D T2019       4.302  10.548   3.869  1.00 65.15    -0.205 NA
HETATM    7  C2    D T2019       3.381  11.190   3.141  1.00 64.91     0.202 A 
HETATM    8  N1    D T2019       3.740  12.106   2.250  1.00 65.23    -0.205 NA
HETATM    9  C6    D T2019       5.050  12.416   2.046  1.00 65.21     0.163 A 
HETATM   10  NAV   D T2019       5.408  13.338   1.141  1.00 66.46    -0.250 NA
ENDROOT
BRANCH   1  11
HETATM   11  CAY   D T2019       9.109  10.664   4.061  1.00 67.34     0.018 A 
HETATM   12  CAK   D T2019      10.145  11.069   3.207  1.00 69.05     0.001 A 
HETATM   13  CAI   D T2019      11.473  10.817   3.560  1.00 70.54    -0.002 A 
HETATM   14  CAX   D T2019      11.753  10.164   4.766  1.00 71.07     0.011 A 
HETATM   15  CAJ   D T2019      10.729   9.781   5.624  1.00 68.91    -0.002 A 
HETATM   16  CAL   D T2019       9.409  10.034   5.268  1.00 67.71     0.001 A 
BRANCH  14  17
HETATM   17  CAS   D T2019      13.203   9.928   5.184  1.00 74.21     0.277 C 
BRANCH  17  18
HETATM   18  NBG   D T2019      13.248   8.475   5.570  1.00 81.39     0.146 N 
HETATM   19  CAQ   D T2019      14.193   8.228   6.691  1.00 83.32     0.286 C 
HETATM   20  CAO   D T2019      15.644   8.159   6.155  1.00 86.22     0.285 C 
HETATM   21  NBF   D T2019      15.827   7.089   5.119  1.00 86.50     0.141 N 
HETATM   22  CAP   D T2019      14.832   7.115   3.999  1.00 84.69     0.285 C 
HETATM   23  CAR   D T2019      13.390   7.539   4.398  1.00 81.90     0.286 C 
BRANCH  21  24
HETATM   24  CAN   D T2019      15.979   5.744   5.743  1.00 86.80     0.251 C 
HETATM   25  CAA   D T2019      15.758   4.622   4.701  1.00 86.31     0.037 C 
ENDBRANCH  21  24
ENDBRANCH  17  18
ENDBRANCH  14  17
ENDBRANCH   1  11
BRANCH  10  26
HETATM   26  CBE   D T2019       4.473  13.701   0.069  1.00 69.45     0.127 C 
HETATM   27  CAB   D T2019       4.253  12.552  -0.927  1.00 70.81     0.031 C 
BRANCH  26  28
HETATM   28  CAZ   D T2019       5.015  14.960  -0.619  1.00 71.15    -0.000 A 
HETATM   29  CAG   D T2019       4.288  15.531  -1.692  1.00 70.34    -0.002 A 
HETATM   30  CAD   D T2019       4.755  16.669  -2.361  1.00 69.22    -0.000 A 
HETATM   31  CAC   D T2019       5.965  17.224  -1.927  1.00 70.75    -0.000 A 
HETATM   32  CAE   D T2019       6.692  16.664  -0.857  1.00 71.52    -0.000 A 
HETATM   33  CAH   D T2019       6.234  15.519  -0.198  1.00 71.18    -0.002 A 
ENDBRANCH  26  28
ENDBRANCH  10  26
TORSDOF 6
ENDMDL
MODEL 6
REMARK VINA RESULT:    -8.376      4.434      7.986
REMARK INTER + INTRA:         -12.032
REMARK INTER:                 -11.686
REMARK INTRA:                  -0.346
REMARK UNBOUND:                -0.718
REMARK  6 active torsions:
REMARK  status: ('A' for Active; 'I' for Inactive)
REMARK    1  A    between atoms: NBF_3  and  CAN_4 
REMARK    2  A    between atoms: NBG_8  and  CAS_9 
REMARK    3  A    between atoms: CAS_9  and  CAX_10 
REMARK    4  A    between atoms: CAY_15  and  CBA_16 
REMARK    5  A    between atoms: NAV_25  and  CBE_26 
REMARK    6  A    between atoms: CBE_26  and  CAZ_28 
ROOT
HETATM    1  CBA   D T2019       7.475  13.667   1.203  1.00 67.38     0.083 A 
HETATM    2  NAW   D T2019       7.988  12.730   2.015  1.00 64.38    -0.227 NA
HETATM    3  CAM   D T2019       6.143  13.622   1.273  1.00 64.23     0.025 A 
HETATM    4  C5    D T2019       5.807  12.680   2.149  1.00 64.03     0.073 A 
HETATM    5  C4    D T2019       6.980  12.116   2.624  1.00 64.35     0.167 A 
HETATM    6  N3    D T2019       6.915  11.114   3.528  1.00 65.15    -0.205 NA
HETATM    7  C2    D T2019       5.740  10.651   3.969  1.00 64.91     0.202 A 
HETATM    8  N1    D T2019       4.601  11.175   3.535  1.00 65.23    -0.205 NA
HETATM    9  C6    D T2019       4.591  12.191   2.629  1.00 65.21     0.163 A 
HETATM   10  NAV   D T2019       3.437  12.713   2.190  1.00 66.46    -0.250 NA
ENDROOT
BRANCH   1  11
HETATM   11  CAY   D T2019       8.218  14.510   0.377  1.00 67.34     0.018 A 
HETATM   12  CAK   D T2019       7.585  15.320  -0.577  1.00 69.05     0.001 A 
HETATM   13  CAI   D T2019       8.349  16.176  -1.376  1.00 70.54    -0.002 A 
HETATM   14  CAX   D T2019       9.738  16.215  -1.213  1.00 71.07     0.011 A 
HETATM   15  CAJ   D T2019      10.365  15.428  -0.253  1.00 68.91    -0.002 A 
HETATM   16  CAL   D T2019       9.601  14.579   0.540  1.00 67.71     0.001 A 
BRANCH  14  17
HETATM   17  CAS   D T2019      10.575  17.182  -2.046  1.00 74.21     0.277 C 
BRANCH  17  18
HETATM   18  NBG   D T2019      10.192  16.877  -3.468  1.00 81.39     0.146 N 
HETATM   19  CAQ   D T2019      10.776  15.594  -3.938  1.00 83.32     0.286 C 
HETATM   20  CAO   D T2019      12.253  15.804  -4.353  1.00 86.22     0.285 C 
HETATM   21  NBF   D T2019      12.409  16.834  -5.432  1.00 86.50     0.141 N 
HETATM   22  CAP   D T2019      11.725  18.140  -5.165  1.00 84.69     0.285 C 
HETATM   23  CAR   D T2019      10.370  18.041  -4.408  1.00 81.90     0.286 C 
BRANCH  21  24
HETATM   24  CAN   D T2019      12.098  16.268  -6.776  1.00 86.80     0.251 C 
HETATM   25  CAA   D T2019      12.639  17.183  -7.901  1.00 86.31     0.037 C 
ENDBRANCH  21  24
ENDBRANCH  17  18
ENDBRANCH  14  17
ENDBRANCH   1  11
BRANCH  10  26
HETATM   26  CBE   D T2019       2.197  11.941   2.322  1.00 69.45     0.127 C 
HETATM   27  CAB   D T2019       2.416  10.439   2.079  1.00 70.81     0.031 C 
BRANCH  26  28
HETATM   28  CAZ   D T2019       1.169  12.534   1.350  1.00 71.15    -0.000 A 
HETATM   29  CAG   D T2019      -0.031  13.085   1.862  1.00 70.34    -0.002 A 
HETATM   30  CAD   D T2019      -1.005  13.621   1.009  1.00 69.22    -0.000 A 
HETATM   31  CAC   D T2019      -0.746  13.594  -0.367  1.00 70.75    -0.000 A 
HETATM   32  CAE   D T2019       0.448  13.051  -0.882  1.00 71.52    -0.000 A 
HETATM   33  CAH   D T2019       1.414  12.503  -0.034  1.00 71.18    -0.002 A 
ENDBRANCH  26  28
ENDBRANCH  10  26
TORSDOF 6
ENDMDL
MODEL 7
REMARK VINA RESULT:    -8.330      2.615     11.482
REMARK INTER + INTRA:         -11.969
REMARK INTER:                 -11.158
REMARK INTRA:                  -0.811
REMARK UNBOUND:                -0.718
REMARK  6 active torsions:
REMARK  status: ('A' for Active; 'I' for Inactive)
REMARK    1  A    between atoms: NBF_3  and  CAN_4 
REMARK    2  A    between atoms: NBG_8  and  CAS_9 
REMARK    3  A    between atoms: CAS_9  and  CAX_10 
REMARK    4  A    between atoms: CAY_15  and  CBA_16 
REMARK    5  A    between atoms: NAV_25  and  CBE_26 
REMARK    6  A    between atoms: CBE_26  and  CAZ_28 
ROOT
HETATM    1  CBA   D T2019       7.380  11.468   3.310  1.00 67.38     0.083 A 
HETATM    2  NAW   D T2019       7.449  10.254   3.877  1.00 64.38    -0.227 NA
HETATM    3  CAM   D T2019       8.521  12.121   3.538  1.00 64.23     0.025 A 
HETATM    4  C5    D T2019       9.328  11.317   4.222  1.00 64.03     0.073 A 
HETATM    5  C4    D T2019       8.648  10.128   4.436  1.00 64.35     0.167 A 
HETATM    6  N3    D T2019       9.248   9.135   5.127  1.00 65.15    -0.205 NA
HETATM    7  C2    D T2019      10.485   9.279   5.616  1.00 64.91     0.202 A 
HETATM    8  N1    D T2019      11.162  10.404   5.425  1.00 65.23    -0.205 NA
HETATM    9  C6    D T2019      10.621  11.444   4.732  1.00 65.21     0.163 A 
HETATM   10  NAV   D T2019      11.307  12.581   4.546  1.00 66.46    -0.250 NA
ENDROOT
BRANCH   1  11
HETATM   11  CAY   D T2019       6.269  11.981   2.640  1.00 67.34     0.018 A 
HETATM   12  CAK   D T2019       4.969  11.627   3.031  1.00 69.05     0.001 A 
HETATM   13  CAI   D T2019       3.871  12.173   2.361  1.00 70.54    -0.002 A 
HETATM   14  CAX   D T2019       4.083  13.068   1.307  1.00 71.07     0.011 A 
HETATM   15  CAJ   D T2019       5.370  13.437   0.932  1.00 68.91    -0.002 A 
HETATM   16  CAL   D T2019       6.459  12.892   1.602  1.00 67.71     0.001 A 
BRANCH  14  17
HETATM   17  CAS   D T2019       2.889  13.707   0.601  1.00 74.21     0.277 C 
BRANCH  17  18
HETATM   18  NBG   D T2019       1.793  12.685   0.719  1.00 81.39     0.146 N 
HETATM   19  CAQ   D T2019       1.154  12.401  -0.592  1.00 83.32     0.286 C 
HETATM   20  CAO   D T2019       0.123  13.507  -0.929  1.00 86.22     0.285 C 
HETATM   21  NBF   D T2019      -0.946  13.637   0.116  1.00 86.50     0.141 N 
HETATM   22  CAP   D T2019      -0.444  13.767   1.522  1.00 84.69     0.285 C 
HETATM   23  CAR   D T2019       0.836  12.948   1.852  1.00 81.90     0.286 C 
BRANCH  21  24
HETATM   24  CAN   D T2019      -1.996  12.591  -0.043  1.00 86.80     0.251 C 
HETATM   25  CAA   D T2019      -2.581  12.607  -1.476  1.00 86.31     0.037 C 
ENDBRANCH  21  24
ENDBRANCH  17  18
ENDBRANCH  14  17
ENDBRANCH   1  11
BRANCH  10  26
HETATM   26  CBE   D T2019      12.436  12.897   5.428  1.00 69.45     0.127 C 
HETATM   27  CAB   D T2019      11.996  13.659   6.688  1.00 70.81     0.031 C 
BRANCH  26  28
HETATM   28  CAZ   D T2019      13.463  13.691   4.610  1.00 71.15    -0.000 A 
HETATM   29  CAG   D T2019      13.180  14.000   3.257  1.00 70.34    -0.002 A 
HETATM   30  CAD   D T2019      14.096  14.707   2.468  1.00 69.22    -0.000 A 
HETATM   31  CAC   D T2019      15.300  15.099   3.068  1.00 70.75    -0.000 A 
HETATM   32  CAE   D T2019      15.585  14.799   4.415  1.00 71.52    -0.000 A 
HETATM   33  CAH   D T2019      14.678  14.081   5.199  1.00 71.18    -0.002 A 
ENDBRANCH  26  28
ENDBRANCH  10  26
TORSDOF 6
ENDMDL
MODEL 8
REMARK VINA RESULT:    -8.024      2.409      5.198
REMARK INTER + INTRA:         -11.557
REMARK INTER:                 -10.695
REMARK INTRA:                  -0.862
REMARK UNBOUND:                -0.718
REMARK  6 active torsions:
REMARK  status: ('A' for Active; 'I' for Inactive)
REMARK    1  A    between atoms: NBF_3  and  CAN_4 
REMARK    2  A    between atoms: NBG_8  and  CAS_9 
REMARK    3  A    between atoms: CAS_9  and  CAX_10 
REMARK    4  A    between atoms: CAY_15  and  CBA_16 
REMARK    5  A    between atoms: NAV_25  and  CBE_26 
REMARK    6  A    between atoms: CBE_26  and  CAZ_28 
ROOT
HETATM    1  CBA   D T2019       5.897  12.539   1.104  1.00 67.38     0.083 A 
HETATM    2  NAW   D T2019       4.558  12.504   1.178  1.00 64.38    -0.227 NA
HETATM    3  CAM   D T2019       6.259  13.430   0.178  1.00 64.23     0.025 A 
HETATM    4  C5    D T2019       5.156  13.984  -0.316  1.00 64.03     0.073 A 
HETATM    5  C4    D T2019       4.074  13.398   0.322  1.00 64.35     0.167 A 
HETATM    6  N3    D T2019       2.822  13.778  -0.011  1.00 65.15    -0.205 NA
HETATM    7  C2    D T2019       2.604  14.706  -0.950  1.00 64.91     0.202 A 
HETATM    8  N1    D T2019       3.621  15.287  -1.575  1.00 65.23    -0.205 NA
HETATM    9  C6    D T2019       4.909  14.956  -1.286  1.00 65.21     0.163 A 
HETATM   10  NAV   D T2019       5.932  15.543  -1.924  1.00 66.46    -0.250 NA
ENDROOT
BRANCH   1  11
HETATM   11  CAY   D T2019       6.765  11.731   1.838  1.00 67.34     0.018 A 
HETATM   12  CAK   D T2019       7.977  11.292   1.286  1.00 69.05     0.001 A 
HETATM   13  CAI   D T2019       8.842  10.504   2.050  1.00 70.54    -0.002 A 
HETATM   14  CAX   D T2019       8.487  10.162   3.359  1.00 71.07     0.011 A 
HETATM   15  CAJ   D T2019       7.296  10.614   3.916  1.00 68.91    -0.002 A 
HETATM   16  CAL   D T2019       6.439  11.398   3.153  1.00 67.71     0.001 A 
BRANCH  14  17
HETATM   17  CAS   D T2019       9.447   9.343   4.218  1.00 74.21     0.277 C 
BRANCH  17  18
HETATM   18  NBG   D T2019       9.806  10.259   5.356  1.00 81.39     0.146 N 
HETATM   19  CAQ   D T2019      10.757  11.320   4.935  1.00 83.32     0.286 C 
HETATM   20  CAO   D T2019      12.199  10.756   4.900  1.00 86.22     0.285 C 
HETATM   21  NBF   D T2019      12.637  10.207   6.226  1.00 86.50     0.141 N 
HETATM   22  CAP   D T2019      11.684   9.235   6.855  1.00 84.69     0.285 C 
HETATM   23  CAR   D T2019      10.176   9.536   6.625  1.00 81.90     0.286 C 
BRANCH  21  24
HETATM   24  CAN   D T2019      13.069  11.293   7.151  1.00 86.80     0.251 C 
HETATM   25  CAA   D T2019      14.570  11.620   6.957  1.00 86.31     0.037 C 
ENDBRANCH  21  24
ENDBRANCH  17  18
ENDBRANCH  14  17
ENDBRANCH   1  11
BRANCH  10  26
HETATM   26  CBE   D T2019       5.698  16.201  -3.214  1.00 69.45     0.127 C 
HETATM   27  CAB   D T2019       5.198  15.222  -4.287  1.00 70.81     0.031 C 
BRANCH  26  28
HETATM   28  CAZ   D T2019       7.004  16.890  -3.632  1.00 71.15    -0.000 A 
HETATM   29  CAG   D T2019       6.976  17.857  -4.667  1.00 70.34    -0.002 A 
HETATM   30  CAD   D T2019       8.147  18.497  -5.093  1.00 69.22    -0.000 A 
HETATM   31  CAC   D T2019       9.344  18.148  -4.456  1.00 70.75    -0.000 A 
HETATM   32  CAE   D T2019       9.378  17.191  -3.422  1.00 71.52    -0.000 A 
HETATM   33  CAH   D T2019       8.213  16.540  -3.006  1.00 71.18    -0.002 A 
ENDBRANCH  26  28
ENDBRANCH  10  26
TORSDOF 6
ENDMDL
MODEL 9
REMARK VINA RESULT:    -7.764      5.845     10.852
REMARK INTER + INTRA:         -11.205
REMARK INTER:                 -10.123
REMARK INTRA:                  -1.082
REMARK UNBOUND:                -0.718
REMARK  6 active torsions:
REMARK  status: ('A' for Active; 'I' for Inactive)
REMARK    1  A    between atoms: NBF_3  and  CAN_4 
REMARK    2  A    between atoms: NBG_8  and  CAS_9 
REMARK    3  A    between atoms: CAS_9  and  CAX_10 
REMARK    4  A    between atoms: CAY_15  and  CBA_16 
REMARK    5  A    between atoms: NAV_25  and  CBE_26 
REMARK    6  A    between atoms: CBE_26  and  CAZ_28 
ROOT
HETATM    1  CBA   D T2019       7.526  16.568  -3.773  1.00 67.38     0.083 A 
HETATM    2  NAW   D T2019       7.632  17.771  -4.357  1.00 64.38    -0.227 NA
HETATM    3  CAM   D T2019       8.715  15.963  -3.802  1.00 64.23     0.025 A 
HETATM    4  C5    D T2019       9.585  16.788  -4.377  1.00 64.03     0.073 A 
HETATM    5  C4    D T2019       8.897  17.940  -4.727  1.00 64.35     0.167 A 
HETATM    6  N3    D T2019       9.556  18.943  -5.346  1.00 65.15    -0.205 NA
HETATM    7  C2    D T2019      10.858  18.845  -5.634  1.00 64.91     0.202 A 
HETATM    8  N1    D T2019      11.544  17.756  -5.308  1.00 65.23    -0.205 NA
HETATM    9  C6    D T2019      10.945  16.709  -4.677  1.00 65.21     0.163 A 
HETATM   10  NAV   D T2019      11.641  15.609  -4.354  1.00 66.46    -0.250 NA
ENDROOT
BRANCH   1  11
HETATM   11  CAY   D T2019       6.347  16.021  -3.268  1.00 67.34     0.018 A 
HETATM   12  CAK   D T2019       5.555  16.737  -2.359  1.00 69.05     0.001 A 
HETATM   13  CAI   D T2019       4.364  16.178  -1.886  1.00 70.54    -0.002 A 
HETATM   14  CAX   D T2019       3.977  14.908  -2.327  1.00 71.07     0.011 A 
HETATM   15  CAJ   D T2019       4.750  14.205  -3.244  1.00 68.91    -0.002 A 
HETATM   16  CAL   D T2019       5.933  14.765  -3.712  1.00 67.71     0.001 A 
BRANCH  14  17
HETATM   17  CAS   D T2019       2.654  14.309  -1.854  1.00 74.21     0.277 C 
BRANCH  17  18
HETATM   18  NBG   D T2019       2.788  14.242  -0.357  1.00 81.39     0.146 N 
HETATM   19  CAQ   D T2019       3.720  13.165   0.069  1.00 83.32     0.286 C 
HETATM   20  CAO   D T2019       2.995  11.797   0.045  1.00 86.22     0.285 C 
HETATM   21  NBF   D T2019       1.783  11.770   0.929  1.00 86.50     0.141 N 
HETATM   22  CAP   D T2019       0.822  12.902   0.721  1.00 84.69     0.285 C 
HETATM   23  CAR   D T2019       1.471  14.271   0.373  1.00 81.90     0.286 C 
BRANCH  21  24
HETATM   24  CAN   D T2019       2.154  11.565   2.358  1.00 86.80     0.251 C 
HETATM   25  CAA   D T2019       2.201  10.057   2.706  1.00 86.31     0.037 C 
ENDBRANCH  21  24
ENDBRANCH  17  18
ENDBRANCH  14  17
ENDBRANCH   1  11
BRANCH  10  26
HETATM   26  CBE   D T2019      12.905  15.325  -5.042  1.00 69.45     0.127 C 
HETATM   27  CAB   D T2019      12.688  14.682  -6.421  1.00 70.81     0.031 C 
BRANCH  26  28
HETATM   28  CAZ   D T2019      13.749  14.433  -4.122  1.00 71.15    -0.000 A 
HETATM   29  CAG   D T2019      13.239  14.068  -2.853  1.00 70.34    -0.002 A 
HETATM   30  CAD   D T2019      13.983  13.270  -1.974  1.00 69.22    -0.000 A 
HETATM   31  CAC   D T2019      15.247  12.843  -2.399  1.00 70.75    -0.000 A 
HETATM   32  CAE   D T2019      15.759  13.199  -3.664  1.00 71.52    -0.000 A 
HETATM   33  CAH   D T2019      15.024  14.007  -4.535  1.00 71.18    -0.002 A 
ENDBRANCH  26  28
ENDBRANCH  10  26
TORSDOF 6
ENDMDL
