MODEL 1
REMARK VINA RESULT:    -8.197      0.000      0.000
REMARK INTER + INTRA:         -11.884
REMARK INTER:                 -11.072
REMARK INTRA:                  -0.811
REMARK UNBOUND:                -0.811
REMARK  6 active torsions:
REMARK  status: ('A' for Active; 'I' for Inactive)
REMARK    1  A    between atoms: NBF_3  and  CAN_4 
REMARK    2  A    between atoms: NBG_8  and  CAS_9 
REMARK    3  A    between atoms: CAS_9  and  CAX_10 
REMARK    4  A    between atoms: CAY_15  and  CBA_16 
REMARK    5  A    between atoms: NAV_25  and  CBE_26 
REMARK    6  A    between atoms: CBE_26  and  CAZ_28 
ROOT
HETATM    1  CBA   D T2019       3.487   5.771   8.400  1.00 67.38     0.083 A 
HETATM    2  NAW   D T2019       3.701   6.844   7.624  1.00 64.38    -0.227 NA
HETATM    3  CAM   D T2019       4.603   5.043   8.457  1.00 64.23     0.025 A 
HETATM    4  C5    D T2019       5.538   5.664   7.745  1.00 64.03     0.073 A 
HETATM    5  C4    D T2019       4.966   6.811   7.217  1.00 64.35     0.167 A 
HETATM    6  N3    D T2019       5.709   7.623   6.434  1.00 65.15    -0.205 NA
HETATM    7  C2    D T2019       6.986   7.337   6.153  1.00 64.91     0.202 A 
HETATM    8  N1    D T2019       7.561   6.248   6.646  1.00 65.23    -0.205 NA
HETATM    9  C6    D T2019       6.873   5.389   7.447  1.00 65.21     0.163 A 
HETATM   10  NAV   D T2019       7.457   4.286   7.939  1.00 66.46    -0.250 NA
ENDROOT
BRANCH   1  11
HETATM   11  CAY   D T2019       2.270   5.444   9.002  1.00 67.34     0.018 A 
HETATM   12  CAK   D T2019       1.804   6.161  10.113  1.00 69.05     0.001 A 
HETATM   13  CAI   D T2019       0.571   5.832  10.683  1.00 70.54    -0.002 A 
HETATM   14  CAX   D T2019      -0.184   4.790  10.136  1.00 71.07     0.011 A 
HETATM   15  CAJ   D T2019       0.267   4.091   9.021  1.00 68.91    -0.002 A 
HETATM   16  CAL   D T2019       1.493   4.423   8.457  1.00 67.71     0.001 A 
BRANCH  14  17
HETATM   17  CAS   D T2019      -1.554   4.455  10.721  1.00 74.21     0.277 C 
BRANCH  17  18
HETATM   18  NBG   D T2019      -1.545   2.958  10.857  1.00 81.39     0.146 N 
HETATM   19  CAQ   D T2019      -2.919   2.390  10.836  1.00 83.32     0.286 C 
HETATM   20  CAO   D T2019      -3.574   2.539  12.231  1.00 86.22     0.285 C 
HETATM   21  NBF   D T2019      -2.786   1.867  13.316  1.00 86.50     0.141 N 
HETATM   22  CAP   D T2019      -1.331   2.223  13.355  1.00 84.69     0.285 C 
HETATM   23  CAR   D T2019      -0.663   2.453  11.968  1.00 81.90     0.286 C 
BRANCH  21  24
HETATM   24  CAN   D T2019      -3.036   0.396  13.341  1.00 86.80     0.251 C 
HETATM   25  CAA   D T2019      -4.467   0.087  13.843  1.00 86.31     0.037 C 
ENDBRANCH  21  24
ENDBRANCH  17  18
ENDBRANCH  14  17
ENDBRANCH   1  11
BRANCH  10  26
HETATM   26  CBE   D T2019       8.665   3.758   7.293  1.00 69.45     0.127 C 
HETATM   27  CAB   D T2019       8.414   3.353   5.832  1.00 70.81     0.031 C 
BRANCH  26  28
HETATM   28  CAZ   D T2019       9.169   2.579   8.135  1.00 71.15    -0.000 A 
HETATM   29  CAG   D T2019       9.999   1.602   7.533  1.00 70.34    -0.002 A 
HETATM   30  CAD   D T2019      10.465   0.500   8.259  1.00 69.22    -0.000 A 
HETATM   31  CAC   D T2019      10.086   0.402   9.604  1.00 70.75    -0.000 A 
HETATM   32  CAE   D T2019       9.265   1.374  10.210  1.00 71.52    -0.000 A 
HETATM   33  CAH   D T2019       8.786   2.466   9.482  1.00 71.18    -0.002 A 
ENDBRANCH  26  28
ENDBRANCH  10  26
TORSDOF 6
ENDMDL
MODEL 2
REMARK VINA RESULT:    -7.969      2.034      2.808
REMARK INTER + INTRA:         -11.576
REMARK INTER:                 -10.835
REMARK INTRA:                  -0.741
REMARK UNBOUND:                -0.811
REMARK  6 active torsions:
REMARK  status: ('A' for Active; 'I' for Inactive)
REMARK    1  A    between atoms: NBF_3  and  CAN_4 
REMARK    2  A    between atoms: NBG_8  and  CAS_9 
REMARK    3  A    between atoms: CAS_9  and  CAX_10 
REMARK    4  A    between atoms: CAY_15  and  CBA_16 
REMARK    5  A    between atoms: NAV_25  and  CBE_26 
REMARK    6  A    between atoms: CBE_26  and  CAZ_28 
ROOT
HETATM    1  CBA   D T2019       4.670   5.282   9.937  1.00 67.38     0.083 A 
HETATM    2  NAW   D T2019       5.297   6.104  10.792  1.00 64.38    -0.227 NA
HETATM    3  CAM   D T2019       5.579   4.663   9.181  1.00 64.23     0.025 A 
HETATM    4  C5    D T2019       6.783   5.065   9.571  1.00 64.03     0.073 A 
HETATM    5  C4    D T2019       6.606   5.979  10.597  1.00 64.35     0.167 A 
HETATM    6  N3    D T2019       7.686   6.556  11.168  1.00 65.15    -0.205 NA
HETATM    7  C2    D T2019       8.925   6.264  10.756  1.00 64.91     0.202 A 
HETATM    8  N1    D T2019       9.127   5.391   9.778  1.00 65.23    -0.205 NA
HETATM    9  C6    D T2019       8.084   4.768   9.164  1.00 65.21     0.163 A 
HETATM   10  NAV   D T2019       8.293   3.889   8.172  1.00 66.46    -0.250 NA
ENDROOT
BRANCH   1  11
HETATM   11  CAY   D T2019       3.285   5.144   9.823  1.00 67.34     0.018 A 
HETATM   12  CAK   D T2019       2.422   6.125  10.333  1.00 69.05     0.001 A 
HETATM   13  CAI   D T2019       1.040   5.977  10.185  1.00 70.54    -0.002 A 
HETATM   14  CAX   D T2019       0.536   4.852   9.527  1.00 71.07     0.011 A 
HETATM   15  CAJ   D T2019       1.390   3.888   9.001  1.00 68.91    -0.002 A 
HETATM   16  CAL   D T2019       2.764   4.040   9.151  1.00 67.71     0.001 A 
BRANCH  14  17
HETATM   17  CAS   D T2019      -0.970   4.705   9.316  1.00 74.21     0.277 C 
BRANCH  17  18
HETATM   18  NBG   D T2019      -1.541   4.686  10.707  1.00 81.39     0.146 N 
HETATM   19  CAQ   D T2019      -1.011   3.552  11.510  1.00 83.32     0.286 C 
HETATM   20  CAO   D T2019      -1.768   2.250  11.152  1.00 86.22     0.285 C 
HETATM   21  NBF   D T2019      -3.247   2.359  11.381  1.00 86.50     0.141 N 
HETATM   22  CAP   D T2019      -3.897   3.558  10.760  1.00 84.69     0.285 C 
HETATM   23  CAR   D T2019      -3.037   4.854  10.752  1.00 81.90     0.286 C 
BRANCH  21  24
HETATM   24  CAN   D T2019      -3.591   2.180  12.821  1.00 86.80     0.251 C 
HETATM   25  CAA   D T2019      -3.059   0.826  13.353  1.00 86.31     0.037 C 
ENDBRANCH  21  24
ENDBRANCH  17  18
ENDBRANCH  14  17
ENDBRANCH   1  11
BRANCH  10  26
HETATM   26  CBE   D T2019       9.568   3.908   7.445  1.00 69.45     0.127 C 
HETATM   27  CAB   D T2019       9.776   5.218   6.668  1.00 70.81     0.031 C 
BRANCH  26  28
HETATM   28  CAZ   D T2019       9.599   2.684   6.521  1.00 71.15    -0.000 A 
HETATM   29  CAG   D T2019       8.892   2.723   5.295  1.00 70.34    -0.002 A 
HETATM   30  CAD   D T2019       8.879   1.622   4.431  1.00 69.22    -0.000 A 
HETATM   31  CAC   D T2019       9.593   0.481   4.821  1.00 70.75    -0.000 A 
HETATM   32  CAE   D T2019      10.303   0.439   6.039  1.00 71.52    -0.000 A 
HETATM   33  CAH   D T2019      10.305   1.532   6.909  1.00 71.18    -0.002 A 
ENDBRANCH  26  28
ENDBRANCH  10  26
TORSDOF 6
ENDMDL
MODEL 3
REMARK VINA RESULT:    -7.834      3.684      9.700
REMARK INTER + INTRA:         -11.394
REMARK INTER:                 -10.224
REMARK INTRA:                  -1.170
REMARK UNBOUND:                -0.811
REMARK  6 active torsions:
REMARK  status: ('A' for Active; 'I' for Inactive)
REMARK    1  A    between atoms: NBF_3  and  CAN_4 
REMARK    2  A    between atoms: NBG_8  and  CAS_9 
REMARK    3  A    between atoms: CAS_9  and  CAX_10 
REMARK    4  A    between atoms: CAY_15  and  CBA_16 
REMARK    5  A    between atoms: NAV_25  and  CBE_26 
REMARK    6  A    between atoms: CBE_26  and  CAZ_28 
ROOT
HETATM    1  CBA   D T2019       5.786   3.576   9.971  1.00 67.38     0.083 A 
HETATM    2  NAW   D T2019       6.101   4.267   8.865  1.00 64.38    -0.227 NA
HETATM    3  CAM   D T2019       4.537   3.876  10.332  1.00 64.23     0.025 A 
HETATM    4  C5    D T2019       4.045   4.732   9.444  1.00 64.03     0.073 A 
HETATM    5  C4    D T2019       5.037   4.979   8.508  1.00 64.35     0.167 A 
HETATM    6  N3    D T2019       4.794   5.836   7.493  1.00 65.15    -0.205 NA
HETATM    7  C2    D T2019       3.614   6.456   7.377  1.00 64.91     0.202 A 
HETATM    8  N1    D T2019       2.644   6.237   8.255  1.00 65.23    -0.205 NA
HETATM    9  C6    D T2019       2.818   5.382   9.299  1.00 65.21     0.163 A 
HETATM   10  NAV   D T2019       1.836   5.168  10.187  1.00 66.46    -0.250 NA
ENDROOT
BRANCH   1  11
HETATM   11  CAY   D T2019       6.652   2.725  10.661  1.00 67.34     0.018 A 
HETATM   12  CAK   D T2019       7.853   2.296  10.078  1.00 69.05     0.001 A 
HETATM   13  CAI   D T2019       8.715   1.465  10.798  1.00 70.54    -0.002 A 
HETATM   14  CAX   D T2019       8.368   1.071  12.094  1.00 71.07     0.011 A 
HETATM   15  CAJ   D T2019       7.187   1.512  12.682  1.00 68.91    -0.002 A 
HETATM   16  CAL   D T2019       6.334   2.339  11.962  1.00 67.71     0.001 A 
BRANCH  14  17
HETATM   17  CAS   D T2019       9.326   0.203  12.907  1.00 74.21     0.277 C 
BRANCH  17  18
HETATM   18  NBG   D T2019       8.617  -1.116  13.034  1.00 81.39     0.146 N 
HETATM   19  CAQ   D T2019       8.543  -1.574  14.447  1.00 83.32     0.286 C 
HETATM   20  CAO   D T2019       9.884  -2.224  14.863  1.00 86.22     0.285 C 
HETATM   21  NBF   D T2019      10.257  -3.389  13.995  1.00 86.50     0.141 N 
HETATM   22  CAP   D T2019      10.215  -3.118  12.521  1.00 84.69     0.285 C 
HETATM   23  CAR   D T2019       9.086  -2.157  12.051  1.00 81.90     0.286 C 
BRANCH  21  24
HETATM   24  CAN   D T2019       9.520  -4.624  14.389  1.00 86.80     0.251 C 
HETATM   25  CAA   D T2019       9.678  -5.729  13.317  1.00 86.31     0.037 C 
ENDBRANCH  21  24
ENDBRANCH  17  18
ENDBRANCH  14  17
ENDBRANCH   1  11
BRANCH  10  26
HETATM   26  CBE   D T2019       0.750   6.147  10.314  1.00 69.45     0.127 C 
HETATM   27  CAB   D T2019       1.031   7.190  11.408  1.00 70.81     0.031 C 
BRANCH  26  28
HETATM   28  CAZ   D T2019      -0.548   5.374  10.581  1.00 71.15    -0.000 A 
HETATM   29  CAG   D T2019      -1.782   5.922  10.152  1.00 70.34    -0.002 A 
HETATM   30  CAD   D T2019      -2.991   5.260  10.392  1.00 69.22    -0.000 A 
HETATM   31  CAC   D T2019      -2.937   4.033  11.066  1.00 70.75    -0.000 A 
HETATM   32  CAE   D T2019      -1.712   3.480  11.491  1.00 71.52    -0.000 A 
HETATM   33  CAH   D T2019      -0.505   4.148  11.266  1.00 71.18    -0.002 A 
ENDBRANCH  26  28
ENDBRANCH  10  26
TORSDOF 6
ENDMDL
MODEL 4
REMARK VINA RESULT:    -7.528      2.552      9.788
REMARK INTER + INTRA:         -10.980
REMARK INTER:                 -11.636
REMARK INTRA:                   0.656
REMARK UNBOUND:                -0.811
REMARK  6 active torsions:
REMARK  status: ('A' for Active; 'I' for Inactive)
REMARK    1  A    between atoms: NBF_3  and  CAN_4 
REMARK    2  A    between atoms: NBG_8  and  CAS_9 
REMARK    3  A    between atoms: CAS_9  and  CAX_10 
REMARK    4  A    between atoms: CAY_15  and  CBA_16 
REMARK    5  A    between atoms: NAV_25  and  CBE_26 
REMARK    6  A    between atoms: CBE_26  and  CAZ_28 
ROOT
HETATM    1  CBA   D T2019       3.183   5.081  10.055  1.00 67.38     0.083 A 
HETATM    2  NAW   D T2019       3.033   6.383  10.338  1.00 64.38    -0.227 NA
HETATM    3  CAM   D T2019       1.979   4.529   9.885  1.00 64.23     0.025 A 
HETATM    4  C5    D T2019       1.065   5.482  10.029  1.00 64.03     0.073 A 
HETATM    5  C4    D T2019       1.733   6.662  10.314  1.00 64.35     0.167 A 
HETATM    6  N3    D T2019       1.026   7.794  10.521  1.00 65.15    -0.205 NA
HETATM    7  C2    D T2019      -0.311   7.795  10.462  1.00 64.91     0.202 A 
HETATM    8  N1    D T2019      -0.979   6.682  10.187  1.00 65.23    -0.205 NA
HETATM    9  C6    D T2019      -0.329   5.508   9.962  1.00 65.21     0.163 A 
HETATM   10  NAV   D T2019      -1.008   4.383   9.690  1.00 66.46    -0.250 NA
ENDROOT
BRANCH   1  11
HETATM   11  CAY   D T2019       4.403   4.403  10.005  1.00 67.34     0.018 A 
HETATM   12  CAK   D T2019       5.345   4.697   9.008  1.00 69.05     0.001 A 
HETATM   13  CAI   D T2019       6.570   4.024   8.993  1.00 70.54    -0.002 A 
HETATM   14  CAX   D T2019       6.841   3.066   9.974  1.00 71.07     0.011 A 
HETATM   15  CAJ   D T2019       5.916   2.787  10.976  1.00 68.91    -0.002 A 
HETATM   16  CAL   D T2019       4.700   3.460  10.987  1.00 67.71     0.001 A 
BRANCH  14  17
HETATM   17  CAS   D T2019       8.195   2.360   9.995  1.00 74.21     0.277 C 
BRANCH  17  18
HETATM   18  NBG   D T2019       8.007   1.221  10.958  1.00 81.39     0.146 N 
HETATM   19  CAQ   D T2019       8.828   1.391  12.187  1.00 83.32     0.286 C 
HETATM   20  CAO   D T2019      10.287   0.954  11.912  1.00 86.22     0.285 C 
HETATM   21  NBF   D T2019      10.388  -0.471  11.453  1.00 86.50     0.141 N 
HETATM   22  CAP   D T2019       9.486  -0.834  10.313  1.00 84.69     0.285 C 
HETATM   23  CAR   D T2019       8.094  -0.139  10.317  1.00 81.90     0.286 C 
BRANCH  21  24
HETATM   24  CAN   D T2019      10.304  -1.422  12.599  1.00 86.80     0.251 C 
HETATM   25  CAA   D T2019       9.638  -2.751  12.168  1.00 86.31     0.037 C 
ENDBRANCH  21  24
ENDBRANCH  17  18
ENDBRANCH  14  17
ENDBRANCH   1  11
BRANCH  10  26
HETATM   26  CBE   D T2019      -2.427   4.290  10.056  1.00 69.45     0.127 C 
HETATM   27  CAB   D T2019      -3.021   5.654  10.439  1.00 70.81     0.031 C 
BRANCH  26  28
HETATM   28  CAZ   D T2019      -2.550   3.272  11.197  1.00 71.15    -0.000 A 
HETATM   29  CAG   D T2019      -1.381   2.651  11.701  1.00 70.34    -0.002 A 
HETATM   30  CAD   D T2019      -1.450   1.703  12.728  1.00 69.22    -0.000 A 
HETATM   31  CAC   D T2019      -2.716   1.393  13.243  1.00 70.75    -0.000 A 
HETATM   32  CAE   D T2019      -3.882   2.011  12.748  1.00 71.52    -0.000 A 
HETATM   33  CAH   D T2019      -3.817   2.947  11.712  1.00 71.18    -0.002 A 
ENDBRANCH  26  28
ENDBRANCH  10  26
TORSDOF 6
ENDMDL
MODEL 5
REMARK VINA RESULT:    -7.427      3.406      4.153
REMARK INTER + INTRA:         -10.843
REMARK INTER:                  -9.957
REMARK INTRA:                  -0.886
REMARK UNBOUND:                -0.811
REMARK  6 active torsions:
REMARK  status: ('A' for Active; 'I' for Inactive)
REMARK    1  A    between atoms: NBF_3  and  CAN_4 
REMARK    2  A    between atoms: NBG_8  and  CAS_9 
REMARK    3  A    between atoms: CAS_9  and  CAX_10 
REMARK    4  A    between atoms: CAY_15  and  CBA_16 
REMARK    5  A    between atoms: NAV_25  and  CBE_26 
REMARK    6  A    between atoms: CBE_26  and  CAZ_28 
ROOT
HETATM    1  CBA   D T2019       3.346   6.416   9.576  1.00 67.38     0.083 A 
HETATM    2  NAW   D T2019       3.838   7.268   8.665  1.00 64.38    -0.227 NA
HETATM    3  CAM   D T2019       4.308   6.105  10.447  1.00 64.23     0.025 A 
HETATM    4  C5    D T2019       5.402   6.781  10.112  1.00 64.03     0.073 A 
HETATM    5  C4    D T2019       5.104   7.523   8.980  1.00 64.35     0.167 A 
HETATM    6  N3    D T2019       6.059   8.297   8.422  1.00 65.15    -0.205 NA
HETATM    7  C2    D T2019       7.293   8.355   8.938  1.00 64.91     0.202 A 
HETATM    8  N1    D T2019       7.607   7.658  10.023  1.00 65.23    -0.205 NA
HETATM    9  C6    D T2019       6.692   6.863  10.640  1.00 65.21     0.163 A 
HETATM   10  NAV   D T2019       7.016   6.156  11.733  1.00 66.46    -0.250 NA
ENDROOT
BRANCH   1  11
HETATM   11  CAY   D T2019       2.050   5.895   9.574  1.00 67.34     0.018 A 
HETATM   12  CAK   D T2019       1.757   4.704   8.895  1.00 69.05     0.001 A 
HETATM   13  CAI   D T2019       0.459   4.189   8.928  1.00 70.54    -0.002 A 
HETATM   14  CAX   D T2019      -0.533   4.869   9.642  1.00 71.07     0.011 A 
HETATM   15  CAJ   D T2019      -0.240   6.039  10.334  1.00 68.91    -0.002 A 
HETATM   16  CAL   D T2019       1.054   6.547  10.298  1.00 67.71     0.001 A 
BRANCH  14  17
HETATM   17  CAS   D T2019      -1.943   4.289   9.725  1.00 74.21     0.277 C 
BRANCH  17  18
HETATM   18  NBG   D T2019      -2.238   4.234  11.198  1.00 81.39     0.146 N 
HETATM   19  CAQ   D T2019      -1.292   3.344  11.922  1.00 83.32     0.286 C 
HETATM   20  CAO   D T2019      -1.722   1.866  11.754  1.00 86.22     0.285 C 
HETATM   21  NBF   D T2019      -3.113   1.608  12.254  1.00 86.50     0.141 N 
HETATM   22  CAP   D T2019      -4.158   2.544  11.730  1.00 84.69     0.285 C 
HETATM   23  CAR   D T2019      -3.693   4.014  11.520  1.00 81.90     0.286 C 
BRANCH  21  24
HETATM   24  CAN   D T2019      -3.141   1.462  13.738  1.00 86.80     0.251 C 
HETATM   25  CAA   D T2019      -3.402  -0.009  14.144  1.00 86.31     0.037 C 
ENDBRANCH  21  24
ENDBRANCH  17  18
ENDBRANCH  14  17
ENDBRANCH   1  11
BRANCH  10  26
HETATM   26  CBE   D T2019       8.428   5.879  12.022  1.00 69.45     0.127 C 
HETATM   27  CAB   D T2019       8.876   4.513  11.478  1.00 70.81     0.031 C 
BRANCH  26  28
HETATM   28  CAZ   D T2019       8.625   5.983  13.539  1.00 71.15    -0.000 A 
HETATM   29  CAG   D T2019       7.905   5.113  14.393  1.00 70.34    -0.002 A 
HETATM   30  CAD   D T2019       8.040   5.187  15.784  1.00 69.22    -0.000 A 
HETATM   31  CAC   D T2019       8.918   6.149  16.301  1.00 70.75    -0.000 A 
HETATM   32  CAE   D T2019       9.641   7.015  15.456  1.00 71.52    -0.000 A 
HETATM   33  CAH   D T2019       9.495   6.952  14.068  1.00 71.18    -0.002 A 
ENDBRANCH  26  28
ENDBRANCH  10  26
TORSDOF 6
ENDMDL
MODEL 6
REMARK VINA RESULT:    -7.391      3.309      4.244
REMARK INTER + INTRA:         -10.795
REMARK INTER:                  -9.791
REMARK INTRA:                  -1.004
REMARK UNBOUND:                -0.811
REMARK  6 active torsions:
REMARK  status: ('A' for Active; 'I' for Inactive)
REMARK    1  A    between atoms: NBF_3  and  CAN_4 
REMARK    2  A    between atoms: NBG_8  and  CAS_9 
REMARK    3  A    between atoms: CAS_9  and  CAX_10 
REMARK    4  A    between atoms: CAY_15  and  CBA_16 
REMARK    5  A    between atoms: NAV_25  and  CBE_26 
REMARK    6  A    between atoms: CBE_26  and  CAZ_28 
ROOT
HETATM    1  CBA   D T2019       3.174   6.095   9.076  1.00 67.38     0.083 A 
HETATM    2  NAW   D T2019       3.566   6.224   7.800  1.00 64.38    -0.227 NA
HETATM    3  CAM   D T2019       4.207   6.355   9.880  1.00 64.23     0.025 A 
HETATM    4  C5    D T2019       5.248   6.679   9.121  1.00 64.03     0.073 A 
HETATM    5  C4    D T2019       4.842   6.599   7.798  1.00 64.35     0.167 A 
HETATM    6  N3    D T2019       5.725   6.870   6.814  1.00 65.15    -0.205 NA
HETATM    7  C2    D T2019       6.990   7.208   7.092  1.00 64.91     0.202 A 
HETATM    8  N1    D T2019       7.408   7.296   8.348  1.00 65.23    -0.205 NA
HETATM    9  C6    D T2019       6.569   7.043   9.389  1.00 65.21     0.163 A 
HETATM   10  NAV   D T2019       6.997   7.128  10.657  1.00 66.46    -0.250 NA
ENDROOT
BRANCH   1  11
HETATM   11  CAY   D T2019       1.901   5.696   9.490  1.00 67.34     0.018 A 
HETATM   12  CAK   D T2019       1.246   6.361  10.537  1.00 69.05     0.001 A 
HETATM   13  CAI   D T2019      -0.038   5.960  10.916  1.00 70.54    -0.002 A 
HETATM   14  CAX   D T2019      -0.654   4.900  10.246  1.00 71.07     0.011 A 
HETATM   15  CAJ   D T2019      -0.015   4.252   9.193  1.00 68.91    -0.002 A 
HETATM   16  CAL   D T2019       1.262   4.655   8.819  1.00 67.71     0.001 A 
BRANCH  14  17
HETATM   17  CAS   D T2019      -2.075   4.486  10.620  1.00 74.21     0.277 C 
BRANCH  17  18
HETATM   18  NBG   D T2019      -2.000   2.992  10.776  1.00 81.39     0.146 N 
HETATM   19  CAQ   D T2019      -3.350   2.369  10.815  1.00 83.32     0.286 C 
HETATM   20  CAO   D T2019      -3.958   2.513  12.231  1.00 86.22     0.285 C 
HETATM   21  NBF   D T2019      -3.103   1.888  13.294  1.00 86.50     0.141 N 
HETATM   22  CAP   D T2019      -1.663   2.303  13.273  1.00 84.69     0.285 C 
HETATM   23  CAR   D T2019      -1.058   2.540  11.860  1.00 81.90     0.286 C 
BRANCH  21  24
HETATM   24  CAN   D T2019      -3.291   0.410  13.348  1.00 86.80     0.251 C 
HETATM   25  CAA   D T2019      -4.792   0.046  13.459  1.00 86.31     0.037 C 
ENDBRANCH  21  24
ENDBRANCH  17  18
ENDBRANCH  14  17
ENDBRANCH   1  11
BRANCH  10  26
HETATM   26  CBE   D T2019       8.436   7.059  10.941  1.00 69.45     0.127 C 
HETATM   27  CAB   D T2019       8.828   5.750  11.644  1.00 70.81     0.031 C 
BRANCH  26  28
HETATM   28  CAZ   D T2019       8.808   8.290  11.775  1.00 71.15    -0.000 A 
HETATM   29  CAG   D T2019       8.970   8.156  13.176  1.00 70.34    -0.002 A 
HETATM   30  CAD   D T2019       9.292   9.258  13.977  1.00 69.22    -0.000 A 
HETATM   31  CAC   D T2019       9.452  10.497  13.343  1.00 70.75    -0.000 A 
HETATM   32  CAE   D T2019       9.296  10.636  11.949  1.00 71.52    -0.000 A 
HETATM   33  CAH   D T2019       8.961   9.540  11.150  1.00 71.18    -0.002 A 
ENDBRANCH  26  28
ENDBRANCH  10  26
TORSDOF 6
ENDMDL
MODEL 7
REMARK VINA RESULT:    -7.294      2.190     10.206
REMARK INTER + INTRA:         -10.663
REMARK INTER:                 -11.046
REMARK INTRA:                   0.383
REMARK UNBOUND:                -0.811
REMARK  6 active torsions:
REMARK  status: ('A' for Active; 'I' for Inactive)
REMARK    1  A    between atoms: NBF_3  and  CAN_4 
REMARK    2  A    between atoms: NBG_8  and  CAS_9 
REMARK    3  A    between atoms: CAS_9  and  CAX_10 
REMARK    4  A    between atoms: CAY_15  and  CBA_16 
REMARK    5  A    between atoms: NAV_25  and  CBE_26 
REMARK    6  A    between atoms: CBE_26  and  CAZ_28 
ROOT
HETATM    1  CBA   D T2019       3.078   6.004  10.131  1.00 67.38     0.083 A 
HETATM    2  NAW   D T2019       2.710   7.204  10.602  1.00 64.38    -0.227 NA
HETATM    3  CAM   D T2019       1.986   5.297   9.835  1.00 64.23     0.025 A 
HETATM    4  C5    D T2019       0.924   6.054  10.088  1.00 64.03     0.073 A 
HETATM    5  C4    D T2019       1.383   7.268  10.573  1.00 64.35     0.167 A 
HETATM    6  N3    D T2019       0.494   8.223  10.922  1.00 65.15    -0.205 NA
HETATM    7  C2    D T2019      -0.824   8.015  10.815  1.00 64.91     0.202 A 
HETATM    8  N1    D T2019      -1.293   6.864  10.350  1.00 65.23    -0.205 NA
HETATM    9  C6    D T2019      -0.454   5.862   9.974  1.00 65.21     0.163 A 
HETATM   10  NAV   D T2019      -0.933   4.698   9.510  1.00 66.46    -0.250 NA
ENDROOT
BRANCH   1  11
HETATM   11  CAY   D T2019       4.395   5.551  10.023  1.00 67.34     0.018 A 
HETATM   12  CAK   D T2019       4.705   4.196  10.211  1.00 69.05     0.001 A 
HETATM   13  CAI   D T2019       6.026   3.762  10.073  1.00 70.54    -0.002 A 
HETATM   14  CAX   D T2019       7.024   4.686   9.749  1.00 71.07     0.011 A 
HETATM   15  CAJ   D T2019       6.716   6.027   9.542  1.00 68.91    -0.002 A 
HETATM   16  CAL   D T2019       5.400   6.453   9.679  1.00 67.71     0.001 A 
BRANCH  14  17
HETATM   17  CAS   D T2019       8.462   4.214   9.548  1.00 74.21     0.277 C 
BRANCH  17  18
HETATM   18  NBG   D T2019       8.351   3.089   8.557  1.00 81.39     0.146 N 
HETATM   19  CAQ   D T2019       9.339   2.011   8.826  1.00 83.32     0.286 C 
HETATM   20  CAO   D T2019      10.724   2.410   8.260  1.00 86.22     0.285 C 
HETATM   21  NBF   D T2019      10.690   2.681   6.784  1.00 86.50     0.141 N 
HETATM   22  CAP   D T2019       9.622   3.635   6.341  1.00 84.69     0.285 C 
HETATM   23  CAR   D T2019       8.281   3.546   7.123  1.00 81.90     0.286 C 
BRANCH  21  24
HETATM   24  CAN   D T2019      10.715   1.415   5.996  1.00 86.80     0.251 C 
HETATM   25  CAA   D T2019      10.047   1.611   4.613  1.00 86.31     0.037 C 
ENDBRANCH  21  24
ENDBRANCH  17  18
ENDBRANCH  14  17
ENDBRANCH   1  11
BRANCH  10  26
HETATM   26  CBE   D T2019      -2.320   4.318   9.805  1.00 69.45     0.127 C 
HETATM   27  CAB   D T2019      -3.231   5.541   9.994  1.00 70.81     0.031 C 
BRANCH  26  28
HETATM   28  CAZ   D T2019      -2.305   3.418  11.047  1.00 71.15    -0.000 A 
HETATM   29  CAG   D T2019      -1.078   3.167  11.706  1.00 70.34    -0.002 A 
HETATM   30  CAD   D T2019      -1.016   2.336  12.831  1.00 69.22    -0.000 A 
HETATM   31  CAC   D T2019      -2.213   1.767  13.285  1.00 70.75    -0.000 A 
HETATM   32  CAE   D T2019      -3.439   2.017  12.635  1.00 71.52    -0.000 A 
HETATM   33  CAH   D T2019      -3.500   2.833  11.503  1.00 71.18    -0.002 A 
ENDBRANCH  26  28
ENDBRANCH  10  26
TORSDOF 6
ENDMDL
MODEL 8
REMARK VINA RESULT:    -7.077      2.900      4.928
REMARK INTER + INTRA:         -10.371
REMARK INTER:                  -9.531
REMARK INTRA:                  -0.841
REMARK UNBOUND:                -0.811
REMARK  6 active torsions:
REMARK  status: ('A' for Active; 'I' for Inactive)
REMARK    1  A    between atoms: NBF_3  and  CAN_4 
REMARK    2  A    between atoms: NBG_8  and  CAS_9 
REMARK    3  A    between atoms: CAS_9  and  CAX_10 
REMARK    4  A    between atoms: CAY_15  and  CBA_16 
REMARK    5  A    between atoms: NAV_25  and  CBE_26 
REMARK    6  A    between atoms: CBE_26  and  CAZ_28 
ROOT
HETATM    1  CBA   D T2019       4.304   5.515  10.044  1.00 67.38     0.083 A 
HETATM    2  NAW   D T2019       5.194   4.624  10.505  1.00 64.38    -0.227 NA
HETATM    3  CAM   D T2019       4.941   6.645   9.730  1.00 64.23     0.025 A 
HETATM    4  C5    D T2019       6.237   6.467   9.961  1.00 64.03     0.073 A 
HETATM    5  C4    D T2019       6.400   5.181  10.451  1.00 64.35     0.167 A 
HETATM    6  N3    D T2019       7.636   4.748  10.781  1.00 65.15    -0.205 NA
HETATM    7  C2    D T2019       8.706   5.540  10.649  1.00 64.91     0.202 A 
HETATM    8  N1    D T2019       8.582   6.775  10.180  1.00 65.23    -0.205 NA
HETATM    9  C6    D T2019       7.367   7.273   9.822  1.00 65.21     0.163 A 
HETATM   10  NAV   D T2019       7.245   8.524   9.352  1.00 66.46    -0.250 NA
ENDROOT
BRANCH   1  11
HETATM   11  CAY   D T2019       2.926   5.307   9.963  1.00 67.34     0.018 A 
HETATM   12  CAK   D T2019       2.026   6.295  10.387  1.00 69.05     0.001 A 
HETATM   13  CAI   D T2019       0.650   6.075  10.272  1.00 70.54    -0.002 A 
HETATM   14  CAX   D T2019       0.189   4.870   9.733  1.00 71.07     0.011 A 
HETATM   15  CAJ   D T2019       1.080   3.897   9.293  1.00 68.91    -0.002 A 
HETATM   16  CAL   D T2019       2.447   4.121   9.408  1.00 67.71     0.001 A 
BRANCH  14  17
HETATM   17  CAS   D T2019      -1.310   4.639   9.559  1.00 74.21     0.277 C 
BRANCH  17  18
HETATM   18  NBG   D T2019      -1.840   4.548  10.963  1.00 81.39     0.146 N 
HETATM   19  CAQ   D T2019      -1.099   3.544  11.772  1.00 83.32     0.286 C 
HETATM   20  CAO   D T2019      -1.619   2.121  11.455  1.00 86.22     0.285 C 
HETATM   21  NBF   D T2019      -3.088   1.969  11.718  1.00 86.50     0.141 N 
HETATM   22  CAP   D T2019      -3.955   3.019  11.092  1.00 84.69     0.285 C 
HETATM   23  CAR   D T2019      -3.341   4.448  11.041  1.00 81.90     0.286 C 
BRANCH  21  24
HETATM   24  CAN   D T2019      -3.365   1.762  13.168  1.00 86.80     0.251 C 
HETATM   25  CAA   D T2019      -4.099   0.419  13.405  1.00 86.31     0.037 C 
ENDBRANCH  21  24
ENDBRANCH  17  18
ENDBRANCH  14  17
ENDBRANCH   1  11
BRANCH  10  26
HETATM   26  CBE   D T2019       8.305   9.504   9.623  1.00 69.45     0.127 C 
HETATM   27  CAB   D T2019       7.772  10.757  10.335  1.00 70.81     0.031 C 
BRANCH  26  28
HETATM   28  CAZ   D T2019       8.976   9.848   8.287  1.00 71.15    -0.000 A 
HETATM   29  CAG   D T2019       8.489   9.260   7.095  1.00 70.34    -0.002 A 
HETATM   30  CAD   D T2019       9.084   9.531   5.857  1.00 69.22    -0.000 A 
HETATM   31  CAC   D T2019      10.175  10.410   5.840  1.00 70.75    -0.000 A 
HETATM   32  CAE   D T2019      10.661  11.003   7.023  1.00 71.52    -0.000 A 
HETATM   33  CAH   D T2019      10.078  10.720   8.261  1.00 71.18    -0.002 A 
ENDBRANCH  26  28
ENDBRANCH  10  26
TORSDOF 6
ENDMDL
MODEL 9
REMARK VINA RESULT:    -6.427     18.919     22.037
REMARK INTER + INTRA:          -9.493
REMARK INTER:                  -8.454
REMARK INTRA:                  -1.039
REMARK UNBOUND:                -0.811
REMARK  6 active torsions:
REMARK  status: ('A' for Active; 'I' for Inactive)
REMARK    1  A    between atoms: NBF_3  and  CAN_4 
REMARK    2  A    between atoms: NBG_8  and  CAS_9 
REMARK    3  A    between atoms: CAS_9  and  CAX_10 
REMARK    4  A    between atoms: CAY_15  and  CBA_16 
REMARK    5  A    between atoms: NAV_25  and  CBE_26 
REMARK    6  A    between atoms: CBE_26  and  CAZ_28 
ROOT
HETATM    1  CBA   D T2019      -9.505  -7.226  20.615  1.00 67.38     0.083 A 
HETATM    2  NAW   D T2019      -8.818  -8.330  20.942  1.00 64.38    -0.227 NA
HETATM    3  CAM   D T2019      -9.725  -6.505  21.716  1.00 64.23     0.025 A 
HETATM    4  C5    D T2019      -9.155  -7.131  22.740  1.00 64.03     0.073 A 
HETATM    5  C4    D T2019      -8.575  -8.291  22.249  1.00 64.35     0.167 A 
HETATM    6  N3    D T2019      -7.934  -9.123  23.097  1.00 65.15    -0.205 NA
HETATM    7  C2    D T2019      -7.854  -8.853  24.405  1.00 64.91     0.202 A 
HETATM    8  N1    D T2019      -8.397  -7.750  24.904  1.00 65.23    -0.205 NA
HETATM    9  C6    D T2019      -9.051  -6.864  24.105  1.00 65.21     0.163 A 
HETATM   10  NAV   D T2019      -9.603  -5.752  24.615  1.00 66.46    -0.250 NA
ENDROOT
BRANCH   1  11
HETATM   11  CAY   D T2019      -9.963  -6.914  19.333  1.00 67.34     0.018 A 
HETATM   12  CAK   D T2019     -10.221  -7.927  18.398  1.00 69.05     0.001 A 
HETATM   13  CAI   D T2019     -10.703  -7.592  17.130  1.00 70.54    -0.002 A 
HETATM   14  CAX   D T2019     -10.924  -6.250  16.809  1.00 71.07     0.011 A 
HETATM   15  CAJ   D T2019     -10.688  -5.245  17.742  1.00 68.91    -0.002 A 
HETATM   16  CAL   D T2019     -10.209  -5.583  19.002  1.00 67.71     0.001 A 
BRANCH  14  17
HETATM   17  CAS   D T2019     -11.496  -5.877  15.443  1.00 74.21     0.277 C 
BRANCH  17  18
HETATM   18  NBG   D T2019     -11.309  -7.115  14.610  1.00 81.39     0.146 N 
HETATM   19  CAQ   D T2019     -10.328  -6.903  13.513  1.00 83.32     0.286 C 
HETATM   20  CAO   D T2019     -11.009  -6.176  12.328  1.00 86.22     0.285 C 
HETATM   21  NBF   D T2019     -12.188  -6.928  11.787  1.00 86.50     0.141 N 
HETATM   22  CAP   D T2019     -13.192  -7.355  12.815  1.00 84.69     0.285 C 
HETATM   23  CAR   D T2019     -12.601  -7.768  14.193  1.00 81.90     0.286 C 
BRANCH  21  24
HETATM   24  CAN   D T2019     -11.762  -8.034  10.882  1.00 86.80     0.251 C 
HETATM   25  CAA   D T2019     -10.586  -7.588   9.979  1.00 86.31     0.037 C 
ENDBRANCH  21  24
ENDBRANCH  17  18
ENDBRANCH  14  17
ENDBRANCH   1  11
BRANCH  10  26
HETATM   26  CBE   D T2019      -9.897  -5.684  26.052  1.00 69.45     0.127 C 
HETATM   27  CAB   D T2019     -11.397  -5.505  26.332  1.00 70.81     0.031 C 
BRANCH  26  28
HETATM   28  CAZ   D T2019      -9.064  -4.541  26.646  1.00 71.15    -0.000 A 
HETATM   29  CAG   D T2019      -9.712  -3.348  27.050  1.00 70.34    -0.002 A 
HETATM   30  CAD   D T2019      -8.988  -2.274  27.580  1.00 69.22    -0.000 A 
HETATM   31  CAC   D T2019      -7.600  -2.422  27.700  1.00 70.75    -0.000 A 
HETATM   32  CAE   D T2019      -6.950  -3.609  27.303  1.00 71.52    -0.000 A 
HETATM   33  CAH   D T2019      -7.669  -4.676  26.760  1.00 71.18    -0.002 A 
ENDBRANCH  26  28
ENDBRANCH  10  26
TORSDOF 6
ENDMDL
