MODEL 1
REMARK VINA RESULT:    -7.476      0.000      0.000
REMARK INTER + INTRA:         -11.234
REMARK INTER:                 -10.098
REMARK INTRA:                  -1.136
REMARK UNBOUND:                -1.136
REMARK  6 active torsions:
REMARK  status: ('A' for Active; 'I' for Inactive)
REMARK    1  A    between atoms: NBF_3  and  CAN_4 
REMARK    2  A    between atoms: NBG_8  and  CAS_9 
REMARK    3  A    between atoms: CAS_9  and  CAX_10 
REMARK    4  A    between atoms: CAY_15  and  CBA_16 
REMARK    5  A    between atoms: NAV_25  and  CBE_26 
REMARK    6  A    between atoms: CBE_26  and  CAZ_28 
ROOT
HETATM    1  CBA   D T2019      13.116  -1.974  -0.615  1.00 67.38     0.083 A 
HETATM    2  NAW   D T2019      12.273  -2.564   0.244  1.00 64.38    -0.227 NA
HETATM    3  CAM   D T2019      12.429  -1.537  -1.672  1.00 64.23     0.025 A 
HETATM    4  C5    D T2019      11.146  -1.820  -1.475  1.00 64.03     0.073 A 
HETATM    5  C4    D T2019      11.044  -2.470  -0.255  1.00 64.35     0.167 A 
HETATM    6  N3    D T2019       9.834  -2.881   0.179  1.00 65.15    -0.205 NA
HETATM    7  C2    D T2019       8.729  -2.677  -0.550  1.00 64.91     0.202 A 
HETATM    8  N1    D T2019       8.794  -2.054  -1.719  1.00 65.23    -0.205 NA
HETATM    9  C6    D T2019       9.980  -1.608  -2.215  1.00 65.21     0.163 A 
HETATM   10  NAV   D T2019      10.042  -0.983  -3.400  1.00 66.46    -0.250 NA
ENDROOT
BRANCH   1  11
HETATM   11  CAY   D T2019      14.499  -1.886  -0.451  1.00 67.34     0.018 A 
HETATM   12  CAK   D T2019      15.237  -0.886  -1.101  1.00 69.05     0.001 A 
HETATM   13  CAI   D T2019      16.617  -0.802  -0.902  1.00 70.54    -0.002 A 
HETATM   14  CAX   D T2019      17.248  -1.718  -0.053  1.00 71.07     0.011 A 
HETATM   15  CAJ   D T2019      16.516  -2.696   0.610  1.00 68.91    -0.002 A 
HETATM   16  CAL   D T2019      15.143  -2.777   0.408  1.00 67.71     0.001 A 
BRANCH  14  17
HETATM   17  CAS   D T2019      18.748  -1.604   0.209  1.00 74.21     0.277 C 
BRANCH  17  18
HETATM   18  NBG   D T2019      19.368  -1.606  -1.161  1.00 81.39     0.146 N 
HETATM   19  CAQ   D T2019      19.541  -2.983  -1.690  1.00 83.32     0.286 C 
HETATM   20  CAO   D T2019      20.811  -3.629  -1.085  1.00 86.22     0.285 C 
HETATM   21  NBF   D T2019      22.054  -2.838  -1.372  1.00 86.50     0.141 N 
HETATM   22  CAP   D T2019      21.968  -1.379  -1.035  1.00 84.69     0.285 C 
HETATM   23  CAR   D T2019      20.580  -0.719  -1.280  1.00 81.90     0.286 C 
BRANCH  21  24
HETATM   24  CAN   D T2019      22.561  -3.097  -2.749  1.00 86.80     0.251 C 
HETATM   25  CAA   D T2019      22.695  -4.617  -3.012  1.00 86.31     0.037 C 
ENDBRANCH  21  24
ENDBRANCH  17  18
ENDBRANCH  14  17
ENDBRANCH   1  11
BRANCH  10  26
HETATM   26  CBE   D T2019       8.950  -1.154  -4.365  1.00 69.45     0.127 C 
HETATM   27  CAB   D T2019       9.028  -2.501  -5.101  1.00 70.81     0.031 C 
BRANCH  26  28
HETATM   28  CAZ   D T2019       8.994   0.031  -5.337  1.00 71.15    -0.000 A 
HETATM   29  CAG   D T2019      10.105   0.910  -5.309  1.00 70.34    -0.002 A 
HETATM   30  CAD   D T2019      10.177   2.015  -6.165  1.00 69.22    -0.000 A 
HETATM   31  CAC   D T2019       9.114   2.217  -7.054  1.00 70.75    -0.000 A 
HETATM   32  CAE   D T2019       8.008   1.343  -7.090  1.00 71.52    -0.000 A 
HETATM   33  CAH   D T2019       7.926   0.250  -6.226  1.00 71.18    -0.002 A 
ENDBRANCH  26  28
ENDBRANCH  10  26
TORSDOF 6
ENDMDL
MODEL 2
REMARK VINA RESULT:    -7.393      1.756      2.594
REMARK INTER + INTRA:         -11.123
REMARK INTER:                 -10.025
REMARK INTRA:                  -1.097
REMARK UNBOUND:                -1.136
REMARK  6 active torsions:
REMARK  status: ('A' for Active; 'I' for Inactive)
REMARK    1  A    between atoms: NBF_3  and  CAN_4 
REMARK    2  A    between atoms: NBG_8  and  CAS_9 
REMARK    3  A    between atoms: CAS_9  and  CAX_10 
REMARK    4  A    between atoms: CAY_15  and  CBA_16 
REMARK    5  A    between atoms: NAV_25  and  CBE_26 
REMARK    6  A    between atoms: CBE_26  and  CAZ_28 
ROOT
HETATM    1  CBA   D T2019      13.035  -1.963  -0.786  1.00 67.38     0.083 A 
HETATM    2  NAW   D T2019      12.228  -2.554   0.106  1.00 64.38    -0.227 NA
HETATM    3  CAM   D T2019      12.304  -1.523  -1.812  1.00 64.23     0.025 A 
HETATM    4  C5    D T2019      11.030  -1.806  -1.563  1.00 64.03     0.073 A 
HETATM    5  C4    D T2019      10.979  -2.459  -0.341  1.00 64.35     0.167 A 
HETATM    6  N3    D T2019       9.788  -2.871   0.142  1.00 65.15    -0.205 NA
HETATM    7  C2    D T2019       8.654  -2.666  -0.539  1.00 64.91     0.202 A 
HETATM    8  N1    D T2019       8.670  -2.040  -1.708  1.00 65.23    -0.205 NA
HETATM    9  C6    D T2019       9.835  -1.593  -2.252  1.00 65.21     0.163 A 
HETATM   10  NAV   D T2019       9.847  -0.965  -3.437  1.00 66.46    -0.250 NA
ENDROOT
BRANCH   1  11
HETATM   11  CAY   D T2019      14.423  -1.875  -0.680  1.00 67.34     0.018 A 
HETATM   12  CAK   D T2019      15.131  -0.857  -1.336  1.00 69.05     0.001 A 
HETATM   13  CAI   D T2019      16.518  -0.774  -1.194  1.00 70.54    -0.002 A 
HETATM   14  CAX   D T2019      17.186  -1.709  -0.397  1.00 71.07     0.011 A 
HETATM   15  CAJ   D T2019      16.485  -2.706   0.273  1.00 68.91    -0.002 A 
HETATM   16  CAL   D T2019      15.105  -2.785   0.129  1.00 67.71     0.001 A 
BRANCH  14  17
HETATM   17  CAS   D T2019      18.696  -1.598  -0.197  1.00 74.21     0.277 C 
BRANCH  17  18
HETATM   18  NBG   D T2019      18.876  -0.330   0.591  1.00 81.39     0.146 N 
HETATM   19  CAQ   D T2019      19.813   0.610  -0.076  1.00 83.32     0.286 C 
HETATM   20  CAO   D T2019      21.276   0.193   0.209  1.00 86.22     0.285 C 
HETATM   21  NBF   D T2019      21.589   0.155   1.676  1.00 86.50     0.141 N 
HETATM   22  CAP   D T2019      20.623  -0.633   2.510  1.00 84.69     0.285 C 
HETATM   23  CAR   D T2019      19.136  -0.556   2.057  1.00 81.90     0.286 C 
BRANCH  21  24
HETATM   24  CAN   D T2019      21.858   1.518   2.214  1.00 86.80     0.251 C 
HETATM   25  CAA   D T2019      22.913   2.255   1.353  1.00 86.31     0.037 C 
ENDBRANCH  21  24
ENDBRANCH  17  18
ENDBRANCH  14  17
ENDBRANCH   1  11
BRANCH  10  26
HETATM   26  CBE   D T2019       8.716  -1.134  -4.357  1.00 69.45     0.127 C 
HETATM   27  CAB   D T2019       8.747  -2.491  -5.078  1.00 70.81     0.031 C 
BRANCH  26  28
HETATM   28  CAZ   D T2019       8.736   0.039  -5.345  1.00 71.15    -0.000 A 
HETATM   29  CAG   D T2019       7.734   0.122  -6.343  1.00 70.34    -0.002 A 
HETATM   30  CAD   D T2019       7.726   1.164  -7.278  1.00 69.22    -0.000 A 
HETATM   31  CAC   D T2019       8.739   2.126  -7.186  1.00 70.75    -0.000 A 
HETATM   32  CAE   D T2019       9.736   2.052  -6.191  1.00 71.52    -0.000 A 
HETATM   33  CAH   D T2019       9.756   1.004  -5.269  1.00 71.18    -0.002 A 
ENDBRANCH  26  28
ENDBRANCH  10  26
TORSDOF 6
ENDMDL
MODEL 3
REMARK VINA RESULT:    -7.168      5.028      5.554
REMARK INTER + INTRA:         -10.819
REMARK INTER:                  -9.714
REMARK INTRA:                  -1.105
REMARK UNBOUND:                -1.136
REMARK  6 active torsions:
REMARK  status: ('A' for Active; 'I' for Inactive)
REMARK    1  A    between atoms: NBF_3  and  CAN_4 
REMARK    2  A    between atoms: NBG_8  and  CAS_9 
REMARK    3  A    between atoms: CAS_9  and  CAX_10 
REMARK    4  A    between atoms: CAY_15  and  CBA_16 
REMARK    5  A    between atoms: NAV_25  and  CBE_26 
REMARK    6  A    between atoms: CBE_26  and  CAZ_28 
ROOT
HETATM    1  CBA   D T2019      11.229  -2.364   1.416  1.00 67.38     0.083 A 
HETATM    2  NAW   D T2019      10.502  -3.485   1.524  1.00 64.38    -0.227 NA
HETATM    3  CAM   D T2019      11.106  -1.881   0.178  1.00 64.23     0.025 A 
HETATM    4  C5    D T2019      10.279  -2.674  -0.494  1.00 64.03     0.073 A 
HETATM    5  C4    D T2019       9.891  -3.693   0.362  1.00 64.35     0.167 A 
HETATM    6  N3    D T2019       9.051  -4.652  -0.084  1.00 65.15    -0.205 NA
HETATM    7  C2    D T2019       8.590  -4.640  -1.341  1.00 64.91     0.202 A 
HETATM    8  N1    D T2019       8.940  -3.676  -2.182  1.00 65.23    -0.205 NA
HETATM    9  C6    D T2019       9.778  -2.675  -1.797  1.00 65.21     0.163 A 
HETATM   10  NAV   D T2019      10.134  -1.705  -2.652  1.00 66.46    -0.250 NA
ENDROOT
BRANCH   1  11
HETATM   11  CAY   D T2019      12.031  -1.825   2.423  1.00 67.34     0.018 A 
HETATM   12  CAK   D T2019      12.074  -0.440   2.642  1.00 69.05     0.001 A 
HETATM   13  CAI   D T2019      12.865   0.074   3.673  1.00 70.54    -0.002 A 
HETATM   14  CAX   D T2019      13.604  -0.801   4.476  1.00 71.07     0.011 A 
HETATM   15  CAJ   D T2019      13.545  -2.175   4.275  1.00 68.91    -0.002 A 
HETATM   16  CAL   D T2019      12.758  -2.683   3.249  1.00 67.71     0.001 A 
BRANCH  14  17
HETATM   17  CAS   D T2019      14.432  -0.252   5.636  1.00 74.21     0.277 C 
BRANCH  17  18
HETATM   18  NBG   D T2019      15.160   0.926   5.051  1.00 81.39     0.146 N 
HETATM   19  CAQ   D T2019      16.533   0.569   4.610  1.00 83.32     0.286 C 
HETATM   20  CAO   D T2019      17.492   0.545   5.825  1.00 86.22     0.285 C 
HETATM   21  NBF   D T2019      17.541   1.860   6.546  1.00 86.50     0.141 N 
HETATM   22  CAP   D T2019      16.204   2.430   6.915  1.00 84.69     0.285 C 
HETATM   23  CAR   D T2019      15.064   2.176   5.886  1.00 81.90     0.286 C 
BRANCH  21  24
HETATM   24  CAN   D T2019      18.427   2.835   5.848  1.00 86.80     0.251 C 
HETATM   25  CAA   D T2019      19.906   2.384   5.916  1.00 86.31     0.037 C 
ENDBRANCH  21  24
ENDBRANCH  17  18
ENDBRANCH  14  17
ENDBRANCH   1  11
BRANCH  10  26
HETATM   26  CBE   D T2019       9.998  -1.929  -4.097  1.00 69.45     0.127 C 
HETATM   27  CAB   D T2019      11.208  -2.668  -4.688  1.00 70.81     0.031 C 
BRANCH  26  28
HETATM   28  CAZ   D T2019       9.779  -0.565  -4.764  1.00 71.15    -0.000 A 
HETATM   29  CAG   D T2019      10.899   0.252  -5.054  1.00 70.34    -0.002 A 
HETATM   30  CAD   D T2019      10.744   1.512  -5.645  1.00 69.22    -0.000 A 
HETATM   31  CAC   D T2019       9.442   1.932  -5.945  1.00 70.75    -0.000 A 
HETATM   32  CAE   D T2019       8.324   1.120  -5.662  1.00 71.52    -0.000 A 
HETATM   33  CAH   D T2019       8.475  -0.130  -5.058  1.00 71.18    -0.002 A 
ENDBRANCH  26  28
ENDBRANCH  10  26
TORSDOF 6
ENDMDL
MODEL 4
REMARK VINA RESULT:    -6.844      5.953     10.609
REMARK INTER + INTRA:         -10.380
REMARK INTER:                  -9.317
REMARK INTRA:                  -1.063
REMARK UNBOUND:                -1.136
REMARK  6 active torsions:
REMARK  status: ('A' for Active; 'I' for Inactive)
REMARK    1  A    between atoms: NBF_3  and  CAN_4 
REMARK    2  A    between atoms: NBG_8  and  CAS_9 
REMARK    3  A    between atoms: CAS_9  and  CAX_10 
REMARK    4  A    between atoms: CAY_15  and  CBA_16 
REMARK    5  A    between atoms: NAV_25  and  CBE_26 
REMARK    6  A    between atoms: CBE_26  and  CAZ_28 
ROOT
HETATM    1  CBA   D T2019      10.464  -2.397  -0.821  1.00 67.38     0.083 A 
HETATM    2  NAW   D T2019      10.893  -1.843   0.321  1.00 64.38    -0.227 NA
HETATM    3  CAM   D T2019      10.242  -3.697  -0.619  1.00 64.23     0.025 A 
HETATM    4  C5    D T2019      10.499  -3.966   0.656  1.00 64.03     0.073 A 
HETATM    5  C4    D T2019      10.910  -2.787   1.257  1.00 64.35     0.167 A 
HETATM    6  N3    D T2019      11.247  -2.790   2.564  1.00 65.15    -0.205 NA
HETATM    7  C2    D T2019      11.198  -3.913   3.291  1.00 64.91     0.202 A 
HETATM    8  N1    D T2019      10.805  -5.056   2.745  1.00 65.23    -0.205 NA
HETATM    9  C6    D T2019      10.445  -5.124   1.435  1.00 65.21     0.163 A 
HETATM   10  NAV   D T2019      10.053  -6.284   0.886  1.00 66.46    -0.250 NA
ENDROOT
BRANCH   1  11
HETATM   11  CAY   D T2019      10.330  -1.729  -2.038  1.00 67.34     0.018 A 
HETATM   12  CAK   D T2019       9.548  -0.567  -2.137  1.00 69.05     0.001 A 
HETATM   13  CAI   D T2019       9.449   0.099  -3.361  1.00 70.54    -0.002 A 
HETATM   14  CAX   D T2019      10.132  -0.400  -4.475  1.00 71.07     0.011 A 
HETATM   15  CAJ   D T2019      10.925  -1.538  -4.374  1.00 68.91    -0.002 A 
HETATM   16  CAL   D T2019      11.021  -2.198  -3.155  1.00 67.71     0.001 A 
BRANCH  14  17
HETATM   17  CAS   D T2019      10.069   0.349  -5.804  1.00 74.21     0.277 C 
BRANCH  17  18
HETATM   18  NBG   D T2019       8.803   1.154  -5.720  1.00 81.39     0.146 N 
HETATM   19  CAQ   D T2019       7.653   0.450  -6.343  1.00 83.32     0.286 C 
HETATM   20  CAO   D T2019       7.694   0.625  -7.881  1.00 86.22     0.285 C 
HETATM   21  NBF   D T2019       7.665   2.065  -8.298  1.00 86.50     0.141 N 
HETATM   22  CAP   D T2019       8.676   2.942  -7.621  1.00 84.69     0.285 C 
HETATM   23  CAR   D T2019       8.969   2.594  -6.133  1.00 81.90     0.286 C 
BRANCH  21  24
HETATM   24  CAN   D T2019       6.282   2.619  -8.258  1.00 86.80     0.251 C 
HETATM   25  CAA   D T2019       5.341   1.826  -9.198  1.00 86.31     0.037 C 
ENDBRANCH  21  24
ENDBRANCH  17  18
ENDBRANCH  14  17
ENDBRANCH   1  11
BRANCH  10  26
HETATM   26  CBE   D T2019      10.416  -7.550   1.534  1.00 69.45     0.127 C 
HETATM   27  CAB   D T2019      11.425  -8.360   0.705  1.00 70.81     0.031 C 
BRANCH  26  28
HETATM   28  CAZ   D T2019       9.123  -8.334   1.787  1.00 71.15    -0.000 A 
HETATM   29  CAG   D T2019       8.801  -8.732   3.108  1.00 70.34    -0.002 A 
HETATM   30  CAD   D T2019       7.641  -9.467   3.382  1.00 69.22    -0.000 A 
HETATM   31  CAC   D T2019       6.806  -9.787   2.304  1.00 70.75    -0.000 A 
HETATM   32  CAE   D T2019       7.119  -9.389   0.987  1.00 71.52    -0.000 A 
HETATM   33  CAH   D T2019       8.284  -8.671   0.710  1.00 71.18    -0.002 A 
ENDBRANCH  26  28
ENDBRANCH  10  26
TORSDOF 6
ENDMDL
MODEL 5
REMARK VINA RESULT:    -6.682      1.393      2.282
REMARK INTER + INTRA:         -10.161
REMARK INTER:                  -9.416
REMARK INTRA:                  -0.746
REMARK UNBOUND:                -1.136
REMARK  6 active torsions:
REMARK  status: ('A' for Active; 'I' for Inactive)
REMARK    1  A    between atoms: NBF_3  and  CAN_4 
REMARK    2  A    between atoms: NBG_8  and  CAS_9 
REMARK    3  A    between atoms: CAS_9  and  CAX_10 
REMARK    4  A    between atoms: CAY_15  and  CBA_16 
REMARK    5  A    between atoms: NAV_25  and  CBE_26 
REMARK    6  A    between atoms: CBE_26  and  CAZ_28 
ROOT
HETATM    1  CBA   D T2019      14.817  -1.827  -0.259  1.00 67.38     0.083 A 
HETATM    2  NAW   D T2019      14.037  -1.794   0.830  1.00 64.38    -0.227 NA
HETATM    3  CAM   D T2019      14.053  -1.725  -1.348  1.00 64.23     0.025 A 
HETATM    4  C5    D T2019      12.790  -1.596  -0.955  1.00 64.03     0.073 A 
HETATM    5  C4    D T2019      12.779  -1.636   0.430  1.00 64.35     0.167 A 
HETATM    6  N3    D T2019      11.603  -1.538   1.088  1.00 65.15    -0.205 NA
HETATM    7  C2    D T2019      10.447  -1.409   0.425  1.00 64.91     0.202 A 
HETATM    8  N1    D T2019      10.427  -1.364  -0.900  1.00 65.23    -0.205 NA
HETATM    9  C6    D T2019      11.574  -1.450  -1.626  1.00 65.21     0.163 A 
HETATM   10  NAV   D T2019      11.549  -1.409  -2.966  1.00 66.46    -0.250 NA
ENDROOT
BRANCH   1  11
HETATM   11  CAY   D T2019      16.202  -1.999  -0.251  1.00 67.34     0.018 A 
HETATM   12  CAK   D T2019      16.788  -3.074   0.436  1.00 69.05     0.001 A 
HETATM   13  CAI   D T2019      18.174  -3.240   0.409  1.00 70.54    -0.002 A 
HETATM   14  CAX   D T2019      18.964  -2.333  -0.305  1.00 71.07     0.011 A 
HETATM   15  CAJ   D T2019      18.384  -1.280  -1.005  1.00 68.91    -0.002 A 
HETATM   16  CAL   D T2019      17.004  -1.117  -0.975  1.00 67.71     0.001 A 
BRANCH  14  17
HETATM   17  CAS   D T2019      20.475  -2.534  -0.381  1.00 74.21     0.277 C 
BRANCH  17  18
HETATM   18  NBG   D T2019      20.758  -2.694  -1.849  1.00 81.39     0.146 N 
HETATM   19  CAQ   D T2019      19.947  -3.779  -2.457  1.00 83.32     0.286 C 
HETATM   20  CAO   D T2019      20.590  -5.155  -2.156  1.00 86.22     0.285 C 
HETATM   21  NBF   D T2019      21.997  -5.257  -2.666  1.00 86.50     0.141 N 
HETATM   22  CAP   D T2019      22.901  -4.130  -2.262  1.00 84.69     0.285 C 
HETATM   23  CAR   D T2019      22.226  -2.731  -2.185  1.00 81.90     0.286 C 
BRANCH  21  24
HETATM   24  CAN   D T2019      22.031  -5.545  -4.128  1.00 86.80     0.251 C 
HETATM   25  CAA   D T2019      20.749  -6.292  -4.574  1.00 86.31     0.037 C 
ENDBRANCH  21  24
ENDBRANCH  17  18
ENDBRANCH  14  17
ENDBRANCH   1  11
BRANCH  10  26
HETATM   26  CBE   D T2019      10.299  -1.710  -3.675  1.00 69.45     0.127 C 
HETATM   27  CAB   D T2019      10.378  -3.029  -4.461  1.00 70.81     0.031 C 
BRANCH  26  28
HETATM   28  CAZ   D T2019       9.979  -0.520  -4.588  1.00 71.15    -0.000 A 
HETATM   29  CAG   D T2019       8.684  -0.407  -5.151  1.00 70.34    -0.002 A 
HETATM   30  CAD   D T2019       8.355   0.653  -6.004  1.00 69.22    -0.000 A 
HETATM   31  CAC   D T2019       9.349   1.601  -6.275  1.00 70.75    -0.000 A 
HETATM   32  CAE   D T2019      10.638   1.496  -5.713  1.00 71.52    -0.000 A 
HETATM   33  CAH   D T2019      10.974   0.431  -4.875  1.00 71.18    -0.002 A 
ENDBRANCH  26  28
ENDBRANCH  10  26
TORSDOF 6
ENDMDL
MODEL 6
REMARK VINA RESULT:    -6.578      1.746     10.518
REMARK INTER + INTRA:         -10.021
REMARK INTER:                  -9.045
REMARK INTRA:                  -0.976
REMARK UNBOUND:                -1.136
REMARK  6 active torsions:
REMARK  status: ('A' for Active; 'I' for Inactive)
REMARK    1  A    between atoms: NBF_3  and  CAN_4 
REMARK    2  A    between atoms: NBG_8  and  CAS_9 
REMARK    3  A    between atoms: CAS_9  and  CAX_10 
REMARK    4  A    between atoms: CAY_15  and  CBA_16 
REMARK    5  A    between atoms: NAV_25  and  CBE_26 
REMARK    6  A    between atoms: CBE_26  and  CAZ_28 
ROOT
HETATM    1  CBA   D T2019      13.779  -1.671   0.389  1.00 67.38     0.083 A 
HETATM    2  NAW   D T2019      13.871  -1.754   1.723  1.00 64.38    -0.227 NA
HETATM    3  CAM   D T2019      15.006  -1.577  -0.129  1.00 64.23     0.025 A 
HETATM    4  C5    D T2019      15.880  -1.631   0.870  1.00 64.03     0.073 A 
HETATM    5  C4    D T2019      15.160  -1.747   2.049  1.00 64.35     0.167 A 
HETATM    6  N3    D T2019      15.818  -1.809   3.226  1.00 65.15    -0.205 NA
HETATM    7  C2    D T2019      17.155  -1.754   3.277  1.00 64.91     0.202 A 
HETATM    8  N1    D T2019      17.871  -1.647   2.166  1.00 65.23    -0.205 NA
HETATM    9  C6    D T2019      17.273  -1.586   0.945  1.00 65.21     0.163 A 
HETATM   10  NAV   D T2019      18.001  -1.473  -0.176  1.00 66.46    -0.250 NA
ENDROOT
BRANCH   1  11
HETATM   11  CAY   D T2019      12.586  -1.630  -0.334  1.00 67.34     0.018 A 
HETATM   12  CAK   D T2019      11.348  -1.589   0.325  1.00 69.05     0.001 A 
HETATM   13  CAI   D T2019      10.169  -1.523  -0.420  1.00 70.54    -0.002 A 
HETATM   14  CAX   D T2019      10.236  -1.498  -1.817  1.00 71.07     0.011 A 
HETATM   15  CAJ   D T2019      11.462  -1.516  -2.472  1.00 68.91    -0.002 A 
HETATM   16  CAL   D T2019      12.634  -1.582  -1.728  1.00 67.71     0.001 A 
BRANCH  14  17
HETATM   17  CAS   D T2019       8.955  -1.376  -2.639  1.00 74.21     0.277 C 
BRANCH  17  18
HETATM   18  NBG   D T2019       9.432  -1.139  -4.044  1.00 81.39     0.146 N 
HETATM   19  CAQ   D T2019       9.425   0.304  -4.397  1.00 83.32     0.286 C 
HETATM   20  CAO   D T2019       7.993   0.750  -4.780  1.00 86.22     0.285 C 
HETATM   21  NBF   D T2019       7.433  -0.035  -5.930  1.00 86.50     0.141 N 
HETATM   22  CAP   D T2019       7.522  -1.525  -5.784  1.00 84.69     0.285 C 
HETATM   23  CAR   D T2019       8.798  -2.048  -5.064  1.00 81.90     0.286 C 
BRANCH  21  24
HETATM   24  CAN   D T2019       7.951   0.463  -7.236  1.00 86.80     0.251 C 
HETATM   25  CAA   D T2019       6.868   1.273  -7.989  1.00 86.31     0.037 C 
ENDBRANCH  21  24
ENDBRANCH  17  18
ENDBRANCH  14  17
ENDBRANCH   1  11
BRANCH  10  26
HETATM   26  CBE   D T2019      19.381  -0.977  -0.095  1.00 69.45     0.127 C 
HETATM   27  CAB   D T2019      19.485   0.517  -0.438  1.00 70.81     0.031 C 
BRANCH  26  28
HETATM   28  CAZ   D T2019      20.244  -1.839  -1.025  1.00 71.15    -0.000 A 
HETATM   29  CAG   D T2019      21.592  -1.472  -1.257  1.00 70.34    -0.002 A 
HETATM   30  CAD   D T2019      22.410  -2.219  -2.114  1.00 69.22    -0.000 A 
HETATM   31  CAC   D T2019      21.848  -3.345  -2.728  1.00 70.75    -0.000 A 
HETATM   32  CAE   D T2019      20.508  -3.718  -2.497  1.00 71.52    -0.000 A 
HETATM   33  CAH   D T2019      19.686  -2.965  -1.656  1.00 71.18    -0.002 A 
ENDBRANCH  26  28
ENDBRANCH  10  26
TORSDOF 6
ENDMDL
MODEL 7
REMARK VINA RESULT:    -6.562      5.127      5.802
REMARK INTER + INTRA:          -9.999
REMARK INTER:                 -10.508
REMARK INTRA:                   0.509
REMARK UNBOUND:                -1.136
REMARK  6 active torsions:
REMARK  status: ('A' for Active; 'I' for Inactive)
REMARK    1  A    between atoms: NBF_3  and  CAN_4 
REMARK    2  A    between atoms: NBG_8  and  CAS_9 
REMARK    3  A    between atoms: CAS_9  and  CAX_10 
REMARK    4  A    between atoms: CAY_15  and  CBA_16 
REMARK    5  A    between atoms: NAV_25  and  CBE_26 
REMARK    6  A    between atoms: CBE_26  and  CAZ_28 
ROOT
HETATM    1  CBA   D T2019      10.307  -3.031  -1.093  1.00 67.38     0.083 A 
HETATM    2  NAW   D T2019      10.570  -4.152  -1.779  1.00 64.38    -0.227 NA
HETATM    3  CAM   D T2019       9.530  -2.238  -1.834  1.00 64.23     0.025 A 
HETATM    4  C5    D T2019       9.272  -2.864  -2.977  1.00 64.03     0.073 A 
HETATM    5  C4    D T2019       9.930  -4.083  -2.942  1.00 64.35     0.167 A 
HETATM    6  N3    D T2019       9.840  -4.917  -4.001  1.00 65.15    -0.205 NA
HETATM    7  C2    D T2019       9.132  -4.584  -5.087  1.00 64.91     0.202 A 
HETATM    8  N1    D T2019       8.488  -3.426  -5.148  1.00 65.23    -0.205 NA
HETATM    9  C6    D T2019       8.530  -2.541  -4.115  1.00 65.21     0.163 A 
HETATM   10  NAV   D T2019       7.882  -1.369  -4.182  1.00 66.46    -0.250 NA
ENDROOT
BRANCH   1  11
HETATM   11  CAY   D T2019      10.816  -2.723   0.169  1.00 67.34     0.018 A 
HETATM   12  CAK   D T2019      11.328  -1.446   0.445  1.00 69.05     0.001 A 
HETATM   13  CAI   D T2019      11.808  -1.153   1.723  1.00 70.54    -0.002 A 
HETATM   14  CAX   D T2019      11.772  -2.138   2.716  1.00 71.07     0.011 A 
HETATM   15  CAJ   D T2019      11.244  -3.397   2.451  1.00 68.91    -0.002 A 
HETATM   16  CAL   D T2019      10.768  -3.685   1.178  1.00 67.71     0.001 A 
BRANCH  14  17
HETATM   17  CAS   D T2019      12.249  -1.812   4.129  1.00 74.21     0.277 C 
BRANCH  17  18
HETATM   18  NBG   D T2019      13.683  -1.397   3.953  1.00 81.39     0.146 N 
HETATM   19  CAQ   D T2019      14.623  -2.516   4.218  1.00 83.32     0.286 C 
HETATM   20  CAO   D T2019      14.831  -2.684   5.743  1.00 86.22     0.285 C 
HETATM   21  NBF   D T2019      15.361  -1.440   6.393  1.00 86.50     0.141 N 
HETATM   22  CAP   D T2019      14.599  -0.187   6.079  1.00 84.69     0.285 C 
HETATM   23  CAR   D T2019      14.028  -0.098   4.635  1.00 81.90     0.286 C 
BRANCH  21  24
HETATM   24  CAN   D T2019      16.832  -1.302   6.194  1.00 86.80     0.251 C 
HETATM   25  CAA   D T2019      17.290   0.155   6.449  1.00 86.31     0.037 C 
ENDBRANCH  21  24
ENDBRANCH  17  18
ENDBRANCH  14  17
ENDBRANCH   1  11
BRANCH  10  26
HETATM   26  CBE   D T2019       7.496  -0.831  -5.492  1.00 69.45     0.127 C 
HETATM   27  CAB   D T2019       7.449  -1.917  -6.578  1.00 70.81     0.031 C 
BRANCH  26  28
HETATM   28  CAZ   D T2019       8.481   0.290  -5.847  1.00 71.15    -0.000 A 
HETATM   29  CAG   D T2019       8.096   1.281  -6.784  1.00 70.34    -0.002 A 
HETATM   30  CAD   D T2019       8.971   2.310  -7.151  1.00 69.22    -0.000 A 
HETATM   31  CAC   D T2019      10.238   2.329  -6.555  1.00 70.75    -0.000 A 
HETATM   32  CAE   D T2019      10.624   1.348  -5.618  1.00 71.52    -0.000 A 
HETATM   33  CAH   D T2019       9.760   0.311  -5.262  1.00 71.18    -0.002 A 
ENDBRANCH  26  28
ENDBRANCH  10  26
TORSDOF 6
ENDMDL
MODEL 8
REMARK VINA RESULT:    -6.320      4.390     10.698
REMARK INTER + INTRA:          -9.673
REMARK INTER:                  -9.017
REMARK INTRA:                  -0.656
REMARK UNBOUND:                -1.136
REMARK  6 active torsions:
REMARK  status: ('A' for Active; 'I' for Inactive)
REMARK    1  A    between atoms: NBF_3  and  CAN_4 
REMARK    2  A    between atoms: NBG_8  and  CAS_9 
REMARK    3  A    between atoms: CAS_9  and  CAX_10 
REMARK    4  A    between atoms: CAY_15  and  CBA_16 
REMARK    5  A    between atoms: NAV_25  and  CBE_26 
REMARK    6  A    between atoms: CBE_26  and  CAZ_28 
ROOT
HETATM    1  CBA   D T2019      10.136  -2.049  -1.040  1.00 67.38     0.083 A 
HETATM    2  NAW   D T2019       9.240  -2.974  -0.671  1.00 64.38    -0.227 NA
HETATM    3  CAM   D T2019      11.059  -1.928  -0.084  1.00 64.23     0.025 A 
HETATM    4  C5    D T2019      10.770  -2.795   0.880  1.00 64.03     0.073 A 
HETATM    5  C4    D T2019       9.615  -3.465   0.507  1.00 64.35     0.167 A 
HETATM    6  N3    D T2019       9.096  -4.402   1.328  1.00 65.15    -0.205 NA
HETATM    7  C2    D T2019       9.673  -4.694   2.500  1.00 64.91     0.202 A 
HETATM    8  N1    D T2019      10.781  -4.073   2.883  1.00 65.23    -0.205 NA
HETATM    9  C6    D T2019      11.361  -3.122   2.102  1.00 65.21     0.163 A 
HETATM   10  NAV   D T2019      12.479  -2.494   2.495  1.00 66.46    -0.250 NA
ENDROOT
BRANCH   1  11
HETATM   11  CAY   D T2019      10.076  -1.294  -2.212  1.00 67.34     0.018 A 
HETATM   12  CAK   D T2019       9.196  -0.207  -2.321  1.00 69.05     0.001 A 
HETATM   13  CAI   D T2019       9.172   0.550  -3.495  1.00 70.54    -0.002 A 
HETATM   14  CAX   D T2019      10.028   0.214  -4.550  1.00 71.07     0.011 A 
HETATM   15  CAJ   D T2019      10.916  -0.849  -4.435  1.00 68.91    -0.002 A 
HETATM   16  CAL   D T2019      10.937  -1.600  -3.266  1.00 67.71     0.001 A 
BRANCH  14  17
HETATM   17  CAS   D T2019      10.043   1.065  -5.817  1.00 74.21     0.277 C 
BRANCH  17  18
HETATM   18  NBG   D T2019       8.648   1.618  -5.913  1.00 81.39     0.146 N 
HETATM   19  CAQ   D T2019       7.635   0.546  -6.083  1.00 83.32     0.286 C 
HETATM   20  CAO   D T2019       7.585   0.091  -7.561  1.00 86.22     0.285 C 
HETATM   21  NBF   D T2019       7.263   1.216  -8.500  1.00 86.50     0.141 N 
HETATM   22  CAP   D T2019       8.109   2.443  -8.333  1.00 84.69     0.285 C 
HETATM   23  CAR   D T2019       8.518   2.776  -6.869  1.00 81.90     0.286 C 
BRANCH  21  24
HETATM   24  CAN   D T2019       5.801   1.506  -8.526  1.00 86.80     0.251 C 
HETATM   25  CAA   D T2019       5.539   3.005  -8.812  1.00 86.31     0.037 C 
ENDBRANCH  21  24
ENDBRANCH  17  18
ENDBRANCH  14  17
ENDBRANCH   1  11
BRANCH  10  26
HETATM   26  CBE   D T2019      12.843  -2.487   3.917  1.00 69.45     0.127 C 
HETATM   27  CAB   D T2019      12.326  -1.237   4.646  1.00 70.81     0.031 C 
BRANCH  26  28
HETATM   28  CAZ   D T2019      14.369  -2.614   4.011  1.00 71.15    -0.000 A 
HETATM   29  CAG   D T2019      15.055  -1.960   5.065  1.00 70.34    -0.002 A 
HETATM   30  CAD   D T2019      16.448  -2.033   5.177  1.00 69.22    -0.000 A 
HETATM   31  CAC   D T2019      17.139  -2.781   4.215  1.00 70.75    -0.000 A 
HETATM   32  CAE   D T2019      16.460  -3.438   3.168  1.00 71.52    -0.000 A 
HETATM   33  CAH   D T2019      15.072  -3.353   3.044  1.00 71.18    -0.002 A 
ENDBRANCH  26  28
ENDBRANCH  10  26
TORSDOF 6
ENDMDL
MODEL 9
REMARK VINA RESULT:    -6.108      5.816     10.845
REMARK INTER + INTRA:          -9.386
REMARK INTER:                  -8.283
REMARK INTRA:                  -1.103
REMARK UNBOUND:                -1.136
REMARK  6 active torsions:
REMARK  status: ('A' for Active; 'I' for Inactive)
REMARK    1  A    between atoms: NBF_3  and  CAN_4 
REMARK    2  A    between atoms: NBG_8  and  CAS_9 
REMARK    3  A    between atoms: CAS_9  and  CAX_10 
REMARK    4  A    between atoms: CAY_15  and  CBA_16 
REMARK    5  A    between atoms: NAV_25  and  CBE_26 
REMARK    6  A    between atoms: CBE_26  and  CAZ_28 
ROOT
HETATM    1  CBA   D T2019      10.271  -2.244  -0.842  1.00 67.38     0.083 A 
HETATM    2  NAW   D T2019      10.727  -1.335   0.031  1.00 64.38    -0.227 NA
HETATM    3  CAM   D T2019      10.410  -3.463  -0.316  1.00 64.23     0.025 A 
HETATM    4  C5    D T2019      10.926  -3.331   0.901  1.00 64.03     0.073 A 
HETATM    5  C4    D T2019      11.125  -1.977   1.125  1.00 64.35     0.167 A 
HETATM    6  N3    D T2019      11.657  -1.569   2.297  1.00 65.15    -0.205 NA
HETATM    7  C2    D T2019      12.003  -2.449   3.245  1.00 64.91     0.202 A 
HETATM    8  N1    D T2019      11.821  -3.749   3.062  1.00 65.23    -0.205 NA
HETATM    9  C6    D T2019      11.283  -4.230   1.908  1.00 65.21     0.163 A 
HETATM   10  NAV   D T2019      11.105  -5.547   1.724  1.00 66.46    -0.250 NA
ENDROOT
BRANCH   1  11
HETATM   11  CAY   D T2019       9.783  -1.960  -2.118  1.00 67.34     0.018 A 
HETATM   12  CAK   D T2019       8.421  -1.694  -2.323  1.00 69.05     0.001 A 
HETATM   13  CAI   D T2019       7.960  -1.387  -3.605  1.00 70.54    -0.002 A 
HETATM   14  CAX   D T2019       8.865  -1.347  -4.671  1.00 71.07     0.011 A 
HETATM   15  CAJ   D T2019      10.219  -1.587  -4.466  1.00 68.91    -0.002 A 
HETATM   16  CAL   D T2019      10.673  -1.893  -3.189  1.00 67.71     0.001 A 
BRANCH  14  17
HETATM   17  CAS   D T2019       8.379  -0.964  -6.067  1.00 74.21     0.277 C 
BRANCH  17  18
HETATM   18  NBG   D T2019       7.778   0.403  -5.892  1.00 81.39     0.146 N 
HETATM   19  CAQ   D T2019       6.781   0.712  -6.949  1.00 83.32     0.286 C 
HETATM   20  CAO   D T2019       7.501   1.164  -8.243  1.00 86.22     0.285 C 
HETATM   21  NBF   D T2019       8.369   2.368  -8.028  1.00 86.50     0.141 N 
HETATM   22  CAP   D T2019       9.325   2.263  -6.878  1.00 84.69     0.285 C 
HETATM   23  CAR   D T2019       8.795   1.486  -5.639  1.00 81.90     0.286 C 
BRANCH  21  24
HETATM   24  CAN   D T2019       7.569   3.626  -8.018  1.00 86.80     0.251 C 
HETATM   25  CAA   D T2019       8.490   4.868  -8.082  1.00 86.31     0.037 C 
ENDBRANCH  21  24
ENDBRANCH  17  18
ENDBRANCH  14  17
ENDBRANCH   1  11
BRANCH  10  26
HETATM   26  CBE   D T2019      11.867  -6.500   2.540  1.00 69.45     0.127 C 
HETATM   27  CAB   D T2019      12.622  -7.528   1.683  1.00 70.81     0.031 C 
BRANCH  26  28
HETATM   28  CAZ   D T2019      10.888  -7.173   3.511  1.00 71.15    -0.000 A 
HETATM   29  CAG   D T2019      11.343  -7.559   4.796  1.00 70.34    -0.002 A 
HETATM   30  CAD   D T2019      10.488  -8.194   5.706  1.00 69.22    -0.000 A 
HETATM   31  CAC   D T2019       9.168  -8.426   5.303  1.00 70.75    -0.000 A 
HETATM   32  CAE   D T2019       8.709  -8.039   4.027  1.00 71.52    -0.000 A 
HETATM   33  CAH   D T2019       9.563  -7.421   3.111  1.00 71.18    -0.002 A 
ENDBRANCH  26  28
ENDBRANCH  10  26
TORSDOF 6
ENDMDL
