MODEL 1
REMARK VINA RESULT:    -8.517      0.000      0.000
REMARK INTER + INTRA:         -12.510
REMARK INTER:                 -11.505
REMARK INTRA:                  -1.005
REMARK UNBOUND:                -1.005
REMARK  6 active torsions:
REMARK  status: ('A' for Active; 'I' for Inactive)
REMARK    1  A    between atoms: NBF_3  and  CAN_4 
REMARK    2  A    between atoms: NBG_8  and  CAS_9 
REMARK    3  A    between atoms: CAS_9  and  CAX_10 
REMARK    4  A    between atoms: CAY_15  and  CBA_16 
REMARK    5  A    between atoms: NAV_25  and  CBE_26 
REMARK    6  A    between atoms: CBE_26  and  CAZ_28 
ROOT
HETATM    1  CBA   D T2019     -12.306   2.565  -5.893  1.00 67.38     0.083 A 
HETATM    2  NAW   D T2019     -10.971   2.615  -6.011  1.00 64.38    -0.227 NA
HETATM    3  CAM   D T2019     -12.708   3.528  -5.061  1.00 64.23     0.025 A 
HETATM    4  C5    D T2019     -11.636   4.210  -4.671  1.00 64.03     0.073 A 
HETATM    5  C4    D T2019     -10.531   3.633  -5.277  1.00 64.35     0.167 A 
HETATM    6  N3    D T2019      -9.302   4.136  -5.033  1.00 65.15    -0.205 NA
HETATM    7  C2    D T2019      -9.130   5.179  -4.212  1.00 64.91     0.202 A 
HETATM    8  N1    D T2019     -10.169   5.755  -3.620  1.00 65.23    -0.205 NA
HETATM    9  C6    D T2019     -11.436   5.302  -3.826  1.00 65.21     0.163 A 
HETATM   10  NAV   D T2019     -12.483   5.884  -3.222  1.00 66.46    -0.250 NA
ENDROOT
BRANCH   1  11
HETATM   11  CAY   D T2019     -13.131   1.619  -6.502  1.00 67.34     0.018 A 
HETATM   12  CAK   D T2019     -12.754   1.008  -7.707  1.00 69.05     0.001 A 
HETATM   13  CAI   D T2019     -13.586   0.044  -8.285  1.00 70.54    -0.002 A 
HETATM   14  CAX   D T2019     -14.784  -0.300  -7.652  1.00 71.07     0.011 A 
HETATM   15  CAJ   D T2019     -15.149   0.288  -6.447  1.00 68.91    -0.002 A 
HETATM   16  CAL   D T2019     -14.319   1.246  -5.876  1.00 67.71     0.001 A 
BRANCH  14  17
HETATM   17  CAS   D T2019     -15.675  -1.387  -8.250  1.00 74.21     0.277 C 
BRANCH  17  18
HETATM   18  NBG   D T2019     -14.735  -2.524  -8.539  1.00 81.39     0.146 N 
HETATM   19  CAQ   D T2019     -14.860  -3.006  -9.940  1.00 83.32     0.286 C 
HETATM   20  CAO   D T2019     -16.082  -3.948 -10.068  1.00 86.22     0.285 C 
HETATM   21  NBF   D T2019     -15.996  -5.133  -9.152  1.00 86.50     0.141 N 
HETATM   22  CAP   D T2019     -15.707  -4.806  -7.718  1.00 84.69     0.285 C 
HETATM   23  CAR   D T2019     -14.746  -3.604  -7.489  1.00 81.90     0.286 C 
BRANCH  21  24
HETATM   24  CAN   D T2019     -15.105  -6.192  -9.707  1.00 86.80     0.251 C 
HETATM   25  CAA   D T2019     -14.696  -7.203  -8.608  1.00 86.31     0.037 C 
ENDBRANCH  21  24
ENDBRANCH  17  18
ENDBRANCH  14  17
ENDBRANCH   1  11
BRANCH  10  26
HETATM   26  CBE   D T2019     -12.264   6.700  -2.023  1.00 69.45     0.127 C 
HETATM   27  CAB   D T2019     -13.240   6.348  -0.890  1.00 70.81     0.031 C 
BRANCH  26  28
HETATM   28  CAZ   D T2019     -12.372   8.175  -2.433  1.00 71.15    -0.000 A 
HETATM   29  CAG   D T2019     -12.424   9.171  -1.428  1.00 70.34    -0.002 A 
HETATM   30  CAD   D T2019     -12.541  10.527  -1.757  1.00 69.22    -0.000 A 
HETATM   31  CAC   D T2019     -12.601  10.862  -3.116  1.00 70.75    -0.000 A 
HETATM   32  CAE   D T2019     -12.544   9.874  -4.121  1.00 71.52    -0.000 A 
HETATM   33  CAH   D T2019     -12.443   8.520  -3.794  1.00 71.18    -0.002 A 
ENDBRANCH  26  28
ENDBRANCH  10  26
TORSDOF 6
ENDMDL
MODEL 2
REMARK VINA RESULT:    -8.500      2.216      3.652
REMARK INTER + INTRA:         -12.487
REMARK INTER:                 -11.728
REMARK INTRA:                  -0.760
REMARK UNBOUND:                -1.005
REMARK  6 active torsions:
REMARK  status: ('A' for Active; 'I' for Inactive)
REMARK    1  A    between atoms: NBF_3  and  CAN_4 
REMARK    2  A    between atoms: NBG_8  and  CAS_9 
REMARK    3  A    between atoms: CAS_9  and  CAX_10 
REMARK    4  A    between atoms: CAY_15  and  CBA_16 
REMARK    5  A    between atoms: NAV_25  and  CBE_26 
REMARK    6  A    between atoms: CBE_26  and  CAZ_28 
ROOT
HETATM    1  CBA   D T2019     -11.604   3.807  -5.256  1.00 67.38     0.083 A 
HETATM    2  NAW   D T2019     -10.472   4.467  -4.969  1.00 64.38    -0.227 NA
HETATM    3  CAM   D T2019     -12.569   4.215  -4.430  1.00 64.23     0.025 A 
HETATM    4  C5    D T2019     -12.064   5.154  -3.637  1.00 64.03     0.073 A 
HETATM    5  C4    D T2019     -10.731   5.318  -3.980  1.00 64.35     0.167 A 
HETATM    6  N3    D T2019      -9.977   6.214  -3.308  1.00 65.15    -0.205 NA
HETATM    7  C2    D T2019     -10.491   6.944  -2.312  1.00 64.91     0.202 A 
HETATM    8  N1    D T2019     -11.764   6.812  -1.962  1.00 65.23    -0.205 NA
HETATM    9  C6    D T2019     -12.582   5.931  -2.601  1.00 65.21     0.163 A 
HETATM   10  NAV   D T2019     -13.868   5.797  -2.240  1.00 66.46    -0.250 NA
ENDROOT
BRANCH   1  11
HETATM   11  CAY   D T2019     -11.730   2.813  -6.227  1.00 67.34     0.018 A 
HETATM   12  CAK   D T2019     -10.617   2.386  -6.966  1.00 69.05     0.001 A 
HETATM   13  CAI   D T2019     -10.763   1.371  -7.915  1.00 70.54    -0.002 A 
HETATM   14  CAX   D T2019     -12.021   0.793  -8.118  1.00 71.07     0.011 A 
HETATM   15  CAJ   D T2019     -13.121   1.200  -7.372  1.00 68.91    -0.002 A 
HETATM   16  CAL   D T2019     -12.970   2.209  -6.428  1.00 67.71     0.001 A 
BRANCH  14  17
HETATM   17  CAS   D T2019     -12.180  -0.350  -9.118  1.00 74.21     0.277 C 
BRANCH  17  18
HETATM   18  NBG   D T2019     -13.485  -0.996  -8.743  1.00 81.39     0.146 N 
HETATM   19  CAQ   D T2019     -13.282  -2.288  -8.036  1.00 83.32     0.286 C 
HETATM   20  CAO   D T2019     -12.989  -3.411  -9.060  1.00 86.22     0.285 C 
HETATM   21  NBF   D T2019     -14.089  -3.575 -10.068  1.00 86.50     0.141 N 
HETATM   22  CAP   D T2019     -14.516  -2.312 -10.751  1.00 84.69     0.285 C 
HETATM   23  CAR   D T2019     -14.489  -1.033  -9.865  1.00 81.90     0.286 C 
BRANCH  21  24
HETATM   24  CAN   D T2019     -15.228  -4.360  -9.512  1.00 86.80     0.251 C 
HETATM   25  CAA   D T2019     -14.718  -5.578  -8.702  1.00 86.31     0.037 C 
ENDBRANCH  21  24
ENDBRANCH  17  18
ENDBRANCH  14  17
ENDBRANCH   1  11
BRANCH  10  26
HETATM   26  CBE   D T2019     -14.297   6.246  -0.911  1.00 69.45     0.127 C 
HETATM   27  CAB   D T2019     -13.545   5.528   0.220  1.00 70.81     0.031 C 
BRANCH  26  28
HETATM   28  CAZ   D T2019     -15.813   6.037  -0.811  1.00 71.15    -0.000 A 
HETATM   29  CAG   D T2019     -16.416   4.983  -1.540  1.00 70.34    -0.002 A 
HETATM   30  CAD   D T2019     -17.799   4.768  -1.493  1.00 69.22    -0.000 A 
HETATM   31  CAC   D T2019     -18.563   5.630  -0.696  1.00 70.75    -0.000 A 
HETATM   32  CAE   D T2019     -17.967   6.678   0.035  1.00 71.52    -0.000 A 
HETATM   33  CAH   D T2019     -16.590   6.904  -0.023  1.00 71.18    -0.002 A 
ENDBRANCH  26  28
ENDBRANCH  10  26
TORSDOF 6
ENDMDL
MODEL 3
REMARK VINA RESULT:    -8.204      3.726      5.390
REMARK INTER + INTRA:         -12.088
REMARK INTER:                 -11.263
REMARK INTRA:                  -0.824
REMARK UNBOUND:                -1.005
REMARK  6 active torsions:
REMARK  status: ('A' for Active; 'I' for Inactive)
REMARK    1  A    between atoms: NBF_3  and  CAN_4 
REMARK    2  A    between atoms: NBG_8  and  CAS_9 
REMARK    3  A    between atoms: CAS_9  and  CAX_10 
REMARK    4  A    between atoms: CAY_15  and  CBA_16 
REMARK    5  A    between atoms: NAV_25  and  CBE_26 
REMARK    6  A    between atoms: CBE_26  and  CAZ_28 
ROOT
HETATM    1  CBA   D T2019     -13.545   2.632  -4.712  1.00 67.38     0.083 A 
HETATM    2  NAW   D T2019     -12.732   3.696  -4.629  1.00 64.38    -0.227 NA
HETATM    3  CAM   D T2019     -14.481   2.722  -3.765  1.00 64.23     0.025 A 
HETATM    4  C5    D T2019     -14.284   3.855  -3.098  1.00 64.03     0.073 A 
HETATM    5  C4    D T2019     -13.175   4.477  -3.648  1.00 64.35     0.167 A 
HETATM    6  N3    D T2019     -12.751   5.653  -3.137  1.00 65.15    -0.205 NA
HETATM    7  C2    D T2019     -13.378   6.226  -2.104  1.00 64.91     0.202 A 
HETATM    8  N1    D T2019     -14.445   5.657  -1.558  1.00 65.23    -0.205 NA
HETATM    9  C6    D T2019     -14.930   4.475  -2.027  1.00 65.21     0.163 A 
HETATM   10  NAV   D T2019     -16.006   3.899  -1.468  1.00 66.46    -0.250 NA
ENDROOT
BRANCH   1  11
HETATM   11  CAY   D T2019     -13.396   1.576  -5.611  1.00 67.34     0.018 A 
HETATM   12  CAK   D T2019     -12.549   1.693  -6.723  1.00 69.05     0.001 A 
HETATM   13  CAI   D T2019     -12.396   0.612  -7.595  1.00 70.54    -0.002 A 
HETATM   14  CAX   D T2019     -13.091  -0.576  -7.348  1.00 71.07     0.011 A 
HETATM   15  CAJ   D T2019     -13.914  -0.702  -6.234  1.00 68.91    -0.002 A 
HETATM   16  CAL   D T2019     -14.062   0.375  -5.369  1.00 67.71     0.001 A 
BRANCH  14  17
HETATM   17  CAS   D T2019     -12.893  -1.779  -8.267  1.00 74.21     0.277 C 
BRANCH  17  18
HETATM   18  NBG   D T2019     -13.052  -1.220  -9.654  1.00 81.39     0.146 N 
HETATM   19  CAQ   D T2019     -14.416  -1.457 -10.194  1.00 83.32     0.286 C 
HETATM   20  CAO   D T2019     -14.527  -2.904 -10.736  1.00 86.22     0.285 C 
HETATM   21  NBF   D T2019     -13.520  -3.198 -11.809  1.00 86.50     0.141 N 
HETATM   22  CAP   D T2019     -12.104  -2.851 -11.461  1.00 84.69     0.285 C 
HETATM   23  CAR   D T2019     -11.925  -1.577 -10.587  1.00 81.90     0.286 C 
BRANCH  21  24
HETATM   24  CAN   D T2019     -13.953  -2.656 -13.129  1.00 86.80     0.251 C 
HETATM   25  CAA   D T2019     -12.748  -2.518 -14.092  1.00 86.31     0.037 C 
ENDBRANCH  21  24
ENDBRANCH  17  18
ENDBRANCH  14  17
ENDBRANCH   1  11
BRANCH  10  26
HETATM   26  CBE   D T2019     -16.405   4.280  -0.109  1.00 69.45     0.127 C 
HETATM   27  CAB   D T2019     -15.267   4.098   0.907  1.00 70.81     0.031 C 
BRANCH  26  28
HETATM   28  CAZ   D T2019     -17.642   3.453   0.265  1.00 71.15    -0.000 A 
HETATM   29  CAG   D T2019     -18.407   3.825   1.397  1.00 70.34    -0.002 A 
HETATM   30  CAD   D T2019     -19.533   3.088   1.785  1.00 69.22    -0.000 A 
HETATM   31  CAC   D T2019     -19.876   1.972   1.011  1.00 70.75    -0.000 A 
HETATM   32  CAE   D T2019     -19.120   1.600  -0.119  1.00 71.52    -0.000 A 
HETATM   33  CAH   D T2019     -17.988   2.325  -0.499  1.00 71.18    -0.002 A 
ENDBRANCH  26  28
ENDBRANCH  10  26
TORSDOF 6
ENDMDL
MODEL 4
REMARK VINA RESULT:    -7.895      2.103      2.815
REMARK INTER + INTRA:         -11.669
REMARK INTER:                 -10.756
REMARK INTRA:                  -0.913
REMARK UNBOUND:                -1.005
REMARK  6 active torsions:
REMARK  status: ('A' for Active; 'I' for Inactive)
REMARK    1  A    between atoms: NBF_3  and  CAN_4 
REMARK    2  A    between atoms: NBG_8  and  CAS_9 
REMARK    3  A    between atoms: CAS_9  and  CAX_10 
REMARK    4  A    between atoms: CAY_15  and  CBA_16 
REMARK    5  A    between atoms: NAV_25  and  CBE_26 
REMARK    6  A    between atoms: CBE_26  and  CAZ_28 
ROOT
HETATM    1  CBA   D T2019     -11.830   2.731  -6.176  1.00 67.38     0.083 A 
HETATM    2  NAW   D T2019     -10.603   3.271  -6.222  1.00 64.38    -0.227 NA
HETATM    3  CAM   D T2019     -12.510   3.277  -5.165  1.00 64.23     0.025 A 
HETATM    4  C5    D T2019     -11.729   4.183  -4.585  1.00 64.03     0.073 A 
HETATM    5  C4    D T2019     -10.517   4.182  -5.257  1.00 64.35     0.167 A 
HETATM    6  N3    D T2019      -9.533   5.014  -4.853  1.00 65.15    -0.205 NA
HETATM    7  C2    D T2019      -9.703   5.834  -3.810  1.00 64.91     0.202 A 
HETATM    8  N1    D T2019     -10.854   5.860  -3.148  1.00 65.23    -0.205 NA
HETATM    9  C6    D T2019     -11.890   5.053  -3.506  1.00 65.21     0.163 A 
HETATM   10  NAV   D T2019     -13.049   5.078  -2.831  1.00 66.46    -0.250 NA
ENDROOT
BRANCH   1  11
HETATM   11  CAY   D T2019     -12.296   1.722  -7.019  1.00 67.34     0.018 A 
HETATM   12  CAK   D T2019     -13.652   1.363  -7.027  1.00 69.05     0.001 A 
HETATM   13  CAI   D T2019     -14.100   0.366  -7.899  1.00 70.54    -0.002 A 
HETATM   14  CAX   D T2019     -13.188  -0.261  -8.754  1.00 71.07     0.011 A 
HETATM   15  CAJ   D T2019     -11.848   0.108  -8.763  1.00 68.91    -0.002 A 
HETATM   16  CAL   D T2019     -11.408   1.100  -7.895  1.00 67.71     0.001 A 
BRANCH  14  17
HETATM   17  CAS   D T2019     -13.677  -1.316  -9.744  1.00 74.21     0.277 C 
BRANCH  17  18
HETATM   18  NBG   D T2019     -14.404  -2.320  -8.893  1.00 81.39     0.146 N 
HETATM   19  CAQ   D T2019     -13.762  -3.660  -8.944  1.00 83.32     0.286 C 
HETATM   20  CAO   D T2019     -14.190  -4.402 -10.234  1.00 86.22     0.285 C 
HETATM   21  NBF   D T2019     -15.678  -4.571 -10.336  1.00 86.50     0.141 N 
HETATM   22  CAP   D T2019     -16.473  -3.317 -10.140  1.00 84.69     0.285 C 
HETATM   23  CAR   D T2019     -15.897  -2.320  -9.093  1.00 81.90     0.286 C 
BRANCH  21  24
HETATM   24  CAN   D T2019     -16.158  -5.711  -9.504  1.00 86.80     0.251 C 
HETATM   25  CAA   D T2019     -17.685  -5.616  -9.264  1.00 86.31     0.037 C 
ENDBRANCH  21  24
ENDBRANCH  17  18
ENDBRANCH  14  17
ENDBRANCH   1  11
BRANCH  10  26
HETATM   26  CBE   D T2019     -13.081   5.624  -1.469  1.00 69.45     0.127 C 
HETATM   27  CAB   D T2019     -12.405   4.693  -0.451  1.00 70.81     0.031 C 
BRANCH  26  28
HETATM   28  CAZ   D T2019     -14.547   5.898  -1.108  1.00 71.15    -0.000 A 
HETATM   29  CAG   D T2019     -14.846   6.859  -0.112  1.00 70.34    -0.002 A 
HETATM   30  CAD   D T2019     -16.169   7.127   0.261  1.00 69.22    -0.000 A 
HETATM   31  CAC   D T2019     -17.184   6.413  -0.389  1.00 70.75    -0.000 A 
HETATM   32  CAE   D T2019     -16.891   5.459  -1.384  1.00 71.52    -0.000 A 
HETATM   33  CAH   D T2019     -15.572   5.179  -1.748  1.00 71.18    -0.002 A 
ENDBRANCH  26  28
ENDBRANCH  10  26
TORSDOF 6
ENDMDL
MODEL 5
REMARK VINA RESULT:    -7.839      3.278     10.881
REMARK INTER + INTRA:         -11.594
REMARK INTER:                 -10.519
REMARK INTRA:                  -1.075
REMARK UNBOUND:                -1.005
REMARK  6 active torsions:
REMARK  status: ('A' for Active; 'I' for Inactive)
REMARK    1  A    between atoms: NBF_3  and  CAN_4 
REMARK    2  A    between atoms: NBG_8  and  CAS_9 
REMARK    3  A    between atoms: CAS_9  and  CAX_10 
REMARK    4  A    between atoms: CAY_15  and  CBA_16 
REMARK    5  A    between atoms: NAV_25  and  CBE_26 
REMARK    6  A    between atoms: CBE_26  and  CAZ_28 
ROOT
HETATM    1  CBA   D T2019     -12.874   2.642  -4.667  1.00 67.38     0.083 A 
HETATM    2  NAW   D T2019     -11.829   3.139  -5.345  1.00 64.38    -0.227 NA
HETATM    3  CAM   D T2019     -13.328   1.556  -5.296  1.00 64.23     0.025 A 
HETATM    4  C5    D T2019     -12.557   1.342  -6.357  1.00 64.03     0.073 A 
HETATM    5  C4    D T2019     -11.601   2.346  -6.389  1.00 64.35     0.167 A 
HETATM    6  N3    D T2019     -10.692   2.366  -7.387  1.00 65.15    -0.205 NA
HETATM    7  C2    D T2019     -10.700   1.439  -8.351  1.00 64.91     0.202 A 
HETATM    8  N1    D T2019     -11.600   0.464  -8.347  1.00 65.23    -0.205 NA
HETATM    9  C6    D T2019     -12.542   0.379  -7.367  1.00 65.21     0.163 A 
HETATM   10  NAV   D T2019     -13.454  -0.605  -7.369  1.00 66.46    -0.250 NA
ENDROOT
BRANCH   1  11
HETATM   11  CAY   D T2019     -13.428   3.208  -3.518  1.00 67.34     0.018 A 
HETATM   12  CAK   D T2019     -13.265   4.573  -3.240  1.00 69.05     0.001 A 
HETATM   13  CAI   D T2019     -13.851   5.122  -2.096  1.00 70.54    -0.002 A 
HETATM   14  CAX   D T2019     -14.595   4.303  -1.242  1.00 71.07     0.011 A 
HETATM   15  CAJ   D T2019     -14.777   2.954  -1.528  1.00 68.91    -0.002 A 
HETATM   16  CAL   D T2019     -14.193   2.412  -2.666  1.00 67.71     0.001 A 
BRANCH  14  17
HETATM   17  CAS   D T2019     -15.280   4.904  -0.017  1.00 74.21     0.277 C 
BRANCH  17  18
HETATM   18  NBG   D T2019     -16.204   5.948  -0.580  1.00 81.39     0.146 N 
HETATM   19  CAQ   D T2019     -16.249   7.166   0.271  1.00 83.32     0.286 C 
HETATM   20  CAO   D T2019     -17.197   6.936   1.474  1.00 86.22     0.285 C 
HETATM   21  NBF   D T2019     -18.593   6.587   1.050  1.00 86.50     0.141 N 
HETATM   22  CAP   D T2019     -18.693   5.471   0.055  1.00 84.69     0.285 C 
HETATM   23  CAR   D T2019     -17.548   5.410  -0.996  1.00 81.90     0.286 C 
BRANCH  21  24
HETATM   24  CAN   D T2019     -19.366   7.800   0.655  1.00 86.80     0.251 C 
HETATM   25  CAA   D T2019     -20.867   7.465   0.473  1.00 86.31     0.037 C 
ENDBRANCH  21  24
ENDBRANCH  17  18
ENDBRANCH  14  17
ENDBRANCH   1  11
BRANCH  10  26
HETATM   26  CBE   D T2019     -13.735  -1.327  -8.615  1.00 69.45     0.127 C 
HETATM   27  CAB   D T2019     -14.622  -0.517  -9.572  1.00 70.81     0.031 C 
BRANCH  26  28
HETATM   28  CAZ   D T2019     -14.374  -2.672  -8.244  1.00 71.15    -0.000 A 
HETATM   29  CAG   D T2019     -13.987  -3.839  -8.946  1.00 70.34    -0.002 A 
HETATM   30  CAD   D T2019     -14.558  -5.084  -8.652  1.00 69.22    -0.000 A 
HETATM   31  CAC   D T2019     -15.522  -5.132  -7.636  1.00 70.75    -0.000 A 
HETATM   32  CAE   D T2019     -15.908  -3.973  -6.932  1.00 71.52    -0.000 A 
HETATM   33  CAH   D T2019     -15.350  -2.728  -7.234  1.00 71.18    -0.002 A 
ENDBRANCH  26  28
ENDBRANCH  10  26
TORSDOF 6
ENDMDL
MODEL 6
REMARK VINA RESULT:    -7.788      2.964      4.247
REMARK INTER + INTRA:         -11.525
REMARK INTER:                 -10.427
REMARK INTRA:                  -1.097
REMARK UNBOUND:                -1.005
REMARK  6 active torsions:
REMARK  status: ('A' for Active; 'I' for Inactive)
REMARK    1  A    between atoms: NBF_3  and  CAN_4 
REMARK    2  A    between atoms: NBG_8  and  CAS_9 
REMARK    3  A    between atoms: CAS_9  and  CAX_10 
REMARK    4  A    between atoms: CAY_15  and  CBA_16 
REMARK    5  A    between atoms: NAV_25  and  CBE_26 
REMARK    6  A    between atoms: CBE_26  and  CAZ_28 
ROOT
HETATM    1  CBA   D T2019     -13.101   3.137  -4.625  1.00 67.38     0.083 A 
HETATM    2  NAW   D T2019     -12.072   3.996  -4.617  1.00 64.38    -0.227 NA
HETATM    3  CAM   D T2019     -14.013   3.538  -3.736  1.00 64.23     0.025 A 
HETATM    4  C5    D T2019     -13.580   4.666  -3.183  1.00 64.03     0.073 A 
HETATM    5  C4    D T2019     -12.347   4.961  -3.744  1.00 64.35     0.167 A 
HETATM    6  N3    D T2019     -11.680   6.063  -3.340  1.00 65.15    -0.205 NA
HETATM    7  C2    D T2019     -12.183   6.874  -2.403  1.00 64.91     0.202 A 
HETATM    8  N1    D T2019     -13.363   6.620  -1.849  1.00 65.23    -0.205 NA
HETATM    9  C6    D T2019     -14.092   5.530  -2.214  1.00 65.21     0.163 A 
HETATM   10  NAV   D T2019     -15.281   5.274  -1.648  1.00 66.46    -0.250 NA
ENDROOT
BRANCH   1  11
HETATM   11  CAY   D T2019     -13.176   1.980  -5.401  1.00 67.34     0.018 A 
HETATM   12  CAK   D T2019     -13.982   0.902  -5.006  1.00 69.05     0.001 A 
HETATM   13  CAI   D T2019     -14.061  -0.237  -5.813  1.00 70.54    -0.002 A 
HETATM   14  CAX   D T2019     -13.334  -0.287  -7.006  1.00 71.07     0.011 A 
HETATM   15  CAJ   D T2019     -12.552   0.789  -7.410  1.00 68.91    -0.002 A 
HETATM   16  CAL   D T2019     -12.477   1.919  -6.605  1.00 67.71     0.001 A 
BRANCH  14  17
HETATM   17  CAS   D T2019     -13.453  -1.506  -7.918  1.00 74.21     0.277 C 
BRANCH  17  18
HETATM   18  NBG   D T2019     -13.449  -0.935  -9.308  1.00 81.39     0.146 N 
HETATM   19  CAQ   D T2019     -14.819  -0.849  -9.878  1.00 83.32     0.286 C 
HETATM   20  CAO   D T2019     -15.256  -2.233 -10.418  1.00 86.22     0.285 C 
HETATM   21  NBF   D T2019     -14.325  -2.763 -11.469  1.00 86.50     0.141 N 
HETATM   22  CAP   D T2019     -12.875  -2.757 -11.092  1.00 84.69     0.285 C 
HETATM   23  CAR   D T2019     -12.418  -1.554 -10.216  1.00 81.90     0.286 C 
BRANCH  21  24
HETATM   24  CAN   D T2019     -14.592  -2.144 -12.799  1.00 86.80     0.251 C 
HETATM   25  CAA   D T2019     -14.835  -3.231 -13.875  1.00 86.31     0.037 C 
ENDBRANCH  21  24
ENDBRANCH  17  18
ENDBRANCH  14  17
ENDBRANCH   1  11
BRANCH  10  26
HETATM   26  CBE   D T2019     -15.613   5.884  -0.355  1.00 69.45     0.127 C 
HETATM   27  CAB   D T2019     -15.273   4.965   0.828  1.00 70.81     0.031 C 
BRANCH  26  28
HETATM   28  CAZ   D T2019     -17.101   6.256  -0.380  1.00 71.15    -0.000 A 
HETATM   29  CAG   D T2019     -17.502   7.537   0.073  1.00 70.34    -0.002 A 
HETATM   30  CAD   D T2019     -18.851   7.911   0.084  1.00 69.22    -0.000 A 
HETATM   31  CAC   D T2019     -19.788   6.975  -0.373  1.00 70.75    -0.000 A 
HETATM   32  CAE   D T2019     -19.394   5.701  -0.829  1.00 71.52    -0.000 A 
HETATM   33  CAH   D T2019     -18.050   5.320  -0.827  1.00 71.18    -0.002 A 
ENDBRANCH  26  28
ENDBRANCH  10  26
TORSDOF 6
ENDMDL
MODEL 7
REMARK VINA RESULT:    -7.779      4.830      7.464
REMARK INTER + INTRA:         -11.512
REMARK INTER:                 -10.335
REMARK INTRA:                  -1.178
REMARK UNBOUND:                -1.005
REMARK  6 active torsions:
REMARK  status: ('A' for Active; 'I' for Inactive)
REMARK    1  A    between atoms: NBF_3  and  CAN_4 
REMARK    2  A    between atoms: NBG_8  and  CAS_9 
REMARK    3  A    between atoms: CAS_9  and  CAX_10 
REMARK    4  A    between atoms: CAY_15  and  CBA_16 
REMARK    5  A    between atoms: NAV_25  and  CBE_26 
REMARK    6  A    between atoms: CBE_26  and  CAZ_28 
ROOT
HETATM    1  CBA   D T2019     -13.013  -1.819  -9.728  1.00 67.38     0.083 A 
HETATM    2  NAW   D T2019     -13.850  -2.560  -8.987  1.00 64.38    -0.227 NA
HETATM    3  CAM   D T2019     -12.687  -0.717  -9.049  1.00 64.23     0.025 A 
HETATM    4  C5    D T2019     -13.290  -0.768  -7.866  1.00 64.03     0.073 A 
HETATM    5  C4    D T2019     -14.028  -1.941  -7.823  1.00 64.35     0.167 A 
HETATM    6  N3    D T2019     -14.753  -2.230  -6.721  1.00 65.15    -0.205 NA
HETATM    7  C2    D T2019     -14.778  -1.402  -5.671  1.00 64.91     0.202 A 
HETATM    8  N1    D T2019     -14.080  -0.273  -5.681  1.00 65.23    -0.205 NA
HETATM    9  C6    D T2019     -13.323   0.077  -6.756  1.00 65.21     0.163 A 
HETATM   10  NAV   D T2019     -12.624   1.222  -6.764  1.00 66.46    -0.250 NA
ENDROOT
BRANCH   1  11
HETATM   11  CAY   D T2019     -12.599  -2.129 -11.024  1.00 67.34     0.018 A 
HETATM   12  CAK   D T2019     -13.512  -2.610 -11.973  1.00 69.05     0.001 A 
HETATM   13  CAI   D T2019     -13.078  -2.888 -13.273  1.00 70.54    -0.002 A 
HETATM   14  CAX   D T2019     -11.737  -2.684 -13.610  1.00 71.07     0.011 A 
HETATM   15  CAJ   D T2019     -10.835  -2.187 -12.676  1.00 68.91    -0.002 A 
HETATM   16  CAL   D T2019     -11.270  -1.910 -11.386  1.00 67.71     0.001 A 
BRANCH  14  17
HETATM   17  CAS   D T2019     -11.264  -2.939 -15.039  1.00 74.21     0.277 C 
BRANCH  17  18
HETATM   18  NBG   D T2019     -11.502  -4.407 -15.255  1.00 81.39     0.146 N 
HETATM   19  CAQ   D T2019     -10.441  -5.239 -14.631  1.00 83.32     0.286 C 
HETATM   20  CAO   D T2019      -9.192  -5.279 -15.545  1.00 86.22     0.285 C 
HETATM   21  NBF   D T2019      -9.494  -5.821 -16.912  1.00 86.50     0.141 N 
HETATM   22  CAP   D T2019     -10.658  -5.180 -17.604  1.00 84.69     0.285 C 
HETATM   23  CAR   D T2019     -11.838  -4.765 -16.680  1.00 81.90     0.286 C 
BRANCH  21  24
HETATM   24  CAN   D T2019      -9.556  -7.311 -16.909  1.00 86.80     0.251 C 
HETATM   25  CAA   D T2019      -8.326  -7.914 -16.187  1.00 86.31     0.037 C 
ENDBRANCH  21  24
ENDBRANCH  17  18
ENDBRANCH  14  17
ENDBRANCH   1  11
BRANCH  10  26
HETATM   26  CBE   D T2019     -12.992   2.301  -5.841  1.00 69.45     0.127 C 
HETATM   27  CAB   D T2019     -14.067   3.229  -6.426  1.00 70.81     0.031 C 
BRANCH  26  28
HETATM   28  CAZ   D T2019     -11.712   3.066  -5.478  1.00 71.15    -0.000 A 
HETATM   29  CAG   D T2019     -11.792   4.169  -4.594  1.00 70.34    -0.002 A 
HETATM   30  CAD   D T2019     -10.651   4.906  -4.251  1.00 69.22    -0.000 A 
HETATM   31  CAC   D T2019      -9.430   4.510  -4.811  1.00 70.75    -0.000 A 
HETATM   32  CAE   D T2019      -9.345   3.410  -5.688  1.00 71.52    -0.000 A 
HETATM   33  CAH   D T2019     -10.483   2.682  -6.044  1.00 71.18    -0.002 A 
ENDBRANCH  26  28
ENDBRANCH  10  26
TORSDOF 6
ENDMDL
MODEL 8
REMARK VINA RESULT:    -7.542      1.995     11.307
REMARK INTER + INTRA:         -11.193
REMARK INTER:                 -10.142
REMARK INTRA:                  -1.051
REMARK UNBOUND:                -1.005
REMARK  6 active torsions:
REMARK  status: ('A' for Active; 'I' for Inactive)
REMARK    1  A    between atoms: NBF_3  and  CAN_4 
REMARK    2  A    between atoms: NBG_8  and  CAS_9 
REMARK    3  A    between atoms: CAS_9  and  CAX_10 
REMARK    4  A    between atoms: CAY_15  and  CBA_16 
REMARK    5  A    between atoms: NAV_25  and  CBE_26 
REMARK    6  A    between atoms: CBE_26  and  CAZ_28 
ROOT
HETATM    1  CBA   D T2019     -12.498   0.676  -7.854  1.00 67.38     0.083 A 
HETATM    2  NAW   D T2019     -11.679   0.320  -8.855  1.00 64.38    -0.227 NA
HETATM    3  CAM   D T2019     -13.571  -0.118  -7.865  1.00 64.23     0.025 A 
HETATM    4  C5    D T2019     -13.424  -0.997  -8.851  1.00 64.03     0.073 A 
HETATM    5  C4    D T2019     -12.220  -0.721  -9.480  1.00 64.35     0.167 A 
HETATM    6  N3    D T2019     -11.835  -1.471 -10.535  1.00 65.15    -0.205 NA
HETATM    7  C2    D T2019     -12.598  -2.471 -10.991  1.00 64.91     0.202 A 
HETATM    8  N1    D T2019     -13.755  -2.760 -10.408  1.00 65.23    -0.205 NA
HETATM    9  C6    D T2019     -14.201  -2.050  -9.336  1.00 65.21     0.163 A 
HETATM   10  NAV   D T2019     -15.373  -2.342  -8.753  1.00 66.46    -0.250 NA
ENDROOT
BRANCH   1  11
HETATM   11  CAY   D T2019     -12.284   1.742  -6.981  1.00 67.34     0.018 A 
HETATM   12  CAK   D T2019     -13.362   2.381  -6.350  1.00 69.05     0.001 A 
HETATM   13  CAI   D T2019     -13.120   3.430  -5.458  1.00 70.54    -0.002 A 
HETATM   14  CAX   D T2019     -11.805   3.830  -5.206  1.00 71.07     0.011 A 
HETATM   15  CAJ   D T2019     -10.734   3.184  -5.813  1.00 68.91    -0.002 A 
HETATM   16  CAL   D T2019     -10.978   2.141  -6.698  1.00 67.71     0.001 A 
BRANCH  14  17
HETATM   17  CAS   D T2019     -11.529   4.942  -4.196  1.00 74.21     0.277 C 
BRANCH  17  18
HETATM   18  NBG   D T2019     -12.840   5.140  -3.489  1.00 81.39     0.146 N 
HETATM   19  CAQ   D T2019     -13.266   6.564  -3.497  1.00 83.32     0.286 C 
HETATM   20  CAO   D T2019     -12.520   7.346  -2.389  1.00 86.22     0.285 C 
HETATM   21  NBF   D T2019     -12.755   6.775  -1.021  1.00 86.50     0.141 N 
HETATM   22  CAP   D T2019     -12.521   5.300  -0.901  1.00 84.69     0.285 C 
HETATM   23  CAR   D T2019     -12.917   4.459  -2.148  1.00 81.90     0.286 C 
BRANCH  21  24
HETATM   24  CAN   D T2019     -14.068   7.212  -0.464  1.00 86.80     0.251 C 
HETATM   25  CAA   D T2019     -14.481   6.326   0.738  1.00 86.31     0.037 C 
ENDBRANCH  21  24
ENDBRANCH  17  18
ENDBRANCH  14  17
ENDBRANCH   1  11
BRANCH  10  26
HETATM   26  CBE   D T2019     -16.379  -3.110  -9.497  1.00 69.45     0.127 C 
HETATM   27  CAB   D T2019     -17.544  -2.232  -9.979  1.00 70.81     0.031 C 
BRANCH  26  28
HETATM   28  CAZ   D T2019     -16.859  -4.252  -8.594  1.00 71.15    -0.000 A 
HETATM   29  CAG   D T2019     -17.849  -3.991  -7.614  1.00 70.34    -0.002 A 
HETATM   30  CAD   D T2019     -18.303  -5.001  -6.757  1.00 69.22    -0.000 A 
HETATM   31  CAC   D T2019     -17.746  -6.278  -6.905  1.00 70.75    -0.000 A 
HETATM   32  CAE   D T2019     -16.765  -6.544  -7.881  1.00 71.52    -0.000 A 
HETATM   33  CAH   D T2019     -16.299  -5.535  -8.728  1.00 71.18    -0.002 A 
ENDBRANCH  26  28
ENDBRANCH  10  26
TORSDOF 6
ENDMDL
MODEL 9
REMARK VINA RESULT:    -7.451      2.955     11.604
REMARK INTER + INTRA:         -11.069
REMARK INTER:                 -10.115
REMARK INTRA:                  -0.954
REMARK UNBOUND:                -1.005
REMARK  6 active torsions:
REMARK  status: ('A' for Active; 'I' for Inactive)
REMARK    1  A    between atoms: NBF_3  and  CAN_4 
REMARK    2  A    between atoms: NBG_8  and  CAS_9 
REMARK    3  A    between atoms: CAS_9  and  CAX_10 
REMARK    4  A    between atoms: CAY_15  and  CBA_16 
REMARK    5  A    between atoms: NAV_25  and  CBE_26 
REMARK    6  A    between atoms: CBE_26  and  CAZ_28 
ROOT
HETATM    1  CBA   D T2019     -12.590  -0.374  -8.389  1.00 67.38     0.083 A 
HETATM    2  NAW   D T2019     -11.762  -0.311  -9.443  1.00 64.38    -0.227 NA
HETATM    3  CAM   D T2019     -13.338  -1.474  -8.487  1.00 64.23     0.025 A 
HETATM    4  C5    D T2019     -12.970  -2.128  -9.584  1.00 64.03     0.073 A 
HETATM    5  C4    D T2019     -11.965  -1.391 -10.191  1.00 64.35     0.167 A 
HETATM    6  N3    D T2019     -11.420  -1.836 -11.344  1.00 65.15    -0.205 NA
HETATM    7  C2    D T2019     -11.836  -2.972 -11.915  1.00 64.91     0.202 A 
HETATM    8  N1    D T2019     -12.794  -3.701 -11.355  1.00 65.23    -0.205 NA
HETATM    9  C6    D T2019     -13.383  -3.315 -10.190  1.00 65.21     0.163 A 
HETATM   10  NAV   D T2019     -14.354  -4.051  -9.631  1.00 66.46    -0.250 NA
ENDROOT
BRANCH   1  11
HETATM   11  CAY   D T2019     -12.686   0.590  -7.385  1.00 67.34     0.018 A 
HETATM   12  CAK   D T2019     -13.492   0.373  -6.258  1.00 69.05     0.001 A 
HETATM   13  CAI   D T2019     -13.553   1.342  -5.252  1.00 70.54    -0.002 A 
HETATM   14  CAX   D T2019     -12.808   2.518  -5.383  1.00 71.07     0.011 A 
HETATM   15  CAJ   D T2019     -11.992   2.726  -6.490  1.00 68.91    -0.002 A 
HETATM   16  CAL   D T2019     -11.934   1.759  -7.486  1.00 67.71     0.001 A 
BRANCH  14  17
HETATM   17  CAS   D T2019     -12.829   3.560  -4.267  1.00 74.21     0.277 C 
BRANCH  17  18
HETATM   18  NBG   D T2019     -14.155   3.355  -3.590  1.00 81.39     0.146 N 
HETATM   19  CAQ   D T2019     -15.045   4.536  -3.741  1.00 83.32     0.286 C 
HETATM   20  CAO   D T2019     -14.657   5.626  -2.712  1.00 86.22     0.285 C 
HETATM   21  NBF   D T2019     -14.734   5.137  -1.295  1.00 86.50     0.141 N 
HETATM   22  CAP   D T2019     -14.011   3.852  -1.028  1.00 84.69     0.285 C 
HETATM   23  CAR   D T2019     -14.044   2.815  -2.188  1.00 81.90     0.286 C 
BRANCH  21  24
HETATM   24  CAN   D T2019     -16.137   5.141  -0.790  1.00 86.80     0.251 C 
HETATM   25  CAA   D T2019     -16.223   4.481   0.609  1.00 86.31     0.037 C 
ENDBRANCH  21  24
ENDBRANCH  17  18
ENDBRANCH  14  17
ENDBRANCH   1  11
BRANCH  10  26
HETATM   26  CBE   D T2019     -15.094  -5.017 -10.452  1.00 69.45     0.127 C 
HETATM   27  CAB   D T2019     -16.217  -4.354 -11.264  1.00 70.81     0.031 C 
BRANCH  26  28
HETATM   28  CAZ   D T2019     -15.631  -6.111  -9.521  1.00 71.15    -0.000 A 
HETATM   29  CAG   D T2019     -16.939  -5.989  -8.992  1.00 70.34    -0.002 A 
HETATM   30  CAD   D T2019     -17.462  -6.955  -8.123  1.00 69.22    -0.000 A 
HETATM   31  CAC   D T2019     -16.646  -8.047  -7.801  1.00 70.75    -0.000 A 
HETATM   32  CAE   D T2019     -15.345  -8.176  -8.328  1.00 71.52    -0.000 A 
HETATM   33  CAH   D T2019     -14.816  -7.206  -9.183  1.00 71.18    -0.002 A 
ENDBRANCH  26  28
ENDBRANCH  10  26
TORSDOF 6
ENDMDL
