MODEL 1
REMARK VINA RESULT:    -9.638      0.000      0.000
REMARK INTER + INTRA:         -14.738
REMARK INTER:                 -13.582
REMARK INTRA:                  -1.156
REMARK UNBOUND:                -1.156
REMARK  7 active torsions:
REMARK  status: ('A' for Active; 'I' for Inactive)
REMARK    1  A    between atoms: NBF_3  and  CAN_4 
REMARK    2  A    between atoms: NBG_8  and  CAS_9 
REMARK    3  A    between atoms: CAS_9  and  CAX_10 
REMARK    4  A    between atoms: CAY_15  and  CBA_16 
REMARK    5  A    between atoms: C6_24  and  NAV_25 
REMARK    6  A    between atoms: NAV_25  and  CBE_26 
REMARK    7  A    between atoms: CBE_26  and  CAZ_28 
ROOT
HETATM    1  CBA   D T2020       5.006  13.510  -0.871  1.00 64.64     0.083 A 
HETATM    2  NAW   D T2020       5.852  13.098   0.102  1.00 63.25    -0.227 NA
HETATM    3  CAM   D T2020       3.750  13.279  -0.438  1.00 62.00     0.025 A 
HETATM    4  C5    D T2020       3.804  12.732   0.800  1.00 62.03     0.073 A 
HETATM    5  C4    D T2020       5.160  12.629   1.129  1.00 59.95     0.167 A 
HETATM    6  N3    D T2020       5.540  12.096   2.286  1.00 57.93    -0.205 NA
HETATM    7  C2    D T2020       4.633  11.667   3.174  1.00 61.01     0.202 A 
HETATM    8  N1    D T2020       3.322  11.743   2.937  1.00 63.52    -0.205 NA
HETATM    9  C6    D T2020       2.843  12.263   1.748  1.00 63.62     0.163 A 
ENDROOT
BRANCH   1  10
HETATM   10  CAY   D T2020       5.437  14.041  -2.114  1.00 68.44     0.018 A 
HETATM   11  CAK   D T2020       6.671  13.613  -2.671  1.00 70.41     0.001 A 
HETATM   12  CAI   D T2020       7.136  14.083  -3.909  1.00 71.58    -0.002 A 
HETATM   13  CAX   D T2020       6.359  14.994  -4.637  1.00 74.24     0.011 A 
HETATM   14  CAJ   D T2020       5.116  15.415  -4.112  1.00 71.57    -0.002 A 
HETATM   15  CAL   D T2020       4.650  14.938  -2.872  1.00 69.56     0.001 A 
BRANCH  13  16
HETATM   16  CAS   D T2020       6.864  15.507  -6.016  1.00 78.58     0.277 C 
BRANCH  16  17
HETATM   17  NBG   D T2020       7.989  16.458  -5.770  1.00 84.90     0.146 N 
HETATM   18  CAQ   D T2020       7.822  17.805  -6.412  1.00 87.68     0.286 C 
HETATM   19  CAO   D T2020       8.289  17.853  -7.901  1.00 89.39     0.285 C 
HETATM   20  NBF   D T2020       9.615  17.208  -8.105  1.00 89.89     0.141 N 
HETATM   21  CAP   D T2020       9.674  15.829  -7.553  1.00 88.17     0.285 C 
HETATM   22  CAR   D T2020       9.318  15.821  -6.048  1.00 86.12     0.286 C 
BRANCH  20  23
HETATM   23  CAN   D T2020      10.731  18.049  -7.581  1.00 90.94     0.251 C 
HETATM   24  CAA   D T2020      12.083  17.349  -7.839  1.00 90.26     0.037 C 
ENDBRANCH  20  23
ENDBRANCH  16  17
ENDBRANCH  13  16
ENDBRANCH   1  10
BRANCH   9  25
HETATM   25  NAV   D T2020       1.495  12.335   1.503  1.00 62.88    -0.250 NA
BRANCH  25  26
HETATM   26  CBE   D T2020       0.718  13.594   1.639  1.00 65.43     0.127 C 
HETATM   27  CAB   D T2020       0.328  13.905   3.093  1.00 64.69     0.031 C 
BRANCH  26  28
HETATM   28  CAZ   D T2020      -0.550  13.562   0.756  1.00 67.00    -0.000 A 
HETATM   29  CAG   D T2020      -1.807  13.916   1.290  1.00 67.63    -0.002 A 
HETATM   30  CAD   D T2020      -2.979  13.876   0.511  1.00 69.11    -0.000 A 
HETATM   31  CAC   D T2020      -2.876  13.479  -0.837  1.00 70.24    -0.000 A 
HETATM   32  CAE   D T2020      -1.620  13.131  -1.378  1.00 69.05    -0.000 A 
HETATM   33  CAH   D T2020      -0.455  13.166  -0.590  1.00 67.19    -0.002 A 
ENDBRANCH  26  28
ENDBRANCH  25  26
ENDBRANCH   9  25
TORSDOF 7
ENDMDL
MODEL 2
REMARK VINA RESULT:    -9.567      4.555      8.882
REMARK INTER + INTRA:         -14.638
REMARK INTER:                 -13.463
REMARK INTRA:                  -1.175
REMARK UNBOUND:                -1.156
REMARK  7 active torsions:
REMARK  status: ('A' for Active; 'I' for Inactive)
REMARK    1  A    between atoms: NBF_3  and  CAN_4 
REMARK    2  A    between atoms: NBG_8  and  CAS_9 
REMARK    3  A    between atoms: CAS_9  and  CAX_10 
REMARK    4  A    between atoms: CAY_15  and  CBA_16 
REMARK    5  A    between atoms: C6_24  and  NAV_25 
REMARK    6  A    between atoms: NAV_25  and  CBE_26 
REMARK    7  A    between atoms: CBE_26  and  CAZ_28 
ROOT
HETATM    1  CBA   D T2020       6.186  12.486   1.068  1.00 64.64     0.083 A 
HETATM    2  NAW   D T2020       6.614  13.515   0.299  1.00 63.25    -0.227 NA
HETATM    3  CAM   D T2020       4.850  12.394   0.911  1.00 62.00     0.025 A 
HETATM    4  C5    D T2020       4.441  13.352   0.046  1.00 62.03     0.073 A 
HETATM    5  C4    D T2020       5.587  14.056  -0.338  1.00 59.95     0.167 A 
HETATM    6  N3    D T2020       5.503  15.089  -1.170  1.00 57.93    -0.205 NA
HETATM    7  C2    D T2020       4.322  15.465  -1.680  1.00 61.01     0.202 A 
HETATM    8  N1    D T2020       3.188  14.835  -1.371  1.00 63.52    -0.205 NA
HETATM    9  C6    D T2020       3.184  13.765  -0.494  1.00 63.62     0.163 A 
ENDROOT
BRANCH   1  10
HETATM   10  CAY   D T2020       7.042  11.715   1.897  1.00 68.44     0.018 A 
HETATM   11  CAK   D T2020       6.610  11.339   3.196  1.00 70.41     0.001 A 
HETATM   12  CAI   D T2020       7.401  10.555   4.049  1.00 71.58    -0.002 A 
HETATM   13  CAX   D T2020       8.656  10.110   3.611  1.00 74.24     0.011 A 
HETATM   14  CAJ   D T2020       9.096  10.453   2.313  1.00 71.57    -0.002 A 
HETATM   15  CAL   D T2020       8.297  11.235   1.457  1.00 69.56     0.001 A 
BRANCH  13  16
HETATM   16  CAS   D T2020       9.531   9.230   4.549  1.00 78.58     0.277 C 
BRANCH  16  17
HETATM   17  NBG   D T2020       9.981  10.079   5.691  1.00 84.90     0.146 N 
HETATM   18  CAQ   D T2020      10.831  11.254   5.301  1.00 87.68     0.286 C 
HETATM   19  CAO   D T2020      12.346  10.907   5.141  1.00 89.39     0.285 C 
HETATM   20  NBF   D T2020      12.866  10.088   6.271  1.00 89.89     0.141 N 
HETATM   21  CAP   D T2020      12.046   8.874   6.526  1.00 88.17     0.285 C 
HETATM   22  CAR   D T2020      10.571   9.251   6.794  1.00 86.12     0.286 C 
BRANCH  20  23
HETATM   23  CAN   D T2020      13.038  10.896   7.513  1.00 90.94     0.251 C 
HETATM   24  CAA   D T2020      13.844  10.093   8.557  1.00 90.26     0.037 C 
ENDBRANCH  20  23
ENDBRANCH  16  17
ENDBRANCH  13  16
ENDBRANCH   1  10
BRANCH   9  25
HETATM   25  NAV   D T2020       2.015  13.122  -0.172  1.00 62.88    -0.250 NA
BRANCH  25  26
HETATM   26  CBE   D T2020       1.133  13.563   0.939  1.00 65.43     0.127 C 
HETATM   27  CAB   D T2020       1.298  12.715   2.210  1.00 64.69     0.031 C 
BRANCH  26  28
HETATM   28  CAZ   D T2020      -0.350  13.566   0.503  1.00 67.00    -0.000 A 
HETATM   29  CAG   D T2020      -0.713  13.211  -0.814  1.00 67.63    -0.002 A 
HETATM   30  CAD   D T2020      -2.053  13.225  -1.240  1.00 69.11    -0.000 A 
HETATM   31  CAC   D T2020      -3.049  13.596  -0.315  1.00 70.24    -0.000 A 
HETATM   32  CAE   D T2020      -2.693  13.945   1.006  1.00 69.05    -0.000 A 
HETATM   33  CAH   D T2020      -1.349  13.936   1.421  1.00 67.19    -0.002 A 
ENDBRANCH  26  28
ENDBRANCH  25  26
ENDBRANCH   9  25
TORSDOF 7
ENDMDL
MODEL 3
REMARK VINA RESULT:    -9.318      1.702      4.686
REMARK INTER + INTRA:         -14.287
REMARK INTER:                 -12.910
REMARK INTRA:                  -1.377
REMARK UNBOUND:                -1.156
REMARK  7 active torsions:
REMARK  status: ('A' for Active; 'I' for Inactive)
REMARK    1  A    between atoms: NBF_3  and  CAN_4 
REMARK    2  A    between atoms: NBG_8  and  CAS_9 
REMARK    3  A    between atoms: CAS_9  and  CAX_10 
REMARK    4  A    between atoms: CAY_15  and  CBA_16 
REMARK    5  A    between atoms: C6_24  and  NAV_25 
REMARK    6  A    between atoms: NAV_25  and  CBE_26 
REMARK    7  A    between atoms: CBE_26  and  CAZ_28 
ROOT
HETATM    1  CBA   D T2020       2.754  14.688  -1.265  1.00 64.64     0.083 A 
HETATM    2  NAW   D T2020       1.432  14.798  -1.535  1.00 63.25    -0.227 NA
HETATM    3  CAM   D T2020       2.874  13.995  -0.115  1.00 62.00     0.025 A 
HETATM    4  C5    D T2020       1.638  13.666   0.332  1.00 62.03     0.073 A 
HETATM    5  C4    D T2020       0.730  14.186  -0.595  1.00 59.95     0.167 A 
HETATM    6  N3    D T2020      -0.580  14.049  -0.413  1.00 57.93    -0.205 NA
HETATM    7  C2    D T2020      -1.060  13.389   0.649  1.00 61.01     0.202 A 
HETATM    8  N1    D T2020      -0.256  12.855   1.570  1.00 63.52    -0.205 NA
HETATM    9  C6    D T2020       1.119  12.973   1.468  1.00 63.62     0.163 A 
ENDROOT
BRANCH   1  10
HETATM   10  CAY   D T2020       3.772  15.260  -2.071  1.00 68.44     0.018 A 
HETATM   11  CAK   D T2020       3.624  16.589  -2.551  1.00 70.41     0.001 A 
HETATM   12  CAI   D T2020       4.609  17.216  -3.329  1.00 71.58    -0.002 A 
HETATM   13  CAX   D T2020       5.789  16.524  -3.639  1.00 74.24     0.011 A 
HETATM   14  CAJ   D T2020       5.966  15.210  -3.153  1.00 71.57    -0.002 A 
HETATM   15  CAL   D T2020       4.978  14.584  -2.367  1.00 69.56     0.001 A 
BRANCH  13  16
HETATM   16  CAS   D T2020       6.888  17.221  -4.491  1.00 78.58     0.277 C 
BRANCH  16  17
HETATM   17  NBG   D T2020       7.605  16.168  -5.269  1.00 84.90     0.146 N 
HETATM   18  CAQ   D T2020       9.101  16.206  -5.141  1.00 87.68     0.286 C 
HETATM   19  CAO   D T2020       9.790  17.206  -6.123  1.00 89.39     0.285 C 
HETATM   20  NBF   D T2020       9.269  17.091  -7.514  1.00 89.89     0.141 N 
HETATM   21  CAP   D T2020       7.787  17.184  -7.581  1.00 88.17     0.285 C 
HETATM   22  CAR   D T2020       7.125  16.109  -6.688  1.00 86.12     0.286 C 
BRANCH  20  23
HETATM   23  CAN   D T2020       9.766  15.861  -8.196  1.00 90.94     0.251 C 
HETATM   24  CAA   D T2020      11.308  15.806  -8.123  1.00 90.26     0.037 C 
ENDBRANCH  20  23
ENDBRANCH  16  17
ENDBRANCH  13  16
ENDBRANCH   1  10
BRANCH   9  25
HETATM   25  NAV   D T2020       1.944  12.428   2.420  1.00 62.88    -0.250 NA
BRANCH  25  26
HETATM   26  CBE   D T2020       2.700  11.167   2.204  1.00 65.43     0.127 C 
HETATM   27  CAB   D T2020       2.031   9.947   2.859  1.00 64.69     0.031 C 
BRANCH  26  28
HETATM   28  CAZ   D T2020       4.154  11.297   2.709  1.00 67.00    -0.000 A 
HETATM   29  CAG   D T2020       5.019  12.272   2.166  1.00 67.63    -0.002 A 
HETATM   30  CAD   D T2020       6.353  12.397   2.595  1.00 69.11    -0.000 A 
HETATM   31  CAC   D T2020       6.821  11.526   3.598  1.00 70.24    -0.000 A 
HETATM   32  CAE   D T2020       5.959  10.553   4.149  1.00 69.05    -0.000 A 
HETATM   33  CAH   D T2020       4.629  10.429   3.709  1.00 67.19    -0.002 A 
ENDBRANCH  26  28
ENDBRANCH  25  26
ENDBRANCH   9  25
TORSDOF 7
ENDMDL
MODEL 4
REMARK VINA RESULT:    -9.108      4.009      8.678
REMARK INTER + INTRA:         -13.991
REMARK INTER:                 -12.578
REMARK INTRA:                  -1.413
REMARK UNBOUND:                -1.156
REMARK  7 active torsions:
REMARK  status: ('A' for Active; 'I' for Inactive)
REMARK    1  A    between atoms: NBF_3  and  CAN_4 
REMARK    2  A    between atoms: NBG_8  and  CAS_9 
REMARK    3  A    between atoms: CAS_9  and  CAX_10 
REMARK    4  A    between atoms: CAY_15  and  CBA_16 
REMARK    5  A    between atoms: C6_24  and  NAV_25 
REMARK    6  A    between atoms: NAV_25  and  CBE_26 
REMARK    7  A    between atoms: CBE_26  and  CAZ_28 
ROOT
HETATM    1  CBA   D T2020       3.656  12.417   1.973  1.00 64.64     0.083 A 
HETATM    2  NAW   D T2020       2.432  12.270   2.531  1.00 63.25    -0.227 NA
HETATM    3  CAM   D T2020       3.490  13.054   0.797  1.00 62.00     0.025 A 
HETATM    4  C5    D T2020       2.173  13.312   0.618  1.00 62.03     0.073 A 
HETATM    5  C4    D T2020       1.513  12.806   1.742  1.00 59.95     0.167 A 
HETATM    6  N3    D T2020       0.190  12.883   1.846  1.00 57.93    -0.205 NA
HETATM    7  C2    D T2020      -0.540  13.470   0.887  1.00 61.01     0.202 A 
HETATM    8  N1    D T2020       0.019  13.986  -0.208  1.00 63.52    -0.205 NA
HETATM    9  C6    D T2020       1.387  13.927  -0.405  1.00 63.62     0.163 A 
ENDROOT
BRANCH   1  10
HETATM   10  CAY   D T2020       4.852  11.926   2.560  1.00 68.44     0.018 A 
HETATM   11  CAK   D T2020       6.104  12.462   2.158  1.00 70.41     0.001 A 
HETATM   12  CAI   D T2020       7.316  12.035   2.722  1.00 71.58    -0.002 A 
HETATM   13  CAX   D T2020       7.303  11.057   3.727  1.00 74.24     0.011 A 
HETATM   14  CAJ   D T2020       6.066  10.528   4.158  1.00 71.57    -0.002 A 
HETATM   15  CAL   D T2020       4.851  10.962   3.595  1.00 69.56     0.001 A 
BRANCH  13  16
HETATM   16  CAS   D T2020       8.643  10.591   4.363  1.00 78.58     0.277 C 
BRANCH  16  17
HETATM   17  NBG   D T2020       9.750  11.360   3.722  1.00 84.90     0.146 N 
HETATM   18  CAQ   D T2020      10.737  10.521   2.962  1.00 87.68     0.286 C 
HETATM   19  CAO   D T2020      11.863   9.911   3.855  1.00 89.39     0.285 C 
HETATM   20  NBF   D T2020      12.457  10.910   4.787  1.00 89.89     0.141 N 
HETATM   21  CAP   D T2020      11.432  11.619   5.597  1.00 88.17     0.285 C 
HETATM   22  CAR   D T2020      10.391  12.311   4.688  1.00 86.12     0.286 C 
BRANCH  20  23
HETATM   23  CAN   D T2020      13.348  11.873   4.076  1.00 90.94     0.251 C 
HETATM   24  CAA   D T2020      14.122  12.728   5.103  1.00 90.26     0.037 C 
ENDBRANCH  20  23
ENDBRANCH  16  17
ENDBRANCH  13  16
ENDBRANCH   1  10
BRANCH   9  25
HETATM   25  NAV   D T2020       1.959  14.453  -1.535  1.00 62.88    -0.250 NA
BRANCH  25  26
HETATM   26  CBE   D T2020       2.907  15.597  -1.501  1.00 65.43     0.127 C 
HETATM   27  CAB   D T2020       2.384  16.833  -2.251  1.00 64.69     0.031 C 
BRANCH  26  28
HETATM   28  CAZ   D T2020       4.287  15.192  -2.064  1.00 67.00    -0.000 A 
HETATM   29  CAG   D T2020       4.469  13.941  -2.691  1.00 67.63    -0.002 A 
HETATM   30  CAD   D T2020       5.721  13.542  -3.193  1.00 69.11    -0.000 A 
HETATM   31  CAC   D T2020       6.810  14.427  -3.068  1.00 70.24    -0.000 A 
HETATM   32  CAE   D T2020       6.632  15.683  -2.447  1.00 69.05    -0.000 A 
HETATM   33  CAH   D T2020       5.379  16.071  -1.941  1.00 67.19    -0.002 A 
ENDBRANCH  26  28
ENDBRANCH  25  26
ENDBRANCH   9  25
TORSDOF 7
ENDMDL
MODEL 5
REMARK VINA RESULT:    -9.029      4.511      9.153
REMARK INTER + INTRA:         -13.880
REMARK INTER:                 -12.565
REMARK INTRA:                  -1.315
REMARK UNBOUND:                -1.156
REMARK  7 active torsions:
REMARK  status: ('A' for Active; 'I' for Inactive)
REMARK    1  A    between atoms: NBF_3  and  CAN_4 
REMARK    2  A    between atoms: NBG_8  and  CAS_9 
REMARK    3  A    between atoms: CAS_9  and  CAX_10 
REMARK    4  A    between atoms: CAY_15  and  CBA_16 
REMARK    5  A    between atoms: C6_24  and  NAV_25 
REMARK    6  A    between atoms: NAV_25  and  CBE_26 
REMARK    7  A    between atoms: CBE_26  and  CAZ_28 
ROOT
HETATM    1  CBA   D T2020       4.813  12.361   2.002  1.00 64.64     0.083 A 
HETATM    2  NAW   D T2020       3.641  12.076   2.618  1.00 63.25    -0.227 NA
HETATM    3  CAM   D T2020       4.517  12.901   0.802  1.00 62.00     0.025 A 
HETATM    4  C5    D T2020       3.171  12.962   0.666  1.00 62.03     0.073 A 
HETATM    5  C4    D T2020       2.630  12.433   1.842  1.00 59.95     0.167 A 
HETATM    6  N3    D T2020       1.313  12.332   1.998  1.00 57.93    -0.205 NA
HETATM    7  C2    D T2020       0.474  12.755   1.042  1.00 61.01     0.202 A 
HETATM    8  N1    D T2020       0.916  13.281  -0.101  1.00 63.52    -0.205 NA
HETATM    9  C6    D T2020       2.271  13.402  -0.352  1.00 63.62     0.163 A 
ENDROOT
BRANCH   1  10
HETATM   10  CAY   D T2020       6.085  12.075   2.562  1.00 68.44     0.018 A 
HETATM   11  CAK   D T2020       7.219  12.824   2.148  1.00 70.41     0.001 A 
HETATM   12  CAI   D T2020       8.496  12.605   2.686  1.00 71.58    -0.002 A 
HETATM   13  CAX   D T2020       8.670  11.627   3.676  1.00 74.24     0.011 A 
HETATM   14  CAJ   D T2020       7.551  10.887   4.118  1.00 71.57    -0.002 A 
HETATM   15  CAL   D T2020       6.269  11.112   3.581  1.00 69.56     0.001 A 
BRANCH  13  16
HETATM   16  CAS   D T2020      10.082  11.390   4.284  1.00 78.58     0.277 C 
BRANCH  16  17
HETATM   17  NBG   D T2020      10.589  10.081   3.777  1.00 84.90     0.146 N 
HETATM   18  CAQ   D T2020      10.681   9.000   4.815  1.00 87.68     0.286 C 
HETATM   19  CAO   D T2020      12.004   9.036   5.643  1.00 89.39     0.285 C 
HETATM   20  NBF   D T2020      13.210   9.202   4.785  1.00 89.89     0.141 N 
HETATM   21  CAP   D T2020      13.104  10.364   3.865  1.00 88.17     0.285 C 
HETATM   22  CAR   D T2020      11.844  10.250   2.975  1.00 86.12     0.286 C 
BRANCH  20  23
HETATM   23  CAN   D T2020      13.543   7.951   4.042  1.00 90.94     0.251 C 
HETATM   24  CAA   D T2020      13.871   6.819   5.040  1.00 90.26     0.037 C 
ENDBRANCH  20  23
ENDBRANCH  16  17
ENDBRANCH  13  16
ENDBRANCH   1  10
BRANCH   9  25
HETATM   25  NAV   D T2020       2.724  13.938  -1.532  1.00 62.88    -0.250 NA
BRANCH  25  26
HETATM   26  CBE   D T2020       3.465  15.224  -1.600  1.00 65.43     0.127 C 
HETATM   27  CAB   D T2020       2.567  16.415  -1.971  1.00 64.69     0.031 C 
BRANCH  26  28
HETATM   28  CAZ   D T2020       4.645  15.133  -2.593  1.00 67.00    -0.000 A 
HETATM   29  CAG   D T2020       4.780  16.072  -3.638  1.00 67.63    -0.002 A 
HETATM   30  CAD   D T2020       5.835  15.998  -4.566  1.00 69.11    -0.000 A 
HETATM   31  CAC   D T2020       6.778  14.960  -4.431  1.00 70.24    -0.000 A 
HETATM   32  CAE   D T2020       6.652  14.021  -3.383  1.00 69.05    -0.000 A 
HETATM   33  CAH   D T2020       5.589  14.098  -2.465  1.00 67.19    -0.002 A 
ENDBRANCH  26  28
ENDBRANCH  25  26
ENDBRANCH   9  25
TORSDOF 7
ENDMDL
MODEL 6
REMARK VINA RESULT:    -8.822      4.905      9.386
REMARK INTER + INTRA:         -13.588
REMARK INTER:                 -12.431
REMARK INTRA:                  -1.157
REMARK UNBOUND:                -1.156
REMARK  7 active torsions:
REMARK  status: ('A' for Active; 'I' for Inactive)
REMARK    1  A    between atoms: NBF_3  and  CAN_4 
REMARK    2  A    between atoms: NBG_8  and  CAS_9 
REMARK    3  A    between atoms: CAS_9  and  CAX_10 
REMARK    4  A    between atoms: CAY_15  and  CBA_16 
REMARK    5  A    between atoms: C6_24  and  NAV_25 
REMARK    6  A    between atoms: NAV_25  and  CBE_26 
REMARK    7  A    between atoms: CBE_26  and  CAZ_28 
ROOT
HETATM    1  CBA   D T2020       5.575  12.510   1.339  1.00 64.64     0.083 A 
HETATM    2  NAW   D T2020       4.247  12.448   1.595  1.00 63.25    -0.227 NA
HETATM    3  CAM   D T2020       5.743  13.325   0.278  1.00 62.00     0.025 A 
HETATM    4  C5    D T2020       4.533  13.777  -0.127  1.00 62.03     0.073 A 
HETATM    5  C4    D T2020       3.589  13.207   0.733  1.00 59.95     0.167 A 
HETATM    6  N3    D T2020       2.291  13.443   0.569  1.00 57.93    -0.205 NA
HETATM    7  C2    D T2020       1.858  14.251  -0.409  1.00 61.01     0.202 A 
HETATM    8  N1    D T2020       2.699  14.840  -1.261  1.00 63.52    -0.205 NA
HETATM    9  C6    D T2020       4.063  14.629  -1.174  1.00 63.62     0.163 A 
ENDROOT
BRANCH   1  10
HETATM   10  CAY   D T2020       6.552  11.788   2.072  1.00 68.44     0.018 A 
HETATM   11  CAK   D T2020       6.263  11.362   3.396  1.00 70.41     0.001 A 
HETATM   12  CAI   D T2020       7.179  10.622   4.159  1.00 71.58    -0.002 A 
HETATM   13  CAX   D T2020       8.418  10.272   3.603  1.00 74.24     0.011 A 
HETATM   14  CAJ   D T2020       8.715  10.665   2.279  1.00 71.57    -0.002 A 
HETATM   15  CAL   D T2020       7.792  11.403   1.513  1.00 69.56     0.001 A 
BRANCH  13  16
HETATM   16  CAS   D T2020       9.430   9.440   4.442  1.00 78.58     0.277 C 
BRANCH  16  17
HETATM   17  NBG   D T2020      10.768  10.091   4.326  1.00 84.90     0.146 N 
HETATM   18  CAQ   D T2020      11.934   9.161   4.504  1.00 87.68     0.286 C 
HETATM   19  CAO   D T2020      12.328   8.928   5.997  1.00 89.39     0.285 C 
HETATM   20  NBF   D T2020      12.398  10.197   6.774  1.00 89.89     0.141 N 
HETATM   21  CAP   D T2020      11.162  11.013   6.651  1.00 88.17     0.285 C 
HETATM   22  CAR   D T2020      10.853  11.328   5.169  1.00 86.12     0.286 C 
BRANCH  20  23
HETATM   23  CAN   D T2020      13.611  10.995   6.432  1.00 90.94     0.251 C 
HETATM   24  CAA   D T2020      14.883  10.162   6.705  1.00 90.26     0.037 C 
ENDBRANCH  20  23
ENDBRANCH  16  17
ENDBRANCH  13  16
ENDBRANCH   1  10
BRANCH   9  25
HETATM   25  NAV   D T2020       4.926  15.231  -2.054  1.00 62.88    -0.250 NA
BRANCH  25  26
HETATM   26  CBE   D T2020       5.375  16.640  -1.907  1.00 65.43     0.127 C 
HETATM   27  CAB   D T2020       5.973  16.937  -0.522  1.00 64.69     0.031 C 
BRANCH  26  28
HETATM   28  CAZ   D T2020       4.221  17.625  -2.199  1.00 67.00    -0.000 A 
HETATM   29  CAG   D T2020       3.642  18.382  -1.158  1.00 67.63    -0.002 A 
HETATM   30  CAD   D T2020       2.577  19.270  -1.395  1.00 69.11    -0.000 A 
HETATM   31  CAC   D T2020       2.093  19.403  -2.712  1.00 70.24    -0.000 A 
HETATM   32  CAE   D T2020       2.673  18.653  -3.758  1.00 69.05    -0.000 A 
HETATM   33  CAH   D T2020       3.732  17.761  -3.510  1.00 67.19    -0.002 A 
ENDBRANCH  26  28
ENDBRANCH  25  26
ENDBRANCH   9  25
TORSDOF 7
ENDMDL
MODEL 7
REMARK VINA RESULT:    -8.758      4.516      8.916
REMARK INTER + INTRA:         -13.498
REMARK INTER:                 -12.181
REMARK INTRA:                  -1.317
REMARK UNBOUND:                -1.156
REMARK  7 active torsions:
REMARK  status: ('A' for Active; 'I' for Inactive)
REMARK    1  A    between atoms: NBF_3  and  CAN_4 
REMARK    2  A    between atoms: NBG_8  and  CAS_9 
REMARK    3  A    between atoms: CAS_9  and  CAX_10 
REMARK    4  A    between atoms: CAY_15  and  CBA_16 
REMARK    5  A    between atoms: C6_24  and  NAV_25 
REMARK    6  A    between atoms: NAV_25  and  CBE_26 
REMARK    7  A    between atoms: CBE_26  and  CAZ_28 
ROOT
HETATM    1  CBA   D T2020       6.431  12.854   0.060  1.00 64.64     0.083 A 
HETATM    2  NAW   D T2020       7.034  13.268  -1.079  1.00 63.25    -0.227 NA
HETATM    3  CAM   D T2020       5.167  13.322   0.041  1.00 62.00     0.025 A 
HETATM    4  C5    D T2020       4.973  14.020  -1.104  1.00 62.03     0.073 A 
HETATM    5  C4    D T2020       6.180  13.968  -1.809  1.00 59.95     0.167 A 
HETATM    6  N3    D T2020       6.313  14.593  -2.974  1.00 57.93    -0.205 NA
HETATM    7  C2    D T2020       5.287  15.267  -3.512  1.00 61.01     0.202 A 
HETATM    8  N1    D T2020       4.103  15.352  -2.905  1.00 63.52    -0.205 NA
HETATM    9  C6    D T2020       3.887  14.749  -1.679  1.00 63.62     0.163 A 
ENDROOT
BRANCH   1  10
HETATM   10  CAY   D T2020       7.088  12.100   1.068  1.00 68.44     0.018 A 
HETATM   11  CAK   D T2020       6.526  12.030   2.370  1.00 70.41     0.001 A 
HETATM   12  CAI   D T2020       7.116  11.279   3.399  1.00 71.58    -0.002 A 
HETATM   13  CAX   D T2020       8.290  10.558   3.141  1.00 74.24     0.011 A 
HETATM   14  CAJ   D T2020       8.852  10.595   1.846  1.00 71.57    -0.002 A 
HETATM   15  CAL   D T2020       8.256  11.345   0.814  1.00 69.56     0.001 A 
BRANCH  13  16
HETATM   16  CAS   D T2020       8.939   9.714   4.276  1.00 78.58     0.277 C 
BRANCH  16  17
HETATM   17  NBG   D T2020      10.070  10.503   4.848  1.00 84.90     0.146 N 
HETATM   18  CAQ   D T2020      11.377  10.336   4.129  1.00 87.68     0.286 C 
HETATM   19  CAO   D T2020      12.194   9.089   4.593  1.00 89.39     0.285 C 
HETATM   20  NBF   D T2020      12.260   8.968   6.076  1.00 89.89     0.141 N 
HETATM   21  CAP   D T2020      10.919   9.019   6.716  1.00 88.17     0.285 C 
HETATM   22  CAR   D T2020      10.173  10.319   6.332  1.00 86.12     0.286 C 
BRANCH  20  23
HETATM   23  CAN   D T2020      13.186   9.973   6.676  1.00 90.94     0.251 C 
HETATM   24  CAA   D T2020      14.649   9.595   6.358  1.00 90.26     0.037 C 
ENDBRANCH  20  23
ENDBRANCH  16  17
ENDBRANCH  13  16
ENDBRANCH   1  10
BRANCH   9  25
HETATM   25  NAV   D T2020       2.670  14.842  -1.053  1.00 62.88    -0.250 NA
BRANCH  25  26
HETATM   26  CBE   D T2020       1.667  13.745  -1.075  1.00 65.43     0.127 C 
HETATM   27  CAB   D T2020       0.237  14.244  -1.338  1.00 64.69     0.031 C 
BRANCH  26  28
HETATM   28  CAZ   D T2020       1.702  12.934   0.240  1.00 67.00    -0.000 A 
HETATM   29  CAG   D T2020       1.168  13.472   1.431  1.00 67.63    -0.002 A 
HETATM   30  CAD   D T2020       1.206  12.762   2.644  1.00 69.11    -0.000 A 
HETATM   31  CAC   D T2020       1.786  11.478   2.654  1.00 70.24    -0.000 A 
HETATM   32  CAE   D T2020       2.315  10.931   1.464  1.00 69.05    -0.000 A 
HETATM   33  CAH   D T2020       2.280  11.652   0.257  1.00 67.19    -0.002 A 
ENDBRANCH  26  28
ENDBRANCH  25  26
ENDBRANCH   9  25
TORSDOF 7
ENDMDL
MODEL 8
REMARK VINA RESULT:    -8.588      6.128      9.324
REMARK INTER + INTRA:         -13.258
REMARK INTER:                 -12.424
REMARK INTRA:                  -0.835
REMARK UNBOUND:                -1.156
REMARK  7 active torsions:
REMARK  status: ('A' for Active; 'I' for Inactive)
REMARK    1  A    between atoms: NBF_3  and  CAN_4 
REMARK    2  A    between atoms: NBG_8  and  CAS_9 
REMARK    3  A    between atoms: CAS_9  and  CAX_10 
REMARK    4  A    between atoms: CAY_15  and  CBA_16 
REMARK    5  A    between atoms: C6_24  and  NAV_25 
REMARK    6  A    between atoms: NAV_25  and  CBE_26 
REMARK    7  A    between atoms: CBE_26  and  CAZ_28 
ROOT
HETATM    1  CBA   D T2020       6.862  11.091   3.744  1.00 64.64     0.083 A 
HETATM    2  NAW   D T2020       6.101  10.058   4.174  1.00 63.25    -0.227 NA
HETATM    3  CAM   D T2020       6.065  11.908   3.026  1.00 62.00     0.025 A 
HETATM    4  C5    D T2020       4.811  11.398   3.011  1.00 62.03     0.073 A 
HETATM    5  C4    D T2020       4.855  10.215   3.756  1.00 59.95     0.167 A 
HETATM    6  N3    D T2020       3.769   9.462   3.900  1.00 57.93    -0.205 NA
HETATM    7  C2    D T2020       2.601   9.831   3.355  1.00 61.01     0.202 A 
HETATM    8  N1    D T2020       2.478  10.951   2.641  1.00 63.52    -0.205 NA
HETATM    9  C6    D T2020       3.565  11.779   2.424  1.00 63.62     0.163 A 
ENDROOT
BRANCH   1  10
HETATM   10  CAY   D T2020       8.252  11.205   4.005  1.00 68.44     0.018 A 
HETATM   11  CAK   D T2020       8.878  10.288   4.890  1.00 70.41     0.001 A 
HETATM   12  CAI   D T2020      10.254  10.335   5.165  1.00 71.58    -0.002 A 
HETATM   13  CAX   D T2020      11.050  11.306   4.541  1.00 74.24     0.011 A 
HETATM   14  CAJ   D T2020      10.451  12.214   3.640  1.00 71.57    -0.002 A 
HETATM   15  CAL   D T2020       9.072  12.161   3.361  1.00 69.56     0.001 A 
BRANCH  13  16
HETATM   16  CAS   D T2020      12.577  11.353   4.834  1.00 78.58     0.277 C 
BRANCH  16  17
HETATM   17  NBG   D T2020      13.027   9.967   5.155  1.00 84.90     0.146 N 
HETATM   18  CAQ   D T2020      13.794   9.839   6.441  1.00 87.68     0.286 C 
HETATM   19  CAO   D T2020      15.316  10.154   6.297  1.00 89.39     0.285 C 
HETATM   20  NBF   D T2020      15.930   9.482   5.118  1.00 89.89     0.141 N 
HETATM   21  CAP   D T2020      15.190   9.749   3.856  1.00 88.17     0.285 C 
HETATM   22  CAR   D T2020      13.709   9.325   3.984  1.00 86.12     0.286 C 
BRANCH  20  23
HETATM   23  CAN   D T2020      16.110   8.018   5.341  1.00 90.94     0.251 C 
HETATM   24  CAA   D T2020      17.399   7.764   6.151  1.00 90.26     0.037 C 
ENDBRANCH  20  23
ENDBRANCH  16  17
ENDBRANCH  13  16
ENDBRANCH   1  10
BRANCH   9  25
HETATM   25  NAV   D T2020       3.438  12.928   1.684  1.00 62.88    -0.250 NA
BRANCH  25  26
HETATM   26  CBE   D T2020       2.847  12.947   0.321  1.00 65.43     0.127 C 
HETATM   27  CAB   D T2020       3.487  14.002  -0.596  1.00 64.69     0.031 C 
BRANCH  26  28
HETATM   28  CAZ   D T2020       1.319  13.169   0.382  1.00 67.00    -0.000 A 
HETATM   29  CAG   D T2020       0.702  13.600   1.575  1.00 67.63    -0.002 A 
HETATM   30  CAD   D T2020      -0.690  13.789   1.661  1.00 69.11    -0.000 A 
HETATM   31  CAC   D T2020      -1.473  13.548   0.515  1.00 70.24    -0.000 A 
HETATM   32  CAE   D T2020      -0.860  13.123  -0.684  1.00 69.05    -0.000 A 
HETATM   33  CAH   D T2020       0.531  12.928  -0.758  1.00 67.19    -0.002 A 
ENDBRANCH  26  28
ENDBRANCH  25  26
ENDBRANCH   9  25
TORSDOF 7
ENDMDL
MODEL 9
REMARK VINA RESULT:    -8.404      1.967      4.664
REMARK INTER + INTRA:         -12.999
REMARK INTER:                 -11.748
REMARK INTRA:                  -1.252
REMARK UNBOUND:                -1.156
REMARK  7 active torsions:
REMARK  status: ('A' for Active; 'I' for Inactive)
REMARK    1  A    between atoms: NBF_3  and  CAN_4 
REMARK    2  A    between atoms: NBG_8  and  CAS_9 
REMARK    3  A    between atoms: CAS_9  and  CAX_10 
REMARK    4  A    between atoms: CAY_15  and  CBA_16 
REMARK    5  A    between atoms: C6_24  and  NAV_25 
REMARK    6  A    between atoms: NAV_25  and  CBE_26 
REMARK    7  A    between atoms: CBE_26  and  CAZ_28 
ROOT
HETATM    1  CBA   D T2020       3.803  14.207  -1.471  1.00 64.64     0.083 A 
HETATM    2  NAW   D T2020       2.554  14.479  -1.917  1.00 63.25    -0.227 NA
HETATM    3  CAM   D T2020       3.682  13.636  -0.256  1.00 62.00     0.025 A 
HETATM    4  C5    D T2020       2.368  13.543   0.058  1.00 62.03     0.073 A 
HETATM    5  C4    D T2020       1.663  14.084  -1.022  1.00 59.95     0.167 A 
HETATM    6  N3    D T2020       0.336  14.161  -0.997  1.00 57.93    -0.205 NA
HETATM    7  C2    D T2020      -0.358  13.700   0.053  1.00 61.01     0.202 A 
HETATM    8  N1    D T2020       0.243  13.160   1.114  1.00 63.52    -0.205 NA
HETATM    9  C6    D T2020       1.621  13.063   1.178  1.00 63.62     0.163 A 
ENDROOT
BRANCH   1  10
HETATM   10  CAY   D T2020       4.983  14.532  -2.191  1.00 68.44     0.018 A 
HETATM   11  CAK   D T2020       5.499  15.853  -2.133  1.00 70.41     0.001 A 
HETATM   12  CAI   D T2020       6.676  16.226  -2.801  1.00 71.58    -0.002 A 
HETATM   13  CAX   D T2020       7.382  15.268  -3.542  1.00 74.24     0.011 A 
HETATM   14  CAJ   D T2020       6.898  13.941  -3.593  1.00 71.57    -0.002 A 
HETATM   15  CAL   D T2020       5.720  13.569  -2.917  1.00 69.56     0.001 A 
BRANCH  13  16
HETATM   16  CAS   D T2020       8.693  15.674  -4.273  1.00 78.58     0.277 C 
BRANCH  16  17
HETATM   17  NBG   D T2020       8.720  17.162  -4.380  1.00 84.90     0.146 N 
HETATM   18  CAQ   D T2020       8.461  17.696  -5.759  1.00 87.68     0.286 C 
HETATM   19  CAO   D T2020       9.735  17.746  -6.662  1.00 89.39     0.285 C 
HETATM   20  NBF   D T2020      10.910  18.332  -5.959  1.00 89.89     0.141 N 
HETATM   21  CAP   D T2020      11.184  17.676  -4.654  1.00 88.17     0.285 C 
HETATM   22  CAR   D T2020       9.944  17.738  -3.733  1.00 86.12     0.286 C 
BRANCH  20  23
HETATM   23  CAN   D T2020      10.788  19.811  -5.807  1.00 90.94     0.251 C 
HETATM   24  CAA   D T2020      10.632  20.471  -7.194  1.00 90.26     0.037 C 
ENDBRANCH  20  23
ENDBRANCH  16  17
ENDBRANCH  13  16
ENDBRANCH   1  10
BRANCH   9  25
HETATM   25  NAV   D T2020       2.239  12.512   2.273  1.00 62.88    -0.250 NA
BRANCH  25  26
HETATM   26  CBE   D T2020       2.883  11.174   2.246  1.00 65.43     0.127 C 
HETATM   27  CAB   D T2020       2.078  10.105   3.003  1.00 64.69     0.031 C 
BRANCH  26  28
HETATM   28  CAZ   D T2020       4.321  11.238   2.807  1.00 67.00    -0.000 A 
HETATM   29  CAG   D T2020       5.227  12.219   2.351  1.00 67.63    -0.002 A 
HETATM   30  CAD   D T2020       6.548  12.285   2.832  1.00 69.11    -0.000 A 
HETATM   31  CAC   D T2020       6.959  11.347   3.800  1.00 70.24    -0.000 A 
HETATM   32  CAE   D T2020       6.054  10.368   4.264  1.00 69.05    -0.000 A 
HETATM   33  CAH   D T2020       4.738  10.304   3.772  1.00 67.19    -0.002 A 
ENDBRANCH  26  28
ENDBRANCH  25  26
ENDBRANCH   9  25
TORSDOF 7
ENDMDL
