MODEL 1
REMARK VINA RESULT:    -8.036      0.000      0.000
REMARK INTER + INTRA:         -12.760
REMARK INTER:                 -11.324
REMARK INTRA:                  -1.436
REMARK UNBOUND:                -1.436
REMARK  7 active torsions:
REMARK  status: ('A' for Active; 'I' for Inactive)
REMARK    1  A    between atoms: NBF_3  and  CAN_4 
REMARK    2  A    between atoms: NBG_8  and  CAS_9 
REMARK    3  A    between atoms: CAS_9  and  CAX_10 
REMARK    4  A    between atoms: CAY_15  and  CBA_16 
REMARK    5  A    between atoms: C6_24  and  NAV_25 
REMARK    6  A    between atoms: NAV_25  and  CBE_26 
REMARK    7  A    between atoms: CBE_26  and  CAZ_28 
ROOT
HETATM    1  CBA   D T2020       9.596  -3.602  -1.218  1.00 64.64     0.083 A 
HETATM    2  NAW   D T2020       9.636  -3.377   0.116  1.00 63.25    -0.227 NA
HETATM    3  CAM   D T2020       9.490  -4.933  -1.400  1.00 62.00     0.025 A 
HETATM    4  C5    D T2020       9.456  -5.542  -0.191  1.00 62.03     0.073 A 
HETATM    5  C4    D T2020       9.545  -4.526   0.767  1.00 59.95     0.167 A 
HETATM    6  N3    D T2020       9.566  -4.817   2.064  1.00 57.93    -0.205 NA
HETATM    7  C2    D T2020       9.478  -6.085   2.486  1.00 61.01     0.202 A 
HETATM    8  N1    D T2020       9.378  -7.107   1.632  1.00 63.52    -0.205 NA
HETATM    9  C6    D T2020       9.372  -6.893   0.266  1.00 63.62     0.163 A 
ENDROOT
BRANCH   1  10
HETATM   10  CAY   D T2020       9.697  -2.574  -2.192  1.00 68.44     0.018 A 
HETATM   11  CAK   D T2020      10.162  -2.888  -3.497  1.00 70.41     0.001 A 
HETATM   12  CAI   D T2020      10.258  -1.919  -4.509  1.00 71.58    -0.002 A 
HETATM   13  CAX   D T2020       9.872  -0.598  -4.238  1.00 74.24     0.011 A 
HETATM   14  CAJ   D T2020       9.385  -0.271  -2.953  1.00 71.57    -0.002 A 
HETATM   15  CAL   D T2020       9.284  -1.245  -1.942  1.00 69.56     0.001 A 
BRANCH  13  16
HETATM   16  CAS   D T2020       9.965   0.475  -5.360  1.00 78.58     0.277 C 
BRANCH  16  17
HETATM   17  NBG   D T2020       8.619   1.104  -5.510  1.00 84.90     0.146 N 
HETATM   18  CAQ   D T2020       7.593   0.234  -6.176  1.00 87.68     0.286 C 
HETATM   19  CAO   D T2020       7.640   0.289  -7.736  1.00 89.39     0.285 C 
HETATM   20  NBF   D T2020       7.732   1.682  -8.255  1.00 89.89     0.141 N 
HETATM   21  CAP   D T2020       8.847   2.450  -7.642  1.00 88.17     0.285 C 
HETATM   22  CAR   D T2020       8.716   2.478  -6.101  1.00 86.12     0.286 C 
BRANCH  20  23
HETATM   23  CAN   D T2020       6.436   2.411  -8.128  1.00 90.94     0.251 C 
HETATM   24  CAA   D T2020       5.350   1.705  -8.969  1.00 90.26     0.037 C 
ENDBRANCH  20  23
ENDBRANCH  16  17
ENDBRANCH  13  16
ENDBRANCH   1  10
BRANCH   9  25
HETATM   25  NAV   D T2020       9.275  -7.945  -0.610  1.00 62.88    -0.250 NA
BRANCH  25  26
HETATM   26  CBE   D T2020       7.985  -8.604  -0.939  1.00 65.43     0.127 C 
HETATM   27  CAB   D T2020       7.824  -9.978  -0.269  1.00 64.69     0.031 C 
BRANCH  26  28
HETATM   28  CAZ   D T2020       7.809  -8.746  -2.467  1.00 67.00    -0.000 A 
HETATM   29  CAG   D T2020       6.773  -9.544  -3.001  1.00 67.63    -0.002 A 
HETATM   30  CAD   D T2020       6.606  -9.705  -4.389  1.00 69.11    -0.000 A 
HETATM   31  CAC   D T2020       7.495  -9.040  -5.255  1.00 70.24    -0.000 A 
HETATM   32  CAE   D T2020       8.530  -8.237  -4.728  1.00 69.05    -0.000 A 
HETATM   33  CAH   D T2020       8.695  -8.088  -3.339  1.00 67.19    -0.002 A 
ENDBRANCH  26  28
ENDBRANCH  25  26
ENDBRANCH   9  25
TORSDOF 7
ENDMDL
MODEL 2
REMARK VINA RESULT:    -7.922      3.392     10.675
REMARK INTER + INTRA:         -12.599
REMARK INTER:                 -11.621
REMARK INTRA:                  -0.978
REMARK UNBOUND:                -1.436
REMARK  7 active torsions:
REMARK  status: ('A' for Active; 'I' for Inactive)
REMARK    1  A    between atoms: NBF_3  and  CAN_4 
REMARK    2  A    between atoms: NBG_8  and  CAS_9 
REMARK    3  A    between atoms: CAS_9  and  CAX_10 
REMARK    4  A    between atoms: CAY_15  and  CBA_16 
REMARK    5  A    between atoms: C6_24  and  NAV_25 
REMARK    6  A    between atoms: NAV_25  and  CBE_26 
REMARK    7  A    between atoms: CBE_26  and  CAZ_28 
ROOT
HETATM    1  CBA   D T2020       9.388  -2.761  -2.432  1.00 64.64     0.083 A 
HETATM    2  NAW   D T2020       8.779  -3.676  -3.222  1.00 63.25    -0.227 NA
HETATM    3  CAM   D T2020       9.299  -1.568  -3.054  1.00 62.00     0.025 A 
HETATM    4  C5    D T2020       8.633  -1.729  -4.222  1.00 62.03     0.073 A 
HETATM    5  C4    D T2020       8.305  -3.086  -4.307  1.00 59.95     0.167 A 
HETATM    6  N3    D T2020       7.663  -3.563  -5.370  1.00 57.93    -0.205 NA
HETATM    7  C2    D T2020       7.296  -2.754  -6.372  1.00 61.01     0.202 A 
HETATM    8  N1    D T2020       7.564  -1.446  -6.356  1.00 63.52    -0.205 NA
HETATM    9  C6    D T2020       8.247  -0.873  -5.300  1.00 63.62     0.163 A 
ENDROOT
BRANCH   1  10
HETATM   10  CAY   D T2020      10.023  -3.080  -1.204  1.00 68.44     0.018 A 
HETATM   11  CAK   D T2020      10.217  -2.064  -0.229  1.00 70.41     0.001 A 
HETATM   12  CAI   D T2020      10.815  -2.326   1.014  1.00 71.58    -0.002 A 
HETATM   13  CAX   D T2020      11.225  -3.632   1.321  1.00 74.24     0.011 A 
HETATM   14  CAJ   D T2020      11.019  -4.661   0.375  1.00 71.57    -0.002 A 
HETATM   15  CAL   D T2020      10.415  -4.397  -0.869  1.00 69.56     0.001 A 
BRANCH  13  16
HETATM   16  CAS   D T2020      11.876  -3.928   2.702  1.00 78.58     0.277 C 
BRANCH  16  17
HETATM   17  NBG   D T2020      10.851  -3.678   3.758  1.00 84.90     0.146 N 
HETATM   18  CAQ   D T2020      11.401  -3.564   5.151  1.00 87.68     0.286 C 
HETATM   19  CAO   D T2020      11.599  -4.939   5.863  1.00 89.39     0.285 C 
HETATM   20  NBF   D T2020      10.417  -5.834   5.713  1.00 89.89     0.141 N 
HETATM   21  CAP   D T2020      10.000  -6.001   4.296  1.00 88.17     0.285 C 
HETATM   22  CAR   D T2020       9.700  -4.631   3.645  1.00 86.12     0.286 C 
BRANCH  20  23
HETATM   23  CAN   D T2020       9.275  -5.397   6.568  1.00 90.94     0.251 C 
HETATM   24  CAA   D T2020       9.794  -4.951   7.952  1.00 90.26     0.037 C 
ENDBRANCH  20  23
ENDBRANCH  16  17
ENDBRANCH  13  16
ENDBRANCH   1  10
BRANCH   9  25
HETATM   25  NAV   D T2020       8.527   0.471  -5.288  1.00 62.88    -0.250 NA
BRANCH  25  26
HETATM   26  CBE   D T2020       9.404   1.120  -6.296  1.00 65.43     0.127 C 
HETATM   27  CAB   D T2020      10.602   1.850  -5.669  1.00 64.69     0.031 C 
BRANCH  26  28
HETATM   28  CAZ   D T2020       8.601   2.101  -7.179  1.00 67.00    -0.000 A 
HETATM   29  CAG   D T2020       9.060   3.419  -7.391  1.00 67.63    -0.002 A 
HETATM   30  CAD   D T2020       8.335   4.337  -8.174  1.00 69.11    -0.000 A 
HETATM   31  CAC   D T2020       7.129   3.912  -8.764  1.00 70.24    -0.000 A 
HETATM   32  CAE   D T2020       6.667   2.593  -8.560  1.00 69.05    -0.000 A 
HETATM   33  CAH   D T2020       7.393   1.685  -7.769  1.00 67.19    -0.002 A 
ENDBRANCH  26  28
ENDBRANCH  25  26
ENDBRANCH   9  25
TORSDOF 7
ENDMDL
MODEL 3
REMARK VINA RESULT:    -7.893      3.768     10.661
REMARK INTER + INTRA:         -12.559
REMARK INTER:                 -11.510
REMARK INTRA:                  -1.049
REMARK UNBOUND:                -1.436
REMARK  7 active torsions:
REMARK  status: ('A' for Active; 'I' for Inactive)
REMARK    1  A    between atoms: NBF_3  and  CAN_4 
REMARK    2  A    between atoms: NBG_8  and  CAS_9 
REMARK    3  A    between atoms: CAS_9  and  CAX_10 
REMARK    4  A    between atoms: CAY_15  and  CBA_16 
REMARK    5  A    between atoms: C6_24  and  NAV_25 
REMARK    6  A    between atoms: NAV_25  and  CBE_26 
REMARK    7  A    between atoms: CBE_26  and  CAZ_28 
ROOT
HETATM    1  CBA   D T2020       9.289  -2.269  -1.904  1.00 64.64     0.083 A 
HETATM    2  NAW   D T2020       8.693  -3.255  -2.616  1.00 63.25    -0.227 NA
HETATM    3  CAM   D T2020       9.267  -1.154  -2.662  1.00 62.00     0.025 A 
HETATM    4  C5    D T2020       8.656  -1.433  -3.838  1.00 62.03     0.073 A 
HETATM    5  C4    D T2020       8.292  -2.783  -3.785  1.00 59.95     0.167 A 
HETATM    6  N3    D T2020       7.690  -3.365  -4.819  1.00 57.93    -0.205 NA
HETATM    7  C2    D T2020       7.398  -2.668  -5.925  1.00 61.01     0.202 A 
HETATM    8  N1    D T2020       7.703  -1.374  -6.044  1.00 63.52    -0.205 NA
HETATM    9  C6    D T2020       8.350  -0.699  -5.025  1.00 63.62     0.163 A 
ENDROOT
BRANCH   1  10
HETATM   10  CAY   D T2020       9.852  -2.460  -0.615  1.00 68.44     0.018 A 
HETATM   11  CAK   D T2020       9.630  -3.683   0.074  1.00 70.41     0.001 A 
HETATM   12  CAI   D T2020      10.182  -3.938   1.339  1.00 71.58    -0.002 A 
HETATM   13  CAX   D T2020      10.993  -2.969   1.946  1.00 74.24     0.011 A 
HETATM   14  CAJ   D T2020      11.245  -1.755   1.268  1.00 71.57    -0.002 A 
HETATM   15  CAL   D T2020      10.694  -1.503  -0.003  1.00 69.56     0.001 A 
BRANCH  13  16
HETATM   16  CAS   D T2020      11.617  -3.253   3.343  1.00 78.58     0.277 C 
BRANCH  16  17
HETATM   17  NBG   D T2020      12.566  -2.145   3.658  1.00 84.90     0.146 N 
HETATM   18  CAQ   D T2020      14.013  -2.543   3.663  1.00 87.68     0.286 C 
HETATM   19  CAO   D T2020      14.493  -3.154   5.017  1.00 89.39     0.285 C 
HETATM   20  NBF   D T2020      14.045  -2.357   6.193  1.00 89.89     0.141 N 
HETATM   21  CAP   D T2020      12.580  -2.104   6.190  1.00 88.17     0.285 C 
HETATM   22  CAR   D T2020      12.146  -1.394   4.886  1.00 86.12     0.286 C 
BRANCH  20  23
HETATM   23  CAN   D T2020      14.815  -1.087   6.332  1.00 90.94     0.251 C 
HETATM   24  CAA   D T2020      14.469  -0.406   7.675  1.00 90.26     0.037 C 
ENDBRANCH  20  23
ENDBRANCH  16  17
ENDBRANCH  13  16
ENDBRANCH   1  10
BRANCH   9  25
HETATM   25  NAV   D T2020       8.668   0.630  -5.152  1.00 62.88    -0.250 NA
BRANCH  25  26
HETATM   26  CBE   D T2020       9.457   1.164  -6.292  1.00 65.43     0.127 C 
HETATM   27  CAB   D T2020      10.728   1.905  -5.849  1.00 64.69     0.031 C 
BRANCH  26  28
HETATM   28  CAZ   D T2020       8.594   2.094  -7.175  1.00 67.00    -0.000 A 
HETATM   29  CAG   D T2020       8.964   3.442  -7.376  1.00 67.63    -0.002 A 
HETATM   30  CAD   D T2020       8.183   4.313  -8.158  1.00 69.11    -0.000 A 
HETATM   31  CAC   D T2020       7.012   3.810  -8.759  1.00 70.24    -0.000 A 
HETATM   32  CAE   D T2020       6.641   2.461  -8.567  1.00 69.05    -0.000 A 
HETATM   33  CAH   D T2020       7.422   1.600  -7.776  1.00 67.19    -0.002 A 
ENDBRANCH  26  28
ENDBRANCH  25  26
ENDBRANCH   9  25
TORSDOF 7
ENDMDL
MODEL 4
REMARK VINA RESULT:    -7.670      6.534     10.124
REMARK INTER + INTRA:         -12.244
REMARK INTER:                 -11.159
REMARK INTRA:                  -1.085
REMARK UNBOUND:                -1.436
REMARK  7 active torsions:
REMARK  status: ('A' for Active; 'I' for Inactive)
REMARK    1  A    between atoms: NBF_3  and  CAN_4 
REMARK    2  A    between atoms: NBG_8  and  CAS_9 
REMARK    3  A    between atoms: CAS_9  and  CAX_10 
REMARK    4  A    between atoms: CAY_15  and  CBA_16 
REMARK    5  A    between atoms: C6_24  and  NAV_25 
REMARK    6  A    between atoms: NAV_25  and  CBE_26 
REMARK    7  A    between atoms: CBE_26  and  CAZ_28 
ROOT
HETATM    1  CBA   D T2020      12.523  -1.657  -1.531  1.00 64.64     0.083 A 
HETATM    2  NAW   D T2020      11.790  -2.451  -0.715  1.00 63.25    -0.227 NA
HETATM    3  CAM   D T2020      11.806  -1.462  -2.656  1.00 62.00     0.025 A 
HETATM    4  C5    D T2020      10.627  -2.121  -2.546  1.00 62.03     0.073 A 
HETATM    5  C4    D T2020      10.636  -2.743  -1.293  1.00 59.95     0.167 A 
HETATM    6  N3    D T2020       9.613  -3.499  -0.903  1.00 57.93    -0.205 NA
HETATM    7  C2    D T2020       8.541  -3.662  -1.689  1.00 61.01     0.202 A 
HETATM    8  N1    D T2020       8.455  -3.090  -2.892  1.00 63.52    -0.205 NA
HETATM    9  C6    D T2020       9.484  -2.308  -3.383  1.00 63.62     0.163 A 
ENDROOT
BRANCH   1  10
HETATM   10  CAY   D T2020      13.824  -1.189  -1.212  1.00 68.44     0.018 A 
HETATM   11  CAK   D T2020      14.787  -2.094  -0.688  1.00 70.41     0.001 A 
HETATM   12  CAI   D T2020      16.097  -1.694  -0.379  1.00 71.58    -0.002 A 
HETATM   13  CAX   D T2020      16.483  -0.365  -0.601  1.00 74.24     0.011 A 
HETATM   14  CAJ   D T2020      15.548   0.545  -1.143  1.00 71.57    -0.002 A 
HETATM   15  CAL   D T2020      14.237   0.141  -1.457  1.00 69.56     0.001 A 
BRANCH  13  16
HETATM   16  CAS   D T2020      17.937   0.078  -0.271  1.00 78.58     0.277 C 
BRANCH  16  17
HETATM   17  NBG   D T2020      18.761  -1.152  -0.075  1.00 84.90     0.146 N 
HETATM   18  CAQ   D T2020      19.405  -1.266   1.277  1.00 87.68     0.286 C 
HETATM   19  CAO   D T2020      20.763  -0.505   1.392  1.00 89.39     0.285 C 
HETATM   20  NBF   D T2020      21.661  -0.762   0.232  1.00 89.89     0.141 N 
HETATM   21  CAP   D T2020      20.997  -0.512  -1.074  1.00 88.17     0.285 C 
HETATM   22  CAR   D T2020      19.713  -1.363  -1.213  1.00 86.12     0.286 C 
BRANCH  20  23
HETATM   23  CAN   D T2020      22.261  -2.128   0.283  1.00 90.94     0.251 C 
HETATM   24  CAA   D T2020      23.254  -2.310  -0.886  1.00 90.26     0.037 C 
ENDBRANCH  20  23
ENDBRANCH  16  17
ENDBRANCH  13  16
ENDBRANCH   1  10
BRANCH   9  25
HETATM   25  NAV   D T2020       9.397  -1.725  -4.622  1.00 62.88    -0.250 NA
BRANCH  25  26
HETATM   26  CBE   D T2020       8.127  -1.178  -5.168  1.00 65.43     0.127 C 
HETATM   27  CAB   D T2020       7.373  -2.180  -6.055  1.00 64.69     0.031 C 
BRANCH  26  28
HETATM   28  CAZ   D T2020       8.380   0.127  -5.956  1.00 67.00    -0.000 A 
HETATM   29  CAG   D T2020       9.443   0.986  -5.603  1.00 67.63    -0.002 A 
HETATM   30  CAD   D T2020       9.679   2.190  -6.292  1.00 69.11    -0.000 A 
HETATM   31  CAC   D T2020       8.832   2.528  -7.365  1.00 70.24    -0.000 A 
HETATM   32  CAE   D T2020       7.770   1.670  -7.726  1.00 69.05    -0.000 A 
HETATM   33  CAH   D T2020       7.536   0.473  -7.027  1.00 67.19    -0.002 A 
ENDBRANCH  26  28
ENDBRANCH  25  26
ENDBRANCH   9  25
TORSDOF 7
ENDMDL
MODEL 5
REMARK VINA RESULT:    -7.658      4.435     10.442
REMARK INTER + INTRA:         -12.228
REMARK INTER:                 -10.976
REMARK INTRA:                  -1.252
REMARK UNBOUND:                -1.436
REMARK  7 active torsions:
REMARK  status: ('A' for Active; 'I' for Inactive)
REMARK    1  A    between atoms: NBF_3  and  CAN_4 
REMARK    2  A    between atoms: NBG_8  and  CAS_9 
REMARK    3  A    between atoms: CAS_9  and  CAX_10 
REMARK    4  A    between atoms: CAY_15  and  CBA_16 
REMARK    5  A    between atoms: C6_24  and  NAV_25 
REMARK    6  A    between atoms: NAV_25  and  CBE_26 
REMARK    7  A    between atoms: CBE_26  and  CAZ_28 
ROOT
HETATM    1  CBA   D T2020      10.255  -2.897  -1.085  1.00 64.64     0.083 A 
HETATM    2  NAW   D T2020      10.319  -4.058  -1.779  1.00 63.25    -0.227 NA
HETATM    3  CAM   D T2020       9.681  -1.979  -1.888  1.00 62.00     0.025 A 
HETATM    4  C5    D T2020       9.379  -2.558  -3.074  1.00 62.03     0.073 A 
HETATM    5  C4    D T2020       9.791  -3.891  -2.981  1.00 59.95     0.167 A 
HETATM    6  N3    D T2020       9.652  -4.719  -4.012  1.00 57.93    -0.205 NA
HETATM    7  C2    D T2020       9.092  -4.303  -5.156  1.00 61.01     0.202 A 
HETATM    8  N1    D T2020       8.664  -3.048  -5.316  1.00 63.52    -0.205 NA
HETATM    9  C6    D T2020       8.792  -2.119  -4.301  1.00 63.62     0.163 A 
ENDROOT
BRANCH   1  10
HETATM   10  CAY   D T2020      10.762  -2.739   0.231  1.00 68.44     0.018 A 
HETATM   11  CAK   D T2020      11.402  -1.523   0.595  1.00 70.41     0.001 A 
HETATM   12  CAI   D T2020      11.899  -1.299   1.888  1.00 71.58    -0.002 A 
HETATM   13  CAX   D T2020      11.753  -2.294   2.866  1.00 74.24     0.011 A 
HETATM   14  CAJ   D T2020      11.098  -3.500   2.531  1.00 71.57    -0.002 A 
HETATM   15  CAL   D T2020      10.596  -3.721   1.235  1.00 69.56     0.001 A 
BRANCH  13  16
HETATM   16  CAS   D T2020      12.291  -2.044   4.304  1.00 78.58     0.277 C 
BRANCH  16  17
HETATM   17  NBG   D T2020      13.707  -1.582   4.192  1.00 84.90     0.146 N 
HETATM   18  CAQ   D T2020      14.731  -2.677   4.274  1.00 87.68     0.286 C 
HETATM   19  CAO   D T2020      15.118  -3.067   5.735  1.00 89.39     0.285 C 
HETATM   20  NBF   D T2020      15.384  -1.877   6.591  1.00 89.89     0.141 N 
HETATM   21  CAP   D T2020      14.275  -0.888   6.559  1.00 88.17     0.285 C 
HETATM   22  CAR   D T2020      13.985  -0.431   5.110  1.00 86.12     0.286 C 
BRANCH  20  23
HETATM   23  CAN   D T2020      16.692  -1.236   6.266  1.00 90.94     0.251 C 
HETATM   24  CAA   D T2020      17.834  -2.264   6.419  1.00 90.26     0.037 C 
ENDBRANCH  20  23
ENDBRANCH  16  17
ENDBRANCH  13  16
ENDBRANCH   1  10
BRANCH   9  25
HETATM   25  NAV   D T2020       8.356  -0.828  -4.469  1.00 62.88    -0.250 NA
BRANCH  25  26
HETATM   26  CBE   D T2020       9.260   0.283  -4.865  1.00 65.43     0.127 C 
HETATM   27  CAB   D T2020       9.507   1.290  -3.731  1.00 64.69     0.031 C 
BRANCH  26  28
HETATM   28  CAZ   D T2020       8.718   1.022  -6.109  1.00 67.00    -0.000 A 
HETATM   29  CAG   D T2020       9.264   2.263  -6.503  1.00 67.63    -0.002 A 
HETATM   30  CAD   D T2020       8.773   2.964  -7.620  1.00 69.11    -0.000 A 
HETATM   31  CAC   D T2020       7.717   2.397  -8.359  1.00 70.24    -0.000 A 
HETATM   32  CAE   D T2020       7.171   1.153  -7.973  1.00 69.05    -0.000 A 
HETATM   33  CAH   D T2020       7.662   0.463  -6.851  1.00 67.19    -0.002 A 
ENDBRANCH  26  28
ENDBRANCH  25  26
ENDBRANCH   9  25
TORSDOF 7
ENDMDL
MODEL 6
REMARK VINA RESULT:    -7.655      3.710     10.542
REMARK INTER + INTRA:         -12.224
REMARK INTER:                 -11.033
REMARK INTRA:                  -1.191
REMARK UNBOUND:                -1.436
REMARK  7 active torsions:
REMARK  status: ('A' for Active; 'I' for Inactive)
REMARK    1  A    between atoms: NBF_3  and  CAN_4 
REMARK    2  A    between atoms: NBG_8  and  CAS_9 
REMARK    3  A    between atoms: CAS_9  and  CAX_10 
REMARK    4  A    between atoms: CAY_15  and  CBA_16 
REMARK    5  A    between atoms: C6_24  and  NAV_25 
REMARK    6  A    between atoms: NAV_25  and  CBE_26 
REMARK    7  A    between atoms: CBE_26  and  CAZ_28 
ROOT
HETATM    1  CBA   D T2020       9.723  -3.722  -1.158  1.00 64.64     0.083 A 
HETATM    2  NAW   D T2020       9.890  -4.740  -2.035  1.00 63.25    -0.227 NA
HETATM    3  CAM   D T2020       9.277  -2.658  -1.855  1.00 62.00     0.025 A 
HETATM    4  C5    D T2020       9.156  -3.005  -3.158  1.00 62.03     0.073 A 
HETATM    5  C4    D T2020       9.549  -4.344  -3.250  1.00 59.95     0.167 A 
HETATM    6  N3    D T2020       9.566  -4.968  -4.425  1.00 57.93    -0.205 NA
HETATM    7  C2    D T2020       9.185  -4.336  -5.544  1.00 61.01     0.202 A 
HETATM    8  N1    D T2020       8.786  -3.062  -5.533  1.00 63.52    -0.205 NA
HETATM    9  C6    D T2020       8.761  -2.335  -4.357  1.00 63.62     0.163 A 
ENDROOT
BRANCH   1  10
HETATM   10  CAY   D T2020      10.026  -3.818   0.225  1.00 68.44     0.018 A 
HETATM   11  CAK   D T2020      10.964  -2.920   0.802  1.00 70.41     0.001 A 
HETATM   12  CAI   D T2020      11.284  -2.950   2.169  1.00 71.58    -0.002 A 
HETATM   13  CAX   D T2020      10.653  -3.883   3.005  1.00 74.24     0.011 A 
HETATM   14  CAJ   D T2020       9.701  -4.769   2.455  1.00 71.57    -0.002 A 
HETATM   15  CAL   D T2020       9.378  -4.734   1.085  1.00 69.56     0.001 A 
BRANCH  13  16
HETATM   16  CAS   D T2020      10.996  -3.911   4.522  1.00 78.58     0.277 C 
BRANCH  16  17
HETATM   17  NBG   D T2020      12.251  -3.127   4.725  1.00 84.90     0.146 N 
HETATM   18  CAQ   D T2020      13.462  -3.955   5.044  1.00 87.68     0.286 C 
HETATM   19  CAO   D T2020      13.601  -4.309   6.558  1.00 89.39     0.285 C 
HETATM   20  NBF   D T2020      13.382  -3.130   7.441  1.00 89.89     0.141 N 
HETATM   21  CAP   D T2020      12.104  -2.427   7.154  1.00 88.17     0.285 C 
HETATM   22  CAR   D T2020      12.039  -1.985   5.673  1.00 86.12     0.286 C 
BRANCH  20  23
HETATM   23  CAN   D T2020      14.539  -2.188   7.411  1.00 90.94     0.251 C 
HETATM   24  CAA   D T2020      15.833  -2.931   7.808  1.00 90.26     0.037 C 
ENDBRANCH  20  23
ENDBRANCH  16  17
ENDBRANCH  13  16
ENDBRANCH   1  10
BRANCH   9  25
HETATM   25  NAV   D T2020       8.356  -1.024  -4.349  1.00 62.88    -0.250 NA
BRANCH  25  26
HETATM   26  CBE   D T2020       9.264   0.102  -4.686  1.00 65.43     0.127 C 
HETATM   27  CAB   D T2020       9.461   1.085  -3.521  1.00 64.69     0.031 C 
BRANCH  26  28
HETATM   28  CAZ   D T2020       8.762   0.866  -5.932  1.00 67.00    -0.000 A 
HETATM   29  CAG   D T2020       9.346   2.097  -6.305  1.00 67.63    -0.002 A 
HETATM   30  CAD   D T2020       8.891   2.821  -7.423  1.00 69.11    -0.000 A 
HETATM   31  CAC   D T2020       7.834   2.287  -8.185  1.00 70.24    -0.000 A 
HETATM   32  CAE   D T2020       7.250   1.054  -7.820  1.00 69.05    -0.000 A 
HETATM   33  CAH   D T2020       7.704   0.341  -6.696  1.00 67.19    -0.002 A 
ENDBRANCH  26  28
ENDBRANCH  25  26
ENDBRANCH   9  25
TORSDOF 7
ENDMDL
MODEL 7
REMARK VINA RESULT:    -7.613      6.394     10.144
REMARK INTER + INTRA:         -12.164
REMARK INTER:                 -11.101
REMARK INTRA:                  -1.063
REMARK UNBOUND:                -1.436
REMARK  7 active torsions:
REMARK  status: ('A' for Active; 'I' for Inactive)
REMARK    1  A    between atoms: NBF_3  and  CAN_4 
REMARK    2  A    between atoms: NBG_8  and  CAS_9 
REMARK    3  A    between atoms: CAS_9  and  CAX_10 
REMARK    4  A    between atoms: CAY_15  and  CBA_16 
REMARK    5  A    between atoms: C6_24  and  NAV_25 
REMARK    6  A    between atoms: NAV_25  and  CBE_26 
REMARK    7  A    between atoms: CBE_26  and  CAZ_28 
ROOT
HETATM    1  CBA   D T2020      12.521  -1.824  -1.449  1.00 64.64     0.083 A 
HETATM    2  NAW   D T2020      11.675  -2.687  -0.840  1.00 63.25    -0.227 NA
HETATM    3  CAM   D T2020      11.897  -1.355  -2.549  1.00 62.00     0.025 A 
HETATM    4  C5    D T2020      10.666  -1.912  -2.627  1.00 62.03     0.073 A 
HETATM    5  C4    D T2020      10.542  -2.758  -1.519  1.00 59.95     0.167 A 
HETATM    6  N3    D T2020       9.439  -3.477  -1.334  1.00 57.93    -0.205 NA
HETATM    7  C2    D T2020       8.411  -3.391  -2.189  1.00 61.01     0.202 A 
HETATM    8  N1    D T2020       8.450  -2.596  -3.261  1.00 63.52    -0.205 NA
HETATM    9  C6    D T2020       9.569  -1.833  -3.539  1.00 63.62     0.163 A 
ENDROOT
BRANCH   1  10
HETATM   10  CAY   D T2020      13.832  -1.545  -0.981  1.00 68.44     0.018 A 
HETATM   11  CAK   D T2020      14.465  -0.327  -1.352  1.00 70.41     0.001 A 
HETATM   12  CAI   D T2020      15.749   0.015  -0.899  1.00 71.58    -0.002 A 
HETATM   13  CAX   D T2020      16.433  -0.858  -0.041  1.00 74.24     0.011 A 
HETATM   14  CAJ   D T2020      15.812  -2.063   0.358  1.00 71.57    -0.002 A 
HETATM   15  CAL   D T2020      14.522  -2.402  -0.093  1.00 69.56     0.001 A 
BRANCH  13  16
HETATM   16  CAS   D T2020      17.851  -0.477   0.473  1.00 78.58     0.277 C 
BRANCH  16  17
HETATM   17  NBG   D T2020      18.782  -0.485  -0.694  1.00 84.90     0.146 N 
HETATM   18  CAQ   D T2020      19.008  -1.838  -1.305  1.00 87.68     0.286 C 
HETATM   19  CAO   D T2020      20.116  -2.673  -0.591  1.00 89.39     0.285 C 
HETATM   20  NBF   D T2020      21.347  -1.878  -0.325  1.00 89.89     0.141 N 
HETATM   21  CAP   D T2020      21.066  -0.607   0.392  1.00 88.17     0.285 C 
HETATM   22  CAR   D T2020      20.049   0.256  -0.393  1.00 86.12     0.286 C 
BRANCH  20  23
HETATM   23  CAN   D T2020      22.135  -1.636  -1.570  1.00 90.94     0.251 C 
HETATM   24  CAA   D T2020      23.081  -2.827  -1.833  1.00 90.26     0.037 C 
ENDBRANCH  20  23
ENDBRANCH  16  17
ENDBRANCH  13  16
ENDBRANCH   1  10
BRANCH   9  25
HETATM   25  NAV   D T2020       9.610  -1.021  -4.645  1.00 62.88    -0.250 NA
BRANCH  25  26
HETATM   26  CBE   D T2020       9.515   0.459  -4.563  1.00 65.43     0.127 C 
HETATM   27  CAB   D T2020       8.738   0.944  -3.329  1.00 64.69     0.031 C 
BRANCH  26  28
HETATM   28  CAZ   D T2020       8.878   1.046  -5.843  1.00 67.00    -0.000 A 
HETATM   29  CAG   D T2020       7.829   0.368  -6.500  1.00 67.63    -0.002 A 
HETATM   30  CAD   D T2020       7.248   0.872  -7.679  1.00 69.11    -0.000 A 
HETATM   31  CAC   D T2020       7.728   2.090  -8.197  1.00 70.24    -0.000 A 
HETATM   32  CAE   D T2020       8.773   2.776  -7.541  1.00 69.05    -0.000 A 
HETATM   33  CAH   D T2020       9.354   2.261  -6.368  1.00 67.19    -0.002 A 
ENDBRANCH  26  28
ENDBRANCH  25  26
ENDBRANCH   9  25
TORSDOF 7
ENDMDL
MODEL 8
REMARK VINA RESULT:    -7.607      4.813     10.464
REMARK INTER + INTRA:         -12.156
REMARK INTER:                 -11.007
REMARK INTRA:                  -1.149
REMARK UNBOUND:                -1.436
REMARK  7 active torsions:
REMARK  status: ('A' for Active; 'I' for Inactive)
REMARK    1  A    between atoms: NBF_3  and  CAN_4 
REMARK    2  A    between atoms: NBG_8  and  CAS_9 
REMARK    3  A    between atoms: CAS_9  and  CAX_10 
REMARK    4  A    between atoms: CAY_15  and  CBA_16 
REMARK    5  A    between atoms: C6_24  and  NAV_25 
REMARK    6  A    between atoms: NAV_25  and  CBE_26 
REMARK    7  A    between atoms: CBE_26  and  CAZ_28 
ROOT
HETATM    1  CBA   D T2020      10.905  -1.900  -2.204  1.00 64.64     0.083 A 
HETATM    2  NAW   D T2020      10.480  -3.111  -2.633  1.00 63.25    -0.227 NA
HETATM    3  CAM   D T2020      10.308  -0.967  -2.974  1.00 62.00     0.025 A 
HETATM    4  C5    D T2020       9.508  -1.586  -3.875  1.00 62.03     0.073 A 
HETATM    5  C4    D T2020       9.630  -2.959  -3.635  1.00 59.95     0.167 A 
HETATM    6  N3    D T2020       8.977  -3.840  -4.388  1.00 57.93    -0.205 NA
HETATM    7  C2    D T2020       8.171  -3.434  -5.378  1.00 61.01     0.202 A 
HETATM    8  N1    D T2020       7.995  -2.140  -5.658  1.00 63.52    -0.205 NA
HETATM    9  C6    D T2020       8.654  -1.161  -4.938  1.00 63.62     0.163 A 
ENDROOT
BRANCH   1  10
HETATM   10  CAY   D T2020      11.845  -1.721  -1.156  1.00 68.44     0.018 A 
HETATM   11  CAK   D T2020      13.174  -1.325  -1.465  1.00 70.41     0.001 A 
HETATM   12  CAI   D T2020      14.139  -1.107  -0.469  1.00 71.58    -0.002 A 
HETATM   13  CAX   D T2020      13.789  -1.271   0.879  1.00 74.24     0.011 A 
HETATM   14  CAJ   D T2020      12.467  -1.642   1.208  1.00 71.57    -0.002 A 
HETATM   15  CAL   D T2020      11.498  -1.854   0.208  1.00 69.56     0.001 A 
BRANCH  13  16
HETATM   16  CAS   D T2020      14.853  -1.019   1.985  1.00 78.58     0.277 C 
BRANCH  16  17
HETATM   17  NBG   D T2020      14.133  -0.660   3.243  1.00 84.90     0.146 N 
HETATM   18  CAQ   D T2020      14.363   0.747   3.715  1.00 87.68     0.286 C 
HETATM   19  CAO   D T2020      15.658   0.920   4.570  1.00 89.39     0.285 C 
HETATM   20  NBF   D T2020      15.799  -0.136   5.611  1.00 89.89     0.141 N 
HETATM   21  CAP   D T2020      15.684  -1.510   5.055  1.00 88.17     0.285 C 
HETATM   22  CAR   D T2020      14.341  -1.692   4.310  1.00 86.12     0.286 C 
BRANCH  20  23
HETATM   23  CAN   D T2020      14.854   0.071   6.747  1.00 90.94     0.251 C 
HETATM   24  CAA   D T2020      15.180   1.397   7.468  1.00 90.26     0.037 C 
ENDBRANCH  20  23
ENDBRANCH  16  17
ENDBRANCH  13  16
ENDBRANCH   1  10
BRANCH   9  25
HETATM   25  NAV   D T2020       8.476   0.168  -5.232  1.00 62.88    -0.250 NA
BRANCH  25  26
HETATM   26  CBE   D T2020       9.319   0.895  -6.216  1.00 65.43     0.127 C 
HETATM   27  CAB   D T2020      10.446   1.708  -5.559  1.00 64.69     0.031 C 
BRANCH  26  28
HETATM   28  CAZ   D T2020       8.458   1.823  -7.104  1.00 67.00    -0.000 A 
HETATM   29  CAG   D T2020       7.254   1.357  -7.675  1.00 67.63    -0.002 A 
HETATM   30  CAD   D T2020       6.464   2.176  -8.503  1.00 69.11    -0.000 A 
HETATM   31  CAC   D T2020       6.894   3.494  -8.752  1.00 70.24    -0.000 A 
HETATM   32  CAE   D T2020       8.094   3.968  -8.179  1.00 69.05    -0.000 A 
HETATM   33  CAH   D T2020       8.882   3.140  -7.359  1.00 67.19    -0.002 A 
ENDBRANCH  26  28
ENDBRANCH  25  26
ENDBRANCH   9  25
TORSDOF 7
ENDMDL
MODEL 9
REMARK VINA RESULT:    -7.125      2.400      5.483
REMARK INTER + INTRA:         -11.477
REMARK INTER:                 -10.349
REMARK INTRA:                  -1.128
REMARK UNBOUND:                -1.436
REMARK  7 active torsions:
REMARK  status: ('A' for Active; 'I' for Inactive)
REMARK    1  A    between atoms: NBF_3  and  CAN_4 
REMARK    2  A    between atoms: NBG_8  and  CAS_9 
REMARK    3  A    between atoms: CAS_9  and  CAX_10 
REMARK    4  A    between atoms: CAY_15  and  CBA_16 
REMARK    5  A    between atoms: C6_24  and  NAV_25 
REMARK    6  A    between atoms: NAV_25  and  CBE_26 
REMARK    7  A    between atoms: CBE_26  and  CAZ_28 
ROOT
HETATM    1  CBA   D T2020       9.824  -3.380  -1.416  1.00 64.64     0.083 A 
HETATM    2  NAW   D T2020       9.755  -4.684  -1.773  1.00 63.25    -0.227 NA
HETATM    3  CAM   D T2020       9.770  -3.327  -0.070  1.00 62.00     0.025 A 
HETATM    4  C5    D T2020       9.676  -4.587   0.417  1.00 62.03     0.073 A 
HETATM    5  C4    D T2020       9.673  -5.441  -0.691  1.00 59.95     0.167 A 
HETATM    6  N3    D T2020       9.560  -6.757  -0.533  1.00 57.93    -0.205 NA
HETATM    7  C2    D T2020       9.470  -7.297   0.689  1.00 61.01     0.202 A 
HETATM    8  N1    D T2020       9.478  -6.547   1.794  1.00 63.52    -0.205 NA
HETATM    9  C6    D T2020       9.569  -5.170   1.718  1.00 63.62     0.163 A 
ENDROOT
BRANCH   1  10
HETATM   10  CAY   D T2020       9.895  -2.312  -2.348  1.00 68.44     0.018 A 
HETATM   11  CAK   D T2020      10.660  -2.467  -3.536  1.00 70.41     0.001 A 
HETATM   12  CAI   D T2020      10.745  -1.456  -4.506  1.00 71.58    -0.002 A 
HETATM   13  CAX   D T2020      10.047  -0.255  -4.315  1.00 74.24     0.011 A 
HETATM   14  CAJ   D T2020       9.263  -0.090  -3.151  1.00 71.57    -0.002 A 
HETATM   15  CAL   D T2020       9.174  -1.107  -2.182  1.00 69.56     0.001 A 
BRANCH  13  16
HETATM   16  CAS   D T2020      10.130   0.863  -5.394  1.00 78.58     0.277 C 
BRANCH  16  17
HETATM   17  NBG   D T2020       8.778   1.482  -5.521  1.00 84.90     0.146 N 
HETATM   18  CAQ   D T2020       7.695   0.536  -5.955  1.00 87.68     0.286 C 
HETATM   19  CAO   D T2020       7.605   0.352  -7.502  1.00 89.39     0.285 C 
HETATM   20  NBF   D T2020       7.654   1.648  -8.235  1.00 89.89     0.141 N 
HETATM   21  CAP   D T2020       8.820   2.484  -7.845  1.00 88.17     0.285 C 
HETATM   22  CAR   D T2020       8.825   2.748  -6.321  1.00 86.12     0.286 C 
BRANCH  20  23
HETATM   23  CAN   D T2020       6.376   2.409  -8.110  1.00 90.94     0.251 C 
HETATM   24  CAA   D T2020       5.320   1.824  -9.073  1.00 90.26     0.037 C 
ENDBRANCH  20  23
ENDBRANCH  16  17
ENDBRANCH  13  16
ENDBRANCH   1  10
BRANCH   9  25
HETATM   25  NAV   D T2020       9.571  -4.400   2.854  1.00 62.88    -0.250 NA
BRANCH  25  26
HETATM   26  CBE   D T2020      10.574  -4.566   3.938  1.00 65.43     0.127 C 
HETATM   27  CAB   D T2020       9.947  -4.971   5.281  1.00 64.69     0.031 C 
BRANCH  26  28
HETATM   28  CAZ   D T2020      11.410  -3.279   4.121  1.00 67.00    -0.000 A 
HETATM   29  CAG   D T2020      11.801  -2.853   5.409  1.00 67.63    -0.002 A 
HETATM   30  CAD   D T2020      12.544  -1.674   5.603  1.00 69.11    -0.000 A 
HETATM   31  CAC   D T2020      12.908  -0.916   4.473  1.00 70.24    -0.000 A 
HETATM   32  CAE   D T2020      12.525  -1.340   3.182  1.00 69.05    -0.000 A 
HETATM   33  CAH   D T2020      11.775  -2.515   2.998  1.00 67.19    -0.002 A 
ENDBRANCH  26  28
ENDBRANCH  25  26
ENDBRANCH   9  25
TORSDOF 7
ENDMDL
