MODEL 1
REMARK VINA RESULT:    -8.988      0.000      0.000
REMARK INTER + INTRA:         -13.815
REMARK INTER:                 -12.666
REMARK INTRA:                  -1.149
REMARK UNBOUND:                -1.149
REMARK  7 active torsions:
REMARK  status: ('A' for Active; 'I' for Inactive)
REMARK    1  A    between atoms: NBF_3  and  CAN_4 
REMARK    2  A    between atoms: NBG_8  and  CAS_9 
REMARK    3  A    between atoms: CAS_9  and  CAX_10 
REMARK    4  A    between atoms: CAY_15  and  CBA_16 
REMARK    5  A    between atoms: C6_24  and  NAV_25 
REMARK    6  A    between atoms: NAV_25  and  CBE_26 
REMARK    7  A    between atoms: CBE_26  and  CAZ_28 
ROOT
HETATM    1  CBA   D T2020      10.630   1.310  -1.021  1.00 64.64     0.083 A 
HETATM    2  NAW   D T2020      10.351   1.740   0.232  1.00 63.25    -0.227 NA
HETATM    3  CAM   D T2020      11.203   0.094  -0.911  1.00 62.00     0.025 A 
HETATM    4  C5    D T2020      11.277  -0.242   0.398  1.00 62.03     0.073 A 
HETATM    5  C4    D T2020      10.722   0.824   1.114  1.00 59.95     0.167 A 
HETATM    6  N3    D T2020      10.678   0.801   2.442  1.00 57.93    -0.205 NA
HETATM    7  C2    D T2020      11.143  -0.253   3.126  1.00 61.01     0.202 A 
HETATM    8  N1    D T2020      11.677  -1.312   2.512  1.00 63.52    -0.205 NA
HETATM    9  C6    D T2020      11.780  -1.359   1.135  1.00 63.62     0.163 A 
ENDROOT
BRANCH   1  10
HETATM   10  CAY   D T2020      10.376   2.074  -2.188  1.00 68.44     0.018 A 
HETATM   11  CAK   D T2020      10.455   1.453  -3.465  1.00 70.41     0.001 A 
HETATM   12  CAI   D T2020      10.186   2.150  -4.652  1.00 71.58    -0.002 A 
HETATM   13  CAX   D T2020       9.814   3.502  -4.591  1.00 74.24     0.011 A 
HETATM   14  CAJ   D T2020       9.706   4.131  -3.330  1.00 71.57    -0.002 A 
HETATM   15  CAL   D T2020       9.971   3.427  -2.139  1.00 69.56     0.001 A 
BRANCH  13  16
HETATM   16  CAS   D T2020       9.504   4.275  -5.905  1.00 78.58     0.277 C 
BRANCH  16  17
HETATM   17  NBG   D T2020       8.049   4.609  -5.910  1.00 84.90     0.146 N 
HETATM   18  CAQ   D T2020       7.135   3.420  -6.016  1.00 87.68     0.286 C 
HETATM   19  CAO   D T2020       6.892   2.945  -7.482  1.00 89.39     0.285 C 
HETATM   20  NBF   D T2020       6.583   4.074  -8.405  1.00 89.89     0.141 N 
HETATM   21  CAP   D T2020       7.593   5.162  -8.338  1.00 88.17     0.285 C 
HETATM   22  CAR   D T2020       7.736   5.695  -6.893  1.00 86.12     0.286 C 
BRANCH  20  23
HETATM   23  CAN   D T2020       5.203   4.602  -8.198  1.00 90.94     0.251 C 
HETATM   24  CAA   D T2020       4.434   4.603  -9.537  1.00 90.26     0.037 C 
ENDBRANCH  20  23
ENDBRANCH  16  17
ENDBRANCH  13  16
ENDBRANCH   1  10
BRANCH   9  25
HETATM   25  NAV   D T2020      12.334  -2.445   0.506  1.00 62.88    -0.250 NA
BRANCH  25  26
HETATM   26  CBE   D T2020      11.604  -3.726   0.318  1.00 65.43     0.127 C 
HETATM   27  CAB   D T2020      11.657  -4.635   1.556  1.00 64.69     0.031 C 
BRANCH  26  28
HETATM   28  CAZ   D T2020      12.134  -4.492  -0.914  1.00 67.00    -0.000 A 
HETATM   29  CAG   D T2020      12.461  -5.863  -0.823  1.00 67.63    -0.002 A 
HETATM   30  CAD   D T2020      12.965  -6.576  -1.926  1.00 69.11    -0.000 A 
HETATM   31  CAC   D T2020      13.132  -5.896  -3.148  1.00 70.24    -0.000 A 
HETATM   32  CAE   D T2020      12.800  -4.527  -3.246  1.00 69.05    -0.000 A 
HETATM   33  CAH   D T2020      12.306  -3.819  -2.138  1.00 67.19    -0.002 A 
ENDBRANCH  26  28
ENDBRANCH  25  26
ENDBRANCH   9  25
TORSDOF 7
ENDMDL
MODEL 2
REMARK VINA RESULT:    -8.837      2.211      3.257
REMARK INTER + INTRA:         -13.602
REMARK INTER:                 -12.450
REMARK INTRA:                  -1.152
REMARK UNBOUND:                -1.149
REMARK  7 active torsions:
REMARK  status: ('A' for Active; 'I' for Inactive)
REMARK    1  A    between atoms: NBF_3  and  CAN_4 
REMARK    2  A    between atoms: NBG_8  and  CAS_9 
REMARK    3  A    between atoms: CAS_9  and  CAX_10 
REMARK    4  A    between atoms: CAY_15  and  CBA_16 
REMARK    5  A    between atoms: C6_24  and  NAV_25 
REMARK    6  A    between atoms: NAV_25  and  CBE_26 
REMARK    7  A    between atoms: CBE_26  and  CAZ_28 
ROOT
HETATM    1  CBA   D T2020       9.663   2.255  -1.259  1.00 64.64     0.083 A 
HETATM    2  NAW   D T2020       9.645   3.470  -0.662  1.00 63.25    -0.227 NA
HETATM    3  CAM   D T2020      10.228   1.390  -0.393  1.00 62.00     0.025 A 
HETATM    4  C5    D T2020      10.558   2.052   0.741  1.00 62.03     0.073 A 
HETATM    5  C4    D T2020      10.171   3.383   0.550  1.00 59.95     0.167 A 
HETATM    6  N3    D T2020      10.392   4.297   1.490  1.00 57.93    -0.205 NA
HETATM    7  C2    D T2020      10.970   3.961   2.651  1.00 61.01     0.202 A 
HETATM    8  N1    D T2020      11.356   2.709   2.911  1.00 63.52    -0.205 NA
HETATM    9  C6    D T2020      11.182   1.703   1.979  1.00 63.62     0.163 A 
ENDROOT
BRANCH   1  10
HETATM   10  CAY   D T2020       9.191   2.019  -2.575  1.00 68.44     0.018 A 
HETATM   11  CAK   D T2020       7.859   1.564  -2.773  1.00 70.41     0.001 A 
HETATM   12  CAI   D T2020       7.328   1.340  -4.052  1.00 71.58    -0.002 A 
HETATM   13  CAX   D T2020       8.125   1.581  -5.182  1.00 74.24     0.011 A 
HETATM   14  CAJ   D T2020       9.444   2.057  -5.008  1.00 71.57    -0.002 A 
HETATM   15  CAL   D T2020       9.972   2.286  -3.723  1.00 69.56     0.001 A 
BRANCH  13  16
HETATM   16  CAS   D T2020       7.535   1.345  -6.603  1.00 78.58     0.277 C 
BRANCH  16  17
HETATM   17  NBG   D T2020       6.286   2.155  -6.723  1.00 84.90     0.146 N 
HETATM   18  CAQ   D T2020       5.411   1.786  -7.888  1.00 87.68     0.286 C 
HETATM   19  CAO   D T2020       5.824   2.474  -9.226  1.00 89.39     0.285 C 
HETATM   20  NBF   D T2020       6.088   3.932  -9.061  1.00 89.89     0.141 N 
HETATM   21  CAP   D T2020       7.057   4.219  -7.971  1.00 88.17     0.285 C 
HETATM   22  CAR   D T2020       6.571   3.623  -6.629  1.00 86.12     0.286 C 
BRANCH  20  23
HETATM   23  CAN   D T2020       4.828   4.710  -8.886  1.00 90.94     0.251 C 
HETATM   24  CAA   D T2020       3.861   4.415 -10.052  1.00 90.26     0.037 C 
ENDBRANCH  20  23
ENDBRANCH  16  17
ENDBRANCH  13  16
ENDBRANCH   1  10
BRANCH   9  25
HETATM   25  NAV   D T2020      11.584   0.418   2.245  1.00 62.88    -0.250 NA
BRANCH  25  26
HETATM   26  CBE   D T2020      10.676  -0.604   2.827  1.00 65.43     0.127 C 
HETATM   27  CAB   D T2020      10.642  -0.573   4.363  1.00 64.69     0.031 C 
BRANCH  26  28
HETATM   28  CAZ   D T2020      11.056  -2.023   2.344  1.00 67.00    -0.000 A 
HETATM   29  CAG   D T2020      12.334  -2.557   2.617  1.00 67.63    -0.002 A 
HETATM   30  CAD   D T2020      12.709  -3.838   2.169  1.00 69.11    -0.000 A 
HETATM   31  CAC   D T2020      11.772  -4.597   1.442  1.00 70.24    -0.000 A 
HETATM   32  CAE   D T2020      10.491  -4.069   1.172  1.00 69.05    -0.000 A 
HETATM   33  CAH   D T2020      10.126  -2.787   1.614  1.00 67.19    -0.002 A 
ENDBRANCH  26  28
ENDBRANCH  25  26
ENDBRANCH   9  25
TORSDOF 7
ENDMDL
MODEL 3
REMARK VINA RESULT:    -8.639      5.014     10.456
REMARK INTER + INTRA:         -13.323
REMARK INTER:                 -12.199
REMARK INTRA:                  -1.125
REMARK UNBOUND:                -1.149
REMARK  7 active torsions:
REMARK  status: ('A' for Active; 'I' for Inactive)
REMARK    1  A    between atoms: NBF_3  and  CAN_4 
REMARK    2  A    between atoms: NBG_8  and  CAS_9 
REMARK    3  A    between atoms: CAS_9  and  CAX_10 
REMARK    4  A    between atoms: CAY_15  and  CBA_16 
REMARK    5  A    between atoms: C6_24  and  NAV_25 
REMARK    6  A    between atoms: NAV_25  and  CBE_26 
REMARK    7  A    between atoms: CBE_26  and  CAZ_28 
ROOT
HETATM    1  CBA   D T2020       8.374   3.541  -2.134  1.00 64.64     0.083 A 
HETATM    2  NAW   D T2020       8.594   2.207  -2.197  1.00 63.25    -0.227 NA
HETATM    3  CAM   D T2020       7.776   3.906  -3.285  1.00 62.00     0.025 A 
HETATM    4  C5    D T2020       7.616   2.811  -4.065  1.00 62.03     0.073 A 
HETATM    5  C4    D T2020       8.142   1.732  -3.348  1.00 59.95     0.167 A 
HETATM    6  N3    D T2020       8.155   0.510  -3.870  1.00 57.93    -0.205 NA
HETATM    7  C2    D T2020       7.644   0.278  -5.087  1.00 61.01     0.202 A 
HETATM    8  N1    D T2020       7.114   1.255  -5.826  1.00 63.52    -0.205 NA
HETATM    9  C6    D T2020       7.081   2.558  -5.366  1.00 63.62     0.163 A 
ENDROOT
BRANCH   1  10
HETATM   10  CAY   D T2020       8.766   4.351  -1.037  1.00 68.44     0.018 A 
HETATM   11  CAK   D T2020       8.801   5.764  -1.184  1.00 70.41     0.001 A 
HETATM   12  CAI   D T2020       9.153   6.618  -0.128  1.00 71.58    -0.002 A 
HETATM   13  CAX   D T2020       9.472   6.070   1.124  1.00 74.24     0.011 A 
HETATM   14  CAJ   D T2020       9.420   4.669   1.298  1.00 71.57    -0.002 A 
HETATM   15  CAL   D T2020       9.060   3.816   0.238  1.00 69.56     0.001 A 
BRANCH  13  16
HETATM   16  CAS   D T2020       9.851   7.014   2.302  1.00 78.58     0.277 C 
BRANCH  16  17
HETATM   17  NBG   D T2020       9.871   8.414   1.781  1.00 84.90     0.146 N 
HETATM   18  CAQ   D T2020      11.238   9.034   1.708  1.00 87.68     0.286 C 
HETATM   19  CAO   D T2020      11.711   9.671   3.051  1.00 89.39     0.285 C 
HETATM   20  NBF   D T2020      10.659  10.516   3.684  1.00 89.89     0.141 N 
HETATM   21  CAP   D T2020       9.366   9.800   3.838  1.00 88.17     0.285 C 
HETATM   22  CAR   D T2020       8.860   9.274   2.475  1.00 86.12     0.286 C 
BRANCH  20  23
HETATM   23  CAN   D T2020      10.479  11.813   2.969  1.00 90.94     0.251 C 
HETATM   24  CAA   D T2020       9.707  12.805   3.865  1.00 90.26     0.037 C 
ENDBRANCH  20  23
ENDBRANCH  16  17
ENDBRANCH  13  16
ENDBRANCH   1  10
BRANCH   9  25
HETATM   25  NAV   D T2020       6.540   3.562  -6.130  1.00 62.88    -0.250 NA
BRANCH  25  26
HETATM   26  CBE   D T2020       7.029   3.886  -7.496  1.00 65.43     0.127 C 
HETATM   27  CAB   D T2020       7.630   5.297  -7.600  1.00 64.69     0.031 C 
BRANCH  26  28
HETATM   28  CAZ   D T2020       5.903   3.721  -8.542  1.00 67.00    -0.000 A 
HETATM   29  CAG   D T2020       5.220   4.849  -9.046  1.00 67.63    -0.002 A 
HETATM   30  CAD   D T2020       4.178   4.721  -9.984  1.00 69.11    -0.000 A 
HETATM   31  CAC   D T2020       3.827   3.432 -10.428  1.00 70.24    -0.000 A 
HETATM   32  CAE   D T2020       4.512   2.301  -9.931  1.00 69.05    -0.000 A 
HETATM   33  CAH   D T2020       5.545   2.436  -8.989  1.00 67.19    -0.002 A 
ENDBRANCH  26  28
ENDBRANCH  25  26
ENDBRANCH   9  25
TORSDOF 7
ENDMDL
MODEL 4
REMARK VINA RESULT:    -8.618      4.770     10.451
REMARK INTER + INTRA:         -13.294
REMARK INTER:                 -12.159
REMARK INTRA:                  -1.135
REMARK UNBOUND:                -1.149
REMARK  7 active torsions:
REMARK  status: ('A' for Active; 'I' for Inactive)
REMARK    1  A    between atoms: NBF_3  and  CAN_4 
REMARK    2  A    between atoms: NBG_8  and  CAS_9 
REMARK    3  A    between atoms: CAS_9  and  CAX_10 
REMARK    4  A    between atoms: CAY_15  and  CBA_16 
REMARK    5  A    between atoms: C6_24  and  NAV_25 
REMARK    6  A    between atoms: NAV_25  and  CBE_26 
REMARK    7  A    between atoms: CBE_26  and  CAZ_28 
ROOT
HETATM    1  CBA   D T2020       9.552   3.318  -2.832  1.00 64.64     0.083 A 
HETATM    2  NAW   D T2020       9.970   2.044  -3.016  1.00 63.25    -0.227 NA
HETATM    3  CAM   D T2020       8.647   3.588  -3.794  1.00 62.00     0.025 A 
HETATM    4  C5    D T2020       8.491   2.492  -4.573  1.00 62.03     0.073 A 
HETATM    5  C4    D T2020       9.344   1.512  -4.055  1.00 59.95     0.167 A 
HETATM    6  N3    D T2020       9.437   0.317  -4.631  1.00 57.93    -0.205 NA
HETATM    7  C2    D T2020       8.698   0.015  -5.708  1.00 61.01     0.202 A 
HETATM    8  N1    D T2020       7.854   0.894  -6.252  1.00 63.52    -0.205 NA
HETATM    9  C6    D T2020       7.714   2.165  -5.728  1.00 63.62     0.163 A 
ENDROOT
BRANCH   1  10
HETATM   10  CAY   D T2020      10.052   4.170  -1.814  1.00 68.44     0.018 A 
HETATM   11  CAK   D T2020      11.264   3.837  -1.152  1.00 70.41     0.001 A 
HETATM   12  CAI   D T2020      11.822   4.654  -0.157  1.00 71.58    -0.002 A 
HETATM   13  CAX   D T2020      11.176   5.849   0.196  1.00 74.24     0.011 A 
HETATM   14  CAJ   D T2020       9.982   6.210  -0.467  1.00 71.57    -0.002 A 
HETATM   15  CAL   D T2020       9.428   5.391  -1.469  1.00 69.56     0.001 A 
BRANCH  13  16
HETATM   16  CAS   D T2020      11.797   6.764   1.291  1.00 78.58     0.277 C 
BRANCH  16  17
HETATM   17  NBG   D T2020      12.548   7.857   0.605  1.00 84.90     0.146 N 
HETATM   18  CAQ   D T2020      14.027   7.620   0.485  1.00 87.68     0.286 C 
HETATM   19  CAO   D T2020      14.836   8.044   1.750  1.00 89.39     0.285 C 
HETATM   20  NBF   D T2020      14.442   9.391   2.254  1.00 89.89     0.141 N 
HETATM   21  CAP   D T2020      12.977   9.518   2.467  1.00 88.17     0.285 C 
HETATM   22  CAR   D T2020      12.201   9.201   1.167  1.00 86.12     0.286 C 
BRANCH  20  23
HETATM   23  CAN   D T2020      14.961  10.485   1.383  1.00 90.94     0.251 C 
HETATM   24  CAA   D T2020      16.504  10.459   1.368  1.00 90.26     0.037 C 
ENDBRANCH  20  23
ENDBRANCH  16  17
ENDBRANCH  13  16
ENDBRANCH   1  10
BRANCH   9  25
HETATM   25  NAV   D T2020       6.849   3.070  -6.292  1.00 62.88    -0.250 NA
BRANCH  25  26
HETATM   26  CBE   D T2020       7.199   3.880  -7.487  1.00 65.43     0.127 C 
HETATM   27  CAB   D T2020       7.896   5.204  -7.133  1.00 64.69     0.031 C 
BRANCH  26  28
HETATM   28  CAZ   D T2020       5.949   4.164  -8.351  1.00 67.00    -0.000 A 
HETATM   29  CAG   D T2020       5.060   5.207  -8.008  1.00 67.63    -0.002 A 
HETATM   30  CAD   D T2020       3.905   5.471  -8.767  1.00 69.11    -0.000 A 
HETATM   31  CAC   D T2020       3.648   4.674  -9.900  1.00 70.24    -0.000 A 
HETATM   32  CAE   D T2020       4.537   3.635 -10.250  1.00 69.05    -0.000 A 
HETATM   33  CAH   D T2020       5.684   3.371  -9.482  1.00 67.19    -0.002 A 
ENDBRANCH  26  28
ENDBRANCH  25  26
ENDBRANCH   9  25
TORSDOF 7
ENDMDL
MODEL 5
REMARK VINA RESULT:    -8.502      6.360     10.060
REMARK INTER + INTRA:         -13.130
REMARK INTER:                 -11.899
REMARK INTRA:                  -1.232
REMARK UNBOUND:                -1.149
REMARK  7 active torsions:
REMARK  status: ('A' for Active; 'I' for Inactive)
REMARK    1  A    between atoms: NBF_3  and  CAN_4 
REMARK    2  A    between atoms: NBG_8  and  CAS_9 
REMARK    3  A    between atoms: CAS_9  and  CAX_10 
REMARK    4  A    between atoms: CAY_15  and  CBA_16 
REMARK    5  A    between atoms: C6_24  and  NAV_25 
REMARK    6  A    between atoms: NAV_25  and  CBE_26 
REMARK    7  A    between atoms: CBE_26  and  CAZ_28 
ROOT
HETATM    1  CBA   D T2020      10.280   6.865  -1.423  1.00 64.64     0.083 A 
HETATM    2  NAW   D T2020      11.407   6.596  -0.724  1.00 63.25    -0.227 NA
HETATM    3  CAM   D T2020       9.773   8.018  -0.942  1.00 62.00     0.025 A 
HETATM    4  C5    D T2020      10.576   8.473   0.048  1.00 62.03     0.073 A 
HETATM    5  C4    D T2020      11.620   7.550   0.169  1.00 59.95     0.167 A 
HETATM    6  N3    D T2020      12.566   7.711   1.089  1.00 57.93    -0.205 NA
HETATM    7  C2    D T2020      12.556   8.772   1.907  1.00 61.01     0.202 A 
HETATM    8  N1    D T2020      11.599   9.701   1.843  1.00 63.52    -0.205 NA
HETATM    9  C6    D T2020      10.567   9.598   0.930  1.00 63.62     0.163 A 
ENDROOT
BRANCH   1  10
HETATM   10  CAY   D T2020       9.764   6.020  -2.439  1.00 68.44     0.018 A 
HETATM   11  CAK   D T2020      10.194   6.195  -3.783  1.00 70.41     0.001 A 
HETATM   12  CAI   D T2020       9.741   5.372  -4.825  1.00 71.58    -0.002 A 
HETATM   13  CAX   D T2020       8.843   4.331  -4.542  1.00 74.24     0.011 A 
HETATM   14  CAJ   D T2020       8.422   4.126  -3.209  1.00 71.57    -0.002 A 
HETATM   15  CAL   D T2020       8.884   4.949  -2.164  1.00 69.56     0.001 A 
BRANCH  13  16
HETATM   16  CAS   D T2020       8.347   3.409  -5.694  1.00 78.58     0.277 C 
BRANCH  16  17
HETATM   17  NBG   D T2020       6.944   3.799  -6.023  1.00 84.90     0.146 N 
HETATM   18  CAQ   D T2020       6.112   2.698  -6.619  1.00 87.68     0.286 C 
HETATM   19  CAO   D T2020       6.287   2.545  -8.162  1.00 89.39     0.285 C 
HETATM   20  NBF   D T2020       6.226   3.852  -8.876  1.00 89.89     0.141 N 
HETATM   21  CAP   D T2020       7.162   4.858  -8.312  1.00 88.17     0.285 C 
HETATM   22  CAR   D T2020       6.896   5.076  -6.804  1.00 86.12     0.286 C 
BRANCH  20  23
HETATM   23  CAN   D T2020       4.834   4.384  -8.945  1.00 90.94     0.251 C 
HETATM   24  CAA   D T2020       4.272   4.204 -10.372  1.00 90.26     0.037 C 
ENDBRANCH  20  23
ENDBRANCH  16  17
ENDBRANCH  13  16
ENDBRANCH   1  10
BRANCH   9  25
HETATM   25  NAV   D T2020       9.581  10.551   0.870  1.00 62.88    -0.250 NA
BRANCH  25  26
HETATM   26  CBE   D T2020       9.707  11.790   0.058  1.00 65.43     0.127 C 
HETATM   27  CAB   D T2020       9.579  13.073   0.895  1.00 64.69     0.031 C 
BRANCH  26  28
HETATM   28  CAZ   D T2020       8.670  11.810  -1.088  1.00 67.00    -0.000 A 
HETATM   29  CAG   D T2020       7.547  12.663  -1.026  1.00 67.63    -0.002 A 
HETATM   30  CAD   D T2020       6.579  12.684  -2.048  1.00 69.11    -0.000 A 
HETATM   31  CAC   D T2020       6.754  11.835  -3.157  1.00 70.24    -0.000 A 
HETATM   32  CAE   D T2020       7.879  10.984  -3.227  1.00 69.05    -0.000 A 
HETATM   33  CAH   D T2020       8.837  10.962  -2.199  1.00 67.19    -0.002 A 
ENDBRANCH  26  28
ENDBRANCH  25  26
ENDBRANCH   9  25
TORSDOF 7
ENDMDL
MODEL 6
REMARK VINA RESULT:    -8.266      5.043     10.276
REMARK INTER + INTRA:         -12.797
REMARK INTER:                 -11.686
REMARK INTRA:                  -1.111
REMARK UNBOUND:                -1.149
REMARK  7 active torsions:
REMARK  status: ('A' for Active; 'I' for Inactive)
REMARK    1  A    between atoms: NBF_3  and  CAN_4 
REMARK    2  A    between atoms: NBG_8  and  CAS_9 
REMARK    3  A    between atoms: CAS_9  and  CAX_10 
REMARK    4  A    between atoms: CAY_15  and  CBA_16 
REMARK    5  A    between atoms: C6_24  and  NAV_25 
REMARK    6  A    between atoms: NAV_25  and  CBE_26 
REMARK    7  A    between atoms: CBE_26  and  CAZ_28 
ROOT
HETATM    1  CBA   D T2020       9.274   4.220  -2.987  1.00 64.64     0.083 A 
HETATM    2  NAW   D T2020       9.874   3.009  -2.901  1.00 63.25    -0.227 NA
HETATM    3  CAM   D T2020       8.389   4.159  -4.003  1.00 62.00     0.025 A 
HETATM    4  C5    D T2020       8.427   2.920  -4.547  1.00 62.03     0.073 A 
HETATM    5  C4    D T2020       9.382   2.198  -3.824  1.00 59.95     0.167 A 
HETATM    6  N3    D T2020       9.669   0.939  -4.144  1.00 57.93    -0.205 NA
HETATM    7  C2    D T2020       9.035   0.327  -5.154  1.00 61.01     0.202 A 
HETATM    8  N1    D T2020       8.104   0.948  -5.882  1.00 63.52    -0.205 NA
HETATM    9  C6    D T2020       7.762   2.262  -5.628  1.00 63.62     0.163 A 
ENDROOT
BRANCH   1  10
HETATM   10  CAY   D T2020       9.598   5.319  -2.151  1.00 68.44     0.018 A 
HETATM   11  CAK   D T2020       9.155   5.329  -0.801  1.00 70.41     0.001 A 
HETATM   12  CAI   D T2020       9.469   6.375   0.081  1.00 71.58    -0.002 A 
HETATM   13  CAX   D T2020      10.254   7.446  -0.371  1.00 74.24     0.011 A 
HETATM   14  CAJ   D T2020      10.723   7.444  -1.703  1.00 71.57    -0.002 A 
HETATM   15  CAL   D T2020      10.413   6.390  -2.584  1.00 69.56     0.001 A 
BRANCH  13  16
HETATM   16  CAS   D T2020      10.613   8.602   0.607  1.00 78.58     0.277 C 
BRANCH  16  17
HETATM   17  NBG   D T2020      11.369   9.636  -0.161  1.00 84.90     0.146 N 
HETATM   18  CAQ   D T2020      12.820   9.756   0.214  1.00 87.68     0.286 C 
HETATM   19  CAO   D T2020      13.075  10.680   1.445  1.00 89.39     0.285 C 
HETATM   20  NBF   D T2020      12.328  11.966   1.359  1.00 89.89     0.141 N 
HETATM   21  CAP   D T2020      10.876  11.770   1.108  1.00 88.17     0.285 C 
HETATM   22  CAR   D T2020      10.645  10.946  -0.181  1.00 86.12     0.286 C 
BRANCH  20  23
HETATM   23  CAN   D T2020      12.931  12.895   0.359  1.00 90.94     0.251 C 
HETATM   24  CAA   D T2020      14.356  13.291   0.802  1.00 90.26     0.037 C 
ENDBRANCH  20  23
ENDBRANCH  16  17
ENDBRANCH  13  16
ENDBRANCH   1  10
BRANCH   9  25
HETATM   25  NAV   D T2020       6.809   2.901  -6.382  1.00 62.88    -0.250 NA
BRANCH  25  26
HETATM   26  CBE   D T2020       7.122   3.589  -7.661  1.00 65.43     0.127 C 
HETATM   27  CAB   D T2020       7.563   5.048  -7.468  1.00 64.69     0.031 C 
BRANCH  26  28
HETATM   28  CAZ   D T2020       5.920   3.532  -8.631  1.00 67.00    -0.000 A 
HETATM   29  CAG   D T2020       5.295   4.719  -9.073  1.00 67.63    -0.002 A 
HETATM   30  CAD   D T2020       4.186   4.691  -9.939  1.00 69.11    -0.000 A 
HETATM   31  CAC   D T2020       3.706   3.441 -10.375  1.00 70.24    -0.000 A 
HETATM   32  CAE   D T2020       4.331   2.252  -9.942  1.00 69.05    -0.000 A 
HETATM   33  CAH   D T2020       5.432   2.287  -9.070  1.00 67.19    -0.002 A 
ENDBRANCH  26  28
ENDBRANCH  25  26
ENDBRANCH   9  25
TORSDOF 7
ENDMDL
MODEL 7
REMARK VINA RESULT:    -8.036      5.780      9.714
REMARK INTER + INTRA:         -12.474
REMARK INTER:                 -11.405
REMARK INTRA:                  -1.069
REMARK UNBOUND:                -1.149
REMARK  7 active torsions:
REMARK  status: ('A' for Active; 'I' for Inactive)
REMARK    1  A    between atoms: NBF_3  and  CAN_4 
REMARK    2  A    between atoms: NBG_8  and  CAS_9 
REMARK    3  A    between atoms: CAS_9  and  CAX_10 
REMARK    4  A    between atoms: CAY_15  and  CBA_16 
REMARK    5  A    between atoms: C6_24  and  NAV_25 
REMARK    6  A    between atoms: NAV_25  and  CBE_26 
REMARK    7  A    between atoms: CBE_26  and  CAZ_28 
ROOT
HETATM    1  CBA   D T2020       9.157   6.077  -0.522  1.00 64.64     0.083 A 
HETATM    2  NAW   D T2020       9.436   5.731   0.756  1.00 63.25    -0.227 NA
HETATM    3  CAM   D T2020       9.065   7.422  -0.564  1.00 62.00     0.025 A 
HETATM    4  C5    D T2020       9.289   7.918   0.675  1.00 62.03     0.073 A 
HETATM    5  C4    D T2020       9.530   6.818   1.506  1.00 59.95     0.167 A 
HETATM    6  N3    D T2020       9.758   6.985   2.805  1.00 57.93    -0.205 NA
HETATM    7  C2    D T2020       9.785   8.211   3.345  1.00 61.01     0.202 A 
HETATM    8  N1    D T2020       9.577   9.308   2.614  1.00 63.52    -0.205 NA
HETATM    9  C6    D T2020       9.311   9.222   1.261  1.00 63.62     0.163 A 
ENDROOT
BRANCH   1  10
HETATM   10  CAY   D T2020       8.970   5.137  -1.568  1.00 68.44     0.018 A 
HETATM   11  CAK   D T2020       7.896   4.210  -1.495  1.00 70.41     0.001 A 
HETATM   12  CAI   D T2020       7.644   3.276  -2.512  1.00 71.58    -0.002 A 
HETATM   13  CAX   D T2020       8.465   3.256  -3.649  1.00 74.24     0.011 A 
HETATM   14  CAJ   D T2020       9.525   4.185  -3.752  1.00 71.57    -0.002 A 
HETATM   15  CAL   D T2020       9.771   5.125  -2.733  1.00 69.56     0.001 A 
BRANCH  13  16
HETATM   16  CAS   D T2020       8.182   2.230  -4.784  1.00 78.58     0.277 C 
BRANCH  16  17
HETATM   17  NBG   D T2020       6.838   2.537  -5.357  1.00 84.90     0.146 N 
HETATM   18  CAQ   D T2020       6.277   1.464  -6.246  1.00 87.68     0.286 C 
HETATM   19  CAO   D T2020       6.775   1.548  -7.723  1.00 89.39     0.285 C 
HETATM   20  NBF   D T2020       6.707   2.933  -8.270  1.00 89.89     0.141 N 
HETATM   21  CAP   D T2020       7.388   3.927  -7.400  1.00 88.17     0.285 C 
HETATM   22  CAR   D T2020       6.801   3.904  -5.970  1.00 86.12     0.286 C 
BRANCH  20  23
HETATM   23  CAN   D T2020       5.305   3.346  -8.571  1.00 90.94     0.251 C 
HETATM   24  CAA   D T2020       5.304   4.698  -9.316  1.00 90.26     0.037 C 
ENDBRANCH  20  23
ENDBRANCH  16  17
ENDBRANCH  13  16
ENDBRANCH   1  10
BRANCH   9  25
HETATM   25  NAV   D T2020       9.091  10.351   0.512  1.00 62.88    -0.250 NA
BRANCH  25  26
HETATM   26  CBE   D T2020       9.600  10.507  -0.876  1.00 65.43     0.127 C 
HETATM   27  CAB   D T2020      10.777  11.490  -0.978  1.00 64.69     0.031 C 
BRANCH  26  28
HETATM   28  CAZ   D T2020       8.470  10.947  -1.834  1.00 67.00    -0.000 A 
HETATM   29  CAG   D T2020       8.375  10.401  -3.133  1.00 67.63    -0.002 A 
HETATM   30  CAD   D T2020       7.368  10.802  -4.031  1.00 69.11    -0.000 A 
HETATM   31  CAC   D T2020       6.431  11.763  -3.604  1.00 70.24    -0.000 A 
HETATM   32  CAE   D T2020       6.517  12.307  -2.304  1.00 69.05    -0.000 A 
HETATM   33  CAH   D T2020       7.531  11.909  -1.417  1.00 67.19    -0.002 A 
ENDBRANCH  26  28
ENDBRANCH  25  26
ENDBRANCH   9  25
TORSDOF 7
ENDMDL
MODEL 8
REMARK VINA RESULT:    -7.873     11.059     16.786
REMARK INTER + INTRA:         -12.244
REMARK INTER:                 -10.899
REMARK INTRA:                  -1.345
REMARK UNBOUND:                -1.149
REMARK  7 active torsions:
REMARK  status: ('A' for Active; 'I' for Inactive)
REMARK    1  A    between atoms: NBF_3  and  CAN_4 
REMARK    2  A    between atoms: NBG_8  and  CAS_9 
REMARK    3  A    between atoms: CAS_9  and  CAX_10 
REMARK    4  A    between atoms: CAY_15  and  CBA_16 
REMARK    5  A    between atoms: C6_24  and  NAV_25 
REMARK    6  A    between atoms: NAV_25  and  CBE_26 
REMARK    7  A    between atoms: CBE_26  and  CAZ_28 
ROOT
HETATM    1  CBA   D T2020       7.523  14.910   0.004  1.00 64.64     0.083 A 
HETATM    2  NAW   D T2020       7.070  15.202   1.245  1.00 63.25    -0.227 NA
HETATM    3  CAM   D T2020       7.485  16.048  -0.718  1.00 62.00     0.025 A 
HETATM    4  C5    D T2020       7.017  17.050   0.064  1.00 62.03     0.073 A 
HETATM    5  C4    D T2020       6.761  16.488   1.319  1.00 59.95     0.167 A 
HETATM    6  N3    D T2020       6.261  17.226   2.305  1.00 57.93    -0.205 NA
HETATM    7  C2    D T2020       6.010  18.530   2.127  1.00 61.01     0.202 A 
HETATM    8  N1    D T2020       6.239  19.139   0.961  1.00 63.52    -0.205 NA
HETATM    9  C6    D T2020       6.738  18.440  -0.121  1.00 63.62     0.163 A 
ENDROOT
BRANCH   1  10
HETATM   10  CAY   D T2020       7.913  13.609  -0.405  1.00 68.44     0.018 A 
HETATM   11  CAK   D T2020       7.160  12.930  -1.401  1.00 70.41     0.001 A 
HETATM   12  CAI   D T2020       7.514  11.654  -1.865  1.00 71.58    -0.002 A 
HETATM   13  CAX   D T2020       8.653  11.021  -1.344  1.00 74.24     0.011 A 
HETATM   14  CAJ   D T2020       9.429  11.689  -0.371  1.00 71.57    -0.002 A 
HETATM   15  CAL   D T2020       9.075  12.973   0.088  1.00 69.56     0.001 A 
BRANCH  13  16
HETATM   16  CAS   D T2020       9.055   9.611  -1.865  1.00 78.58     0.277 C 
BRANCH  16  17
HETATM   17  NBG   D T2020       9.702   8.873  -0.739  1.00 84.90     0.146 N 
HETATM   18  CAQ   D T2020      11.055   8.304  -1.061  1.00 87.68     0.286 C 
HETATM   19  CAO   D T2020      11.000   6.911  -1.763  1.00 89.39     0.285 C 
HETATM   20  NBF   D T2020      10.053   5.973  -1.096  1.00 89.89     0.141 N 
HETATM   21  CAP   D T2020       8.698   6.556  -0.919  1.00 88.17     0.285 C 
HETATM   22  CAR   D T2020       8.766   7.880  -0.122  1.00 86.12     0.286 C 
BRANCH  20  23
HETATM   23  CAN   D T2020      10.596   5.458   0.195  1.00 90.94     0.251 C 
HETATM   24  CAA   D T2020       9.612   4.439   0.809  1.00 90.26     0.037 C 
ENDBRANCH  20  23
ENDBRANCH  16  17
ENDBRANCH  13  16
ENDBRANCH   1  10
BRANCH   9  25
HETATM   25  NAV   D T2020       6.967  19.066  -1.320  1.00 62.88    -0.250 NA
BRANCH  25  26
HETATM   26  CBE   D T2020       5.899  19.289  -2.329  1.00 65.43     0.127 C 
HETATM   27  CAB   D T2020       4.558  18.650  -1.935  1.00 64.69     0.031 C 
BRANCH  26  28
HETATM   28  CAZ   D T2020       6.333  18.772  -3.720  1.00 67.00    -0.000 A 
HETATM   29  CAG   D T2020       5.687  19.228  -4.890  1.00 67.63    -0.002 A 
HETATM   30  CAD   D T2020       6.051  18.757  -6.165  1.00 69.11    -0.000 A 
HETATM   31  CAC   D T2020       7.094  17.816  -6.262  1.00 70.24    -0.000 A 
HETATM   32  CAE   D T2020       7.748  17.362  -5.095  1.00 69.05    -0.000 A 
HETATM   33  CAH   D T2020       7.373  17.830  -3.825  1.00 67.19    -0.002 A 
ENDBRANCH  26  28
ENDBRANCH  25  26
ENDBRANCH   9  25
TORSDOF 7
ENDMDL
MODEL 9
REMARK VINA RESULT:    -7.852      5.099     10.397
REMARK INTER + INTRA:         -12.214
REMARK INTER:                 -11.054
REMARK INTRA:                  -1.159
REMARK UNBOUND:                -1.149
REMARK  7 active torsions:
REMARK  status: ('A' for Active; 'I' for Inactive)
REMARK    1  A    between atoms: NBF_3  and  CAN_4 
REMARK    2  A    between atoms: NBG_8  and  CAS_9 
REMARK    3  A    between atoms: CAS_9  and  CAX_10 
REMARK    4  A    between atoms: CAY_15  and  CBA_16 
REMARK    5  A    between atoms: C6_24  and  NAV_25 
REMARK    6  A    between atoms: NAV_25  and  CBE_26 
REMARK    7  A    between atoms: CBE_26  and  CAZ_28 
ROOT
HETATM    1  CBA   D T2020       9.859   3.992  -1.943  1.00 64.64     0.083 A 
HETATM    2  NAW   D T2020      10.494   2.805  -2.079  1.00 63.25    -0.227 NA
HETATM    3  CAM   D T2020       9.004   4.113  -2.979  1.00 62.00     0.025 A 
HETATM    4  C5    D T2020       9.095   3.008  -3.757  1.00 62.03     0.073 A 
HETATM    5  C4    D T2020      10.052   2.181  -3.160  1.00 59.95     0.167 A 
HETATM    6  N3    D T2020      10.387   1.019  -3.714  1.00 57.93    -0.205 NA
HETATM    7  C2    D T2020       9.800   0.604  -4.845  1.00 61.01     0.202 A 
HETATM    8  N1    D T2020       8.870   1.333  -5.465  1.00 63.52    -0.205 NA
HETATM    9  C6    D T2020       8.480   2.562  -4.967  1.00 63.62     0.163 A 
ENDROOT
BRANCH   1  10
HETATM   10  CAY   D T2020      10.126   4.911  -0.896  1.00 68.44     0.018 A 
HETATM   11  CAK   D T2020      10.984   6.019  -1.135  1.00 70.41     0.001 A 
HETATM   12  CAI   D T2020      11.262   6.976  -0.147  1.00 71.58    -0.002 A 
HETATM   13  CAX   D T2020      10.671   6.853   1.119  1.00 74.24     0.011 A 
HETATM   14  CAJ   D T2020       9.796   5.772   1.369  1.00 71.57    -0.002 A 
HETATM   15  CAL   D T2020       9.513   4.816   0.374  1.00 69.56     0.001 A 
BRANCH  13  16
HETATM   16  CAS   D T2020      10.968   7.918   2.213  1.00 78.58     0.277 C 
BRANCH  16  17
HETATM   17  NBG   D T2020       9.725   8.108   3.019  1.00 84.90     0.146 N 
HETATM   18  CAQ   D T2020       8.973   9.374   2.719  1.00 87.68     0.286 C 
HETATM   19  CAO   D T2020       9.504  10.619   3.494  1.00 89.39     0.285 C 
HETATM   20  NBF   D T2020       9.730  10.337   4.941  1.00 89.89     0.141 N 
HETATM   21  CAP   D T2020      10.584   9.142   5.165  1.00 88.17     0.285 C 
HETATM   22  CAR   D T2020       9.978   7.894   4.480  1.00 86.12     0.286 C 
BRANCH  20  23
HETATM   23  CAN   D T2020       8.447  10.237   5.697  1.00 90.94     0.251 C 
HETATM   24  CAA   D T2020       8.706  10.456   7.203  1.00 90.26     0.037 C 
ENDBRANCH  20  23
ENDBRANCH  16  17
ENDBRANCH  13  16
ENDBRANCH   1  10
BRANCH   9  25
HETATM   25  NAV   D T2020       7.528   3.314  -5.609  1.00 62.88    -0.250 NA
BRANCH  25  26
HETATM   26  CBE   D T2020       7.799   4.047  -6.873  1.00 65.43     0.127 C 
HETATM   27  CAB   D T2020       8.003   5.556  -6.660  1.00 64.69     0.031 C 
BRANCH  26  28
HETATM   28  CAZ   D T2020       6.671   3.814  -7.903  1.00 67.00    -0.000 A 
HETATM   29  CAG   D T2020       6.328   2.507  -8.311  1.00 67.63    -0.002 A 
HETATM   30  CAD   D T2020       5.319   2.271  -9.263  1.00 69.11    -0.000 A 
HETATM   31  CAC   D T2020       4.635   3.376  -9.805  1.00 70.24    -0.000 A 
HETATM   32  CAE   D T2020       4.969   4.685  -9.395  1.00 69.05    -0.000 A 
HETATM   33  CAH   D T2020       5.984   4.913  -8.451  1.00 67.19    -0.002 A 
ENDBRANCH  26  28
ENDBRANCH  25  26
ENDBRANCH   9  25
TORSDOF 7
ENDMDL
