MODEL 1
REMARK VINA RESULT:    -8.400      0.000      0.000
REMARK INTER + INTRA:         -12.274
REMARK INTER:                 -11.346
REMARK INTRA:                  -0.928
REMARK UNBOUND:                -0.928
REMARK  6 active torsions:
REMARK  status: ('A' for Active; 'I' for Inactive)
REMARK    1  A    between atoms: CBC_7  and  CAO_8 
REMARK    2  A    between atoms: CAO_8  and  OAT_9 
REMARK    3  A    between atoms: OAT_9  and  CAY_10 
REMARK    4  A    between atoms: CAX_12  and  OAS_13 
REMARK    5  A    between atoms: C6_21  and  NAR_22 
REMARK    6  A    between atoms: NAR_22  and  CAW_23 
ROOT
HETATM    1  CAY   D T3015      10.854   1.233  -0.156  1.00 27.56     0.118 A 
HETATM    2  CAI   D T3015       9.860   2.176   0.039  1.00 26.69     0.045 A 
HETATM    3  CAX   D T3015      11.230   0.878  -1.438  1.00 27.38     0.117 A 
HETATM    4  CAJ   D T3015      10.591   1.474  -2.532  1.00 26.81     0.031 A 
HETATM    5  C5    D T3015       9.585   2.422  -2.331  1.00 27.31     0.056 A 
HETATM    6  C4    D T3015       9.231   2.777  -1.038  1.00 26.48     0.088 A 
HETATM    7  N3    D T3015       8.247   3.688  -0.839  1.00 27.11    -0.224 NA
HETATM    8  C2    D T3015       7.628   4.260  -1.868  1.00 26.78     0.200 A 
HETATM    9  N1    D T3015       7.965   3.971  -3.120  1.00 25.67    -0.205 NA
HETATM   10  C6    D T3015       8.917   3.063  -3.401  1.00 27.45     0.166 A 
ENDROOT
BRANCH   1  11
HETATM   11  OAT   D T3015      11.502   0.602   0.867  1.00 28.48    -0.329 OA
BRANCH  11  12
HETATM   12  CAO   D T3015      10.727  -0.195   1.742  1.00 34.10     0.149 C 
BRANCH  12  13
HETATM   13  CBC   D T3015      11.262  -1.598   1.490  1.00 37.94     0.034 C 
HETATM   14  CAK   D T3015      10.132  -2.610   1.530  1.00 39.50     0.038 C 
HETATM   15  CAM   D T3015      10.645  -4.005   1.161  1.00 42.92     0.250 C 
HETATM   16  NBD   D T3015      11.824  -4.430   1.957  1.00 44.82     0.139 N 
HETATM   17  CAB   D T3015      12.493  -5.440   1.111  1.00 45.53     0.285 C 
HETATM   18  CAN   D T3015      12.857  -3.386   2.246  1.00 44.14     0.250 C 
HETATM   19  CAL   D T3015      12.265  -2.011   2.567  1.00 40.98     0.038 C 
ENDBRANCH  12  13
ENDBRANCH  11  12
ENDBRANCH   1  11
BRANCH   3  20
HETATM   20  OAS   D T3015      12.231  -0.076  -1.536  1.00 27.35    -0.326 OA
HETATM   21  CAA   D T3015      12.344  -0.853  -2.750  1.00 26.97     0.181 C 
ENDBRANCH   3  20
BRANCH  10  22
HETATM   22  NAR   D T3015       9.239   2.762  -4.767  1.00 28.41    -0.224 NA
BRANCH  22  23
HETATM   23  CAW   D T3015       8.389   3.153  -5.826  1.00 30.70     0.110 A 
HETATM   24  CAF   D T3015       8.615   4.335  -6.513  1.00 30.33     0.022 A 
HETATM   25  CAE   D T3015       7.747   4.710  -7.532  1.00 31.71     0.008 A 
HETATM   26  CAU   D T3015       6.667   3.880  -7.842  1.00 32.99     0.037 A 
HETATM   27 BR     D T3015       5.386   4.211  -9.218  1.00 41.09    -0.049 Br
HETATM   28  CAH   D T3015       6.453   2.719  -7.151  1.00 31.01     0.038 A 
HETATM   29  CAV   D T3015       7.300   2.361  -6.160  1.00 32.00     0.158 A 
HETATM   30  FAC   D T3015       6.995   1.217  -5.541  1.00 33.90    -0.203 F 
ENDBRANCH  22  23
ENDBRANCH  10  22
TORSDOF 6
ENDMDL
MODEL 2
REMARK VINA RESULT:    -8.219      3.830      8.966
REMARK INTER + INTRA:         -12.030
REMARK INTER:                 -10.973
REMARK INTRA:                  -1.057
REMARK UNBOUND:                -0.928
REMARK  6 active torsions:
REMARK  status: ('A' for Active; 'I' for Inactive)
REMARK    1  A    between atoms: CBC_7  and  CAO_8 
REMARK    2  A    between atoms: CAO_8  and  OAT_9 
REMARK    3  A    between atoms: OAT_9  and  CAY_10 
REMARK    4  A    between atoms: CAX_12  and  OAS_13 
REMARK    5  A    between atoms: C6_21  and  NAR_22 
REMARK    6  A    between atoms: NAR_22  and  CAW_23 
ROOT
HETATM    1  CAY   D T3015       8.618   2.083  -4.245  1.00 27.56     0.118 A 
HETATM    2  CAI   D T3015       8.061   2.788  -3.192  1.00 26.69     0.045 A 
HETATM    3  CAX   D T3015       9.757   1.325  -4.047  1.00 27.38     0.117 A 
HETATM    4  CAJ   D T3015      10.344   1.288  -2.776  1.00 26.81     0.031 A 
HETATM    5  C5    D T3015       9.783   2.005  -1.717  1.00 27.31     0.056 A 
HETATM    6  C4    D T3015       8.631   2.747  -1.931  1.00 26.48     0.088 A 
HETATM    7  N3    D T3015       8.091   3.454  -0.908  1.00 27.11    -0.224 NA
HETATM    8  C2    D T3015       8.640   3.430   0.303  1.00 26.78     0.200 A 
HETATM    9  N1    D T3015       9.722   2.703   0.553  1.00 25.67    -0.205 NA
HETATM   10  C6    D T3015      10.330   1.991  -0.412  1.00 27.45     0.166 A 
ENDROOT
BRANCH   1  11
HETATM   11  OAT   D T3015       8.104   2.093  -5.510  1.00 28.48    -0.329 OA
BRANCH  11  12
HETATM   12  CAO   D T3015       6.935   1.333  -5.750  1.00 34.10     0.149 C 
BRANCH  12  13
HETATM   13  CBC   D T3015       6.218   2.140  -6.824  1.00 37.94     0.034 C 
HETATM   14  CAK   D T3015       6.171   1.363  -8.126  1.00 39.50     0.038 C 
HETATM   15  CAM   D T3015       5.349   2.119  -9.174  1.00 42.92     0.250 C 
HETATM   16  NBD   D T3015       5.783   3.527  -9.362  1.00 44.82     0.139 N 
HETATM   17  CAB   D T3015       4.589   4.210  -9.904  1.00 45.53     0.285 C 
HETATM   18  CAN   D T3015       6.167   4.286  -8.131  1.00 44.14     0.250 C 
HETATM   19  CAL   D T3015       6.952   3.450  -7.116  1.00 40.98     0.038 C 
ENDBRANCH  12  13
ENDBRANCH  11  12
ENDBRANCH   1  11
BRANCH   3  20
HETATM   20  OAS   D T3015      10.243   0.656  -5.158  1.00 27.35    -0.326 OA
HETATM   21  CAA   D T3015      11.673   0.521  -5.327  1.00 26.97     0.181 C 
ENDBRANCH   3  20
BRANCH  10  22
HETATM   22  NAR   D T3015      11.511   1.233  -0.108  1.00 28.41    -0.224 NA
BRANCH  22  23
HETATM   23  CAW   D T3015      11.441  -0.142   0.210  1.00 30.70     0.110 A 
HETATM   24  CAF   D T3015      10.737  -0.574   1.322  1.00 30.33     0.022 A 
HETATM   25  CAE   D T3015      10.709  -1.930   1.628  1.00 31.71     0.008 A 
HETATM   26  CAU   D T3015      11.390  -2.826   0.801  1.00 32.99     0.037 A 
HETATM   27 BR     D T3015      11.448  -4.719   1.043  1.00 41.09    -0.049 Br
HETATM   28  CAH   D T3015      12.087  -2.383  -0.290  1.00 31.01     0.038 A 
HETATM   29  CAV   D T3015      12.112  -1.063  -0.581  1.00 32.00     0.158 A 
HETATM   30  FAC   D T3015      12.829  -0.735  -1.659  1.00 33.90    -0.203 F 
ENDBRANCH  22  23
ENDBRANCH  10  22
TORSDOF 6
ENDMDL
MODEL 3
REMARK VINA RESULT:    -8.209      1.846      2.546
REMARK INTER + INTRA:         -12.017
REMARK INTER:                 -10.893
REMARK INTRA:                  -1.124
REMARK UNBOUND:                -0.928
REMARK  6 active torsions:
REMARK  status: ('A' for Active; 'I' for Inactive)
REMARK    1  A    between atoms: CBC_7  and  CAO_8 
REMARK    2  A    between atoms: CAO_8  and  OAT_9 
REMARK    3  A    between atoms: OAT_9  and  CAY_10 
REMARK    4  A    between atoms: CAX_12  and  OAS_13 
REMARK    5  A    between atoms: C6_21  and  NAR_22 
REMARK    6  A    between atoms: NAR_22  and  CAW_23 
ROOT
HETATM    1  CAY   D T3015      10.993   0.318  -3.427  1.00 27.56     0.118 A 
HETATM    2  CAI   D T3015      10.056   1.000  -2.670  1.00 26.69     0.045 A 
HETATM    3  CAX   D T3015      11.212   0.675  -4.745  1.00 27.38     0.117 A 
HETATM    4  CAJ   D T3015      10.472   1.723  -5.305  1.00 26.81     0.031 A 
HETATM    5  C5    D T3015       9.523   2.405  -4.539  1.00 27.31     0.056 A 
HETATM    6  C4    D T3015       9.328   2.044  -3.215  1.00 26.48     0.088 A 
HETATM    7  N3    D T3015       8.399   2.697  -2.473  1.00 27.11    -0.224 NA
HETATM    8  C2    D T3015       7.687   3.691  -2.993  1.00 26.78     0.200 A 
HETATM    9  N1    D T3015       7.872   4.088  -4.247  1.00 25.67    -0.205 NA
HETATM   10  C6    D T3015       8.758   3.479  -5.054  1.00 27.45     0.166 A 
ENDROOT
BRANCH   1  11
HETATM   11  OAT   D T3015      11.733  -0.724  -2.945  1.00 28.48    -0.329 OA
BRANCH  11  12
HETATM   12  CAO   D T3015      12.573  -0.473  -1.835  1.00 34.10     0.149 C 
BRANCH  12  13
HETATM   13  CBC   D T3015      12.581  -1.810  -1.106  1.00 37.94     0.034 C 
HETATM   14  CAK   D T3015      11.911  -2.878  -1.950  1.00 39.50     0.038 C 
HETATM   15  CAM   D T3015      12.021  -4.247  -1.274  1.00 42.92     0.250 C 
HETATM   16  NBD   D T3015      11.550  -4.250   0.134  1.00 44.82     0.139 N 
HETATM   17  CAB   D T3015      12.248  -5.396   0.753  1.00 45.53     0.285 C 
HETATM   18  CAN   D T3015      11.899  -3.057   0.967  1.00 44.14     0.250 C 
HETATM   19  CAL   D T3015      11.802  -1.731   0.208  1.00 40.98     0.038 C 
ENDBRANCH  12  13
ENDBRANCH  11  12
ENDBRANCH   1  11
BRANCH   3  20
HETATM   20  OAS   D T3015      12.167  -0.065  -5.424  1.00 27.35    -0.326 OA
HETATM   21  CAA   D T3015      12.806   0.511  -6.586  1.00 26.97     0.181 C 
ENDBRANCH   3  20
BRANCH  10  22
HETATM   22  NAR   D T3015       8.916   3.923  -6.410  1.00 28.41    -0.224 NA
BRANCH  22  23
HETATM   23  CAW   D T3015       7.803   4.074  -7.268  1.00 30.70     0.110 A 
HETATM   24  CAF   D T3015       7.446   5.324  -7.745  1.00 30.33     0.022 A 
HETATM   25  CAE   D T3015       6.329   5.449  -8.565  1.00 31.71     0.008 A 
HETATM   26  CAU   D T3015       5.597   4.305  -8.892  1.00 32.99     0.037 A 
HETATM   27 BR     D T3015       4.055   4.270 -10.017  1.00 41.09    -0.049 Br
HETATM   28  CAH   D T3015       5.959   3.078  -8.407  1.00 31.01     0.038 A 
HETATM   29  CAV   D T3015       7.045   2.964  -7.609  1.00 32.00     0.158 A 
HETATM   30  FAC   D T3015       7.304   1.726  -7.181  1.00 33.90    -0.203 F 
ENDBRANCH  22  23
ENDBRANCH  10  22
TORSDOF 6
ENDMDL
MODEL 4
REMARK VINA RESULT:    -7.999      1.393      2.497
REMARK INTER + INTRA:         -11.732
REMARK INTER:                 -10.968
REMARK INTRA:                  -0.764
REMARK UNBOUND:                -0.928
REMARK  6 active torsions:
REMARK  status: ('A' for Active; 'I' for Inactive)
REMARK    1  A    between atoms: CBC_7  and  CAO_8 
REMARK    2  A    between atoms: CAO_8  and  OAT_9 
REMARK    3  A    between atoms: OAT_9  and  CAY_10 
REMARK    4  A    between atoms: CAX_12  and  OAS_13 
REMARK    5  A    between atoms: C6_21  and  NAR_22 
REMARK    6  A    between atoms: NAR_22  and  CAW_23 
ROOT
HETATM    1  CAY   D T3015      11.276   1.753  -0.250  1.00 27.56     0.118 A 
HETATM    2  CAI   D T3015      11.437   0.889  -1.319  1.00 26.69     0.045 A 
HETATM    3  CAX   D T3015      10.573   2.932  -0.411  1.00 27.38     0.117 A 
HETATM    4  CAJ   D T3015      10.037   3.246  -1.666  1.00 26.81     0.031 A 
HETATM    5  C5    D T3015      10.207   2.374  -2.744  1.00 27.31     0.056 A 
HETATM    6  C4    D T3015      10.901   1.188  -2.560  1.00 26.48     0.088 A 
HETATM    7  N3    D T3015      11.078   0.346  -3.607  1.00 27.11    -0.224 NA
HETATM    8  C2    D T3015      10.577   0.633  -4.805  1.00 26.78     0.200 A 
HETATM    9  N1    D T3015       9.877   1.742  -5.010  1.00 25.67    -0.205 NA
HETATM   10  C6    D T3015       9.675   2.638  -4.029  1.00 27.45     0.166 A 
ENDROOT
BRANCH   1  11
HETATM   11  OAT   D T3015      11.789   1.513   0.993  1.00 28.48    -0.329 OA
BRANCH  11  12
HETATM   12  CAO   D T3015      10.980   0.805   1.912  1.00 34.10     0.149 C 
BRANCH  12  13
HETATM   13  CBC   D T3015      11.391  -0.643   1.682  1.00 37.94     0.034 C 
HETATM   14  CAK   D T3015      10.180  -1.555   1.757  1.00 39.50     0.038 C 
HETATM   15  CAM   D T3015      10.568  -2.995   1.411  1.00 42.92     0.250 C 
HETATM   16  NBD   D T3015      11.718  -3.503   2.201  1.00 44.82     0.139 N 
HETATM   17  CAB   D T3015      12.287  -4.583   1.368  1.00 45.53     0.285 C 
HETATM   18  CAN   D T3015      12.839  -2.545   2.456  1.00 44.14     0.250 C 
HETATM   19  CAL   D T3015      12.370  -1.119   2.756  1.00 40.98     0.038 C 
ENDBRANCH  12  13
ENDBRANCH  11  12
ENDBRANCH   1  11
BRANCH   3  20
HETATM   20  OAS   D T3015      10.465   3.735   0.713  1.00 27.35    -0.326 OA
HETATM   21  CAA   D T3015       9.182   4.316   1.041  1.00 26.97     0.181 C 
ENDBRANCH   3  20
BRANCH  10  22
HETATM   22  NAR   D T3015       8.930   3.836  -4.294  1.00 28.41    -0.224 NA
BRANCH  22  23
HETATM   23  CAW   D T3015       8.156   3.976  -5.468  1.00 30.70     0.110 A 
HETATM   24  CAF   D T3015       8.646   4.679  -6.557  1.00 30.33     0.022 A 
HETATM   25  CAE   D T3015       7.852   4.827  -7.688  1.00 31.71     0.008 A 
HETATM   26  CAU   D T3015       6.578   4.256  -7.702  1.00 32.99     0.037 A 
HETATM   27 BR     D T3015       5.354   4.330  -9.165  1.00 41.09    -0.049 Br
HETATM   28  CAH   D T3015       6.104   3.571  -6.616  1.00 31.01     0.038 A 
HETATM   29  CAV   D T3015       6.881   3.432  -5.518  1.00 32.00     0.158 A 
HETATM   30  FAC   D T3015       6.321   2.757  -4.511  1.00 33.90    -0.203 F 
ENDBRANCH  22  23
ENDBRANCH  10  22
TORSDOF 6
ENDMDL
MODEL 5
REMARK VINA RESULT:    -7.826      4.338      9.273
REMARK INTER + INTRA:         -11.499
REMARK INTER:                 -10.492
REMARK INTRA:                  -1.008
REMARK UNBOUND:                -0.928
REMARK  6 active torsions:
REMARK  status: ('A' for Active; 'I' for Inactive)
REMARK    1  A    between atoms: CBC_7  and  CAO_8 
REMARK    2  A    between atoms: CAO_8  and  OAT_9 
REMARK    3  A    between atoms: OAT_9  and  CAY_10 
REMARK    4  A    between atoms: CAX_12  and  OAS_13 
REMARK    5  A    between atoms: C6_21  and  NAR_22 
REMARK    6  A    between atoms: NAR_22  and  CAW_23 
ROOT
HETATM    1  CAY   D T3015       9.103   3.669  -2.762  1.00 27.56     0.118 A 
HETATM    2  CAI   D T3015      10.333   4.148  -2.347  1.00 26.69     0.045 A 
HETATM    3  CAX   D T3015       8.472   2.667  -2.048  1.00 27.38     0.117 A 
HETATM    4  CAJ   D T3015       9.094   2.139  -0.910  1.00 26.81     0.031 A 
HETATM    5  C5    D T3015      10.338   2.621  -0.497  1.00 27.31     0.056 A 
HETATM    6  C4    D T3015      10.949   3.637  -1.217  1.00 26.48     0.088 A 
HETATM    7  N3    D T3015      12.162   4.100  -0.825  1.00 27.11    -0.224 NA
HETATM    8  C2    D T3015      12.766   3.604   0.251  1.00 26.78     0.200 A 
HETATM    9  N1    D T3015      12.195   2.656   0.984  1.00 25.67    -0.205 NA
HETATM   10  C6    D T3015      11.003   2.131   0.652  1.00 27.45     0.166 A 
ENDROOT
BRANCH   1  11
HETATM   11  OAT   D T3015       8.454   4.129  -3.872  1.00 28.48    -0.329 OA
BRANCH  11  12
HETATM   12  CAO   D T3015       9.242   4.497  -4.988  1.00 34.10     0.149 C 
BRANCH  12  13
HETATM   13  CBC   D T3015       8.345   4.149  -6.168  1.00 37.94     0.034 C 
HETATM   14  CAK   D T3015       8.086   5.381  -7.017  1.00 39.50     0.038 C 
HETATM   15  CAM   D T3015       7.283   5.013  -8.268  1.00 42.92     0.250 C 
HETATM   16  NBD   D T3015       6.044   4.250  -7.972  1.00 44.82     0.139 N 
HETATM   17  CAB   D T3015       5.757   3.516  -9.222  1.00 45.53     0.285 C 
HETATM   18  CAN   D T3015       6.130   3.212  -6.896  1.00 44.14     0.250 C 
HETATM   19  CAL   D T3015       6.982   3.641  -5.698  1.00 40.98     0.038 C 
ENDBRANCH  12  13
ENDBRANCH  11  12
ENDBRANCH   1  11
BRANCH   3  20
HETATM   20  OAS   D T3015       7.246   2.250  -2.540  1.00 27.35    -0.326 OA
HETATM   21  CAA   D T3015       7.169   1.002  -3.267  1.00 26.97     0.181 C 
ENDBRANCH   3  20
BRANCH  10  22
HETATM   22  NAR   D T3015      10.427   1.092   1.458  1.00 28.41    -0.224 NA
BRANCH  22  23
HETATM   23  CAW   D T3015      10.980  -0.208   1.488  1.00 30.70     0.110 A 
HETATM   24  CAF   D T3015      11.547  -0.759   0.350  1.00 30.33     0.022 A 
HETATM   25  CAE   D T3015      12.057  -2.052   0.399  1.00 31.71     0.008 A 
HETATM   26  CAU   D T3015      11.989  -2.762   1.599  1.00 32.99     0.037 A 
HETATM   27 BR     D T3015      12.654  -4.532   1.868  1.00 41.09    -0.049 Br
HETATM   28  CAH   D T3015      11.419  -2.208   2.712  1.00 31.01     0.038 A 
HETATM   29  CAV   D T3015      10.924  -0.951   2.657  1.00 32.00     0.158 A 
HETATM   30  FAC   D T3015      10.379  -0.508   3.794  1.00 33.90    -0.203 F 
ENDBRANCH  22  23
ENDBRANCH  10  22
TORSDOF 6
ENDMDL
MODEL 6
REMARK VINA RESULT:    -7.772      1.980      3.037
REMARK INTER + INTRA:         -11.426
REMARK INTER:                 -10.615
REMARK INTRA:                  -0.811
REMARK UNBOUND:                -0.928
REMARK  6 active torsions:
REMARK  status: ('A' for Active; 'I' for Inactive)
REMARK    1  A    between atoms: CBC_7  and  CAO_8 
REMARK    2  A    between atoms: CAO_8  and  OAT_9 
REMARK    3  A    between atoms: OAT_9  and  CAY_10 
REMARK    4  A    between atoms: CAX_12  and  OAS_13 
REMARK    5  A    between atoms: C6_21  and  NAR_22 
REMARK    6  A    between atoms: NAR_22  and  CAW_23 
ROOT
HETATM    1  CAY   D T3015      10.808   2.900  -0.995  1.00 27.56     0.118 A 
HETATM    2  CAI   D T3015      10.612   1.781  -1.786  1.00 26.69     0.045 A 
HETATM    3  CAX   D T3015      10.414   4.146  -1.448  1.00 27.38     0.117 A 
HETATM    4  CAJ   D T3015       9.827   4.263  -2.713  1.00 26.81     0.031 A 
HETATM    5  C5    D T3015       9.637   3.132  -3.511  1.00 27.31     0.056 A 
HETATM    6  C4    D T3015      10.023   1.889  -3.034  1.00 26.48     0.088 A 
HETATM    7  N3    D T3015       9.849   0.791  -3.810  1.00 27.11    -0.224 NA
HETATM    8  C2    D T3015       9.297   0.888  -5.016  1.00 26.78     0.200 A 
HETATM    9  N1    D T3015       8.883   2.057  -5.490  1.00 25.67    -0.205 NA
HETATM   10  C6    D T3015       9.037   3.195  -4.791  1.00 27.45     0.166 A 
ENDROOT
BRANCH   1  11
HETATM   11  OAT   D T3015      11.390   2.855   0.239  1.00 28.48    -0.329 OA
BRANCH  11  12
HETATM   12  CAO   D T3015      10.599   2.405   1.322  1.00 34.10     0.149 C 
BRANCH  12  13
HETATM   13  CBC   D T3015      11.081   0.975   1.525  1.00 37.94     0.034 C 
HETATM   14  CAK   D T3015       9.901   0.023   1.594  1.00 39.50     0.038 C 
HETATM   15  CAM   D T3015      10.384  -1.427   1.681  1.00 42.92     0.250 C 
HETATM   16  NBD   D T3015      11.370  -1.658   2.766  1.00 44.82     0.139 N 
HETATM   17  CAB   D T3015      12.116  -2.859   2.334  1.00 45.53     0.285 C 
HETATM   18  CAN   D T3015      12.398  -0.592   2.984  1.00 44.14     0.250 C 
HETATM   19  CAL   D T3015      11.845   0.829   2.842  1.00 40.98     0.038 C 
ENDBRANCH  12  13
ENDBRANCH  11  12
ENDBRANCH   1  11
BRANCH   3  20
HETATM   20  OAS   D T3015      10.652   5.208  -0.589  1.00 27.35    -0.326 OA
HETATM   21  CAA   D T3015       9.528   5.927  -0.033  1.00 26.97     0.181 C 
ENDBRANCH   3  20
BRANCH  10  22
HETATM   22  NAR   D T3015       8.595   4.443  -5.346  1.00 28.41    -0.224 NA
BRANCH  22  23
HETATM   23  CAW   D T3015       7.705   4.486  -6.443  1.00 30.70     0.110 A 
HETATM   24  CAF   D T3015       8.129   4.953  -7.677  1.00 30.33     0.022 A 
HETATM   25  CAE   D T3015       7.225   5.013  -8.732  1.00 31.71     0.008 A 
HETATM   26  CAU   D T3015       5.909   4.595  -8.521  1.00 32.99     0.037 A 
HETATM   27 BR     D T3015       4.535   4.579  -9.846  1.00 41.09    -0.049 Br
HETATM   28  CAH   D T3015       5.504   4.143  -7.295  1.00 31.01     0.038 A 
HETATM   29  CAV   D T3015       6.387   4.089  -6.273  1.00 32.00     0.158 A 
HETATM   30  FAC   D T3015       5.888   3.645  -5.116  1.00 33.90    -0.203 F 
ENDBRANCH  22  23
ENDBRANCH  10  22
TORSDOF 6
ENDMDL
MODEL 7
REMARK VINA RESULT:    -7.687      1.724      2.458
REMARK INTER + INTRA:         -11.311
REMARK INTER:                 -10.514
REMARK INTRA:                  -0.797
REMARK UNBOUND:                -0.928
REMARK  6 active torsions:
REMARK  status: ('A' for Active; 'I' for Inactive)
REMARK    1  A    between atoms: CBC_7  and  CAO_8 
REMARK    2  A    between atoms: CAO_8  and  OAT_9 
REMARK    3  A    between atoms: OAT_9  and  CAY_10 
REMARK    4  A    between atoms: CAX_12  and  OAS_13 
REMARK    5  A    between atoms: C6_21  and  NAR_22 
REMARK    6  A    between atoms: NAR_22  and  CAW_23 
ROOT
HETATM    1  CAY   D T3015      10.699   1.265  -2.332  1.00 27.56     0.118 A 
HETATM    2  CAI   D T3015       9.633   2.075  -1.984  1.00 26.69     0.045 A 
HETATM    3  CAX   D T3015      10.768   0.716  -3.599  1.00 27.38     0.117 A 
HETATM    4  CAJ   D T3015       9.746   0.981  -4.519  1.00 26.81     0.031 A 
HETATM    5  C5    D T3015       8.668   1.795  -4.162  1.00 27.31     0.056 A 
HETATM    6  C4    D T3015       8.624   2.349  -2.892  1.00 26.48     0.088 A 
HETATM    7  N3    D T3015       7.574   3.131  -2.538  1.00 27.11    -0.224 NA
HETATM    8  C2    D T3015       6.594   3.387  -3.400  1.00 26.78     0.200 A 
HETATM    9  N1    D T3015       6.621   2.903  -4.636  1.00 25.67    -0.205 NA
HETATM   10  C6    D T3015       7.617   2.104  -5.058  1.00 27.45     0.166 A 
ENDROOT
BRANCH   1  11
HETATM   11  OAT   D T3015      11.717   0.954  -1.476  1.00 28.48    -0.329 OA
BRANCH  11  12
HETATM   12  CAO   D T3015      11.444   0.996  -0.089  1.00 34.10     0.149 C 
BRANCH  12  13
HETATM   13  CBC   D T3015      11.149  -0.459   0.246  1.00 37.94     0.034 C 
HETATM   14  CAK   D T3015      11.174  -0.672   1.748  1.00 39.50     0.038 C 
HETATM   15  CAM   D T3015      10.763  -2.106   2.096  1.00 42.92     0.250 C 
HETATM   16  NBD   D T3015      11.537  -3.137   1.359  1.00 44.82     0.139 N 
HETATM   17  CAB   D T3015      10.658  -4.326   1.359  1.00 45.53     0.285 C 
HETATM   18  CAN   D T3015      11.844  -2.853  -0.079  1.00 44.14     0.250 C 
HETATM   19  CAL   D T3015      12.206  -1.390  -0.350  1.00 40.98     0.038 C 
ENDBRANCH  12  13
ENDBRANCH  11  12
ENDBRANCH   1  11
BRANCH   3  20
HETATM   20  OAS   D T3015      11.870  -0.084  -3.856  1.00 27.35    -0.326 OA
HETATM   21  CAA   D T3015      12.462  -0.061  -5.176  1.00 26.97     0.181 C 
ENDBRANCH   3  20
BRANCH  10  22
HETATM   22  NAR   D T3015       7.600   1.582  -6.394  1.00 28.41    -0.224 NA
BRANCH  22  23
HETATM   23  CAW   D T3015       6.779   2.149  -7.395  1.00 30.70     0.110 A 
HETATM   24  CAF   D T3015       5.825   1.381  -8.043  1.00 30.33     0.022 A 
HETATM   25  CAE   D T3015       5.051   1.956  -9.045  1.00 31.71     0.008 A 
HETATM   26  CAU   D T3015       5.251   3.299  -9.370  1.00 32.99     0.037 A 
HETATM   27 BR     D T3015       4.275   4.268 -10.693  1.00 41.09    -0.049 Br
HETATM   28  CAH   D T3015       6.203   4.043  -8.726  1.00 31.01     0.038 A 
HETATM   29  CAV   D T3015       6.953   3.477  -7.754  1.00 32.00     0.158 A 
HETATM   30  FAC   D T3015       7.860   4.285  -7.198  1.00 33.90    -0.203 F 
ENDBRANCH  22  23
ENDBRANCH  10  22
TORSDOF 6
ENDMDL
MODEL 8
REMARK VINA RESULT:    -7.514      5.204      8.034
REMARK INTER + INTRA:         -11.078
REMARK INTER:                  -9.860
REMARK INTRA:                  -1.218
REMARK UNBOUND:                -0.928
REMARK  6 active torsions:
REMARK  status: ('A' for Active; 'I' for Inactive)
REMARK    1  A    between atoms: CBC_7  and  CAO_8 
REMARK    2  A    between atoms: CAO_8  and  OAT_9 
REMARK    3  A    between atoms: OAT_9  and  CAY_10 
REMARK    4  A    between atoms: CAX_12  and  OAS_13 
REMARK    5  A    between atoms: C6_21  and  NAR_22 
REMARK    6  A    between atoms: NAR_22  and  CAW_23 
ROOT
HETATM    1  CAY   D T3015       9.919   2.497  -3.591  1.00 27.56     0.118 A 
HETATM    2  CAI   D T3015       9.821   2.253  -2.232  1.00 26.69     0.045 A 
HETATM    3  CAX   D T3015       9.820   3.789  -4.073  1.00 27.38     0.117 A 
HETATM    4  CAJ   D T3015       9.611   4.842  -3.175  1.00 26.81     0.031 A 
HETATM    5  C5    D T3015       9.507   4.592  -1.805  1.00 27.31     0.056 A 
HETATM    6  C4    D T3015       9.625   3.292  -1.338  1.00 26.48     0.088 A 
HETATM    7  N3    D T3015       9.513   3.044  -0.010  1.00 27.11    -0.224 NA
HETATM    8  C2    D T3015       9.310   4.035   0.854  1.00 26.78     0.200 A 
HETATM    9  N1    D T3015       9.228   5.296   0.447  1.00 25.67    -0.205 NA
HETATM   10  C6    D T3015       9.309   5.623  -0.855  1.00 27.45     0.166 A 
ENDROOT
BRANCH   1  11
HETATM   11  OAT   D T3015      10.104   1.512  -4.519  1.00 28.48    -0.329 OA
BRANCH  11  12
HETATM   12  CAO   D T3015       9.119   0.501  -4.608  1.00 34.10     0.149 C 
BRANCH  12  13
HETATM   13  CBC   D T3015       8.279   0.947  -5.797  1.00 37.94     0.034 C 
HETATM   14  CAK   D T3015       6.950   1.508  -5.326  1.00 39.50     0.038 C 
HETATM   15  CAM   D T3015       6.152   2.065  -6.508  1.00 42.92     0.250 C 
HETATM   16  NBD   D T3015       6.002   1.101  -7.627  1.00 44.82     0.139 N 
HETATM   17  CAB   D T3015       5.765   1.950  -8.814  1.00 45.53     0.285 C 
HETATM   18  CAN   D T3015       7.194   0.257  -7.957  1.00 44.14     0.250 C 
HETATM   19  CAL   D T3015       7.961  -0.228  -6.723  1.00 40.98     0.038 C 
ENDBRANCH  12  13
ENDBRANCH  11  12
ENDBRANCH   1  11
BRANCH   3  20
HETATM   20  OAS   D T3015       9.927   3.935  -5.447  1.00 27.35    -0.326 OA
HETATM   21  CAA   D T3015       8.885   4.638  -6.162  1.00 26.97     0.181 C 
ENDBRANCH   3  20
BRANCH  10  22
HETATM   22  NAR   D T3015       9.194   6.995  -1.258  1.00 28.41    -0.224 NA
BRANCH  22  23
HETATM   23  CAW   D T3015      10.282   7.889  -1.141  1.00 30.70     0.110 A 
HETATM   24  CAF   D T3015      11.583   7.416  -1.109  1.00 30.33     0.022 A 
HETATM   25  CAE   D T3015      12.634   8.316  -0.964  1.00 31.71     0.008 A 
HETATM   26  CAU   D T3015      12.350   9.679  -0.859  1.00 32.99     0.037 A 
HETATM   27 BR     D T3015      13.652  11.063  -0.679  1.00 41.09    -0.049 Br
HETATM   28  CAH   D T3015      11.058  10.131  -0.885  1.00 31.01     0.038 A 
HETATM   29  CAV   D T3015      10.041   9.250  -1.025  1.00 32.00     0.158 A 
HETATM   30  FAC   D T3015       8.821   9.792  -1.027  1.00 33.90    -0.203 F 
ENDBRANCH  22  23
ENDBRANCH  10  22
TORSDOF 6
ENDMDL
MODEL 9
REMARK VINA RESULT:    -7.507      4.554      6.184
REMARK INTER + INTRA:         -11.067
REMARK INTER:                 -10.271
REMARK INTRA:                  -0.797
REMARK UNBOUND:                -0.928
REMARK  6 active torsions:
REMARK  status: ('A' for Active; 'I' for Inactive)
REMARK    1  A    between atoms: CBC_7  and  CAO_8 
REMARK    2  A    between atoms: CAO_8  and  OAT_9 
REMARK    3  A    between atoms: OAT_9  and  CAY_10 
REMARK    4  A    between atoms: CAX_12  and  OAS_13 
REMARK    5  A    between atoms: C6_21  and  NAR_22 
REMARK    6  A    between atoms: NAR_22  and  CAW_23 
ROOT
HETATM    1  CAY   D T3015       9.386   4.635  -1.226  1.00 27.56     0.118 A 
HETATM    2  CAI   D T3015       8.721   3.421  -1.241  1.00 26.69     0.045 A 
HETATM    3  CAX   D T3015       9.684   5.276  -2.415  1.00 27.38     0.117 A 
HETATM    4  CAJ   D T3015       9.316   4.681  -3.627  1.00 26.81     0.031 A 
HETATM    5  C5    D T3015       8.651   3.453  -3.638  1.00 27.31     0.056 A 
HETATM    6  C4    D T3015       8.346   2.832  -2.436  1.00 26.48     0.088 A 
HETATM    7  N3    D T3015       7.710   1.635  -2.444  1.00 27.11    -0.224 NA
HETATM    8  C2    D T3015       7.358   1.056  -3.588  1.00 26.78     0.200 A 
HETATM    9  N1    D T3015       7.602   1.638  -4.756  1.00 25.67    -0.205 NA
HETATM   10  C6    D T3015       8.246   2.816  -4.835  1.00 27.45     0.166 A 
ENDROOT
BRANCH   1  11
HETATM   11  OAT   D T3015       9.787   5.258  -0.079  1.00 28.48    -0.329 OA
BRANCH  11  12
HETATM   12  CAO   D T3015       9.621   4.559   1.139  1.00 34.10     0.149 C 
BRANCH  12  13
HETATM   13  CBC   D T3015       9.473   5.681   2.158  1.00 37.94     0.034 C 
HETATM   14  CAK   D T3015      10.107   6.957   1.636  1.00 39.50     0.038 C 
HETATM   15  CAM   D T3015       9.859   8.117   2.604  1.00 42.92     0.250 C 
HETATM   16  NBD   D T3015      10.252   7.813   4.003  1.00 44.82     0.139 N 
HETATM   17  CAB   D T3015       9.437   8.735   4.822  1.00 45.53     0.285 C 
HETATM   18  CAN   D T3015       9.947   6.437   4.508  1.00 44.14     0.250 C 
HETATM   19  CAL   D T3015      10.184   5.338   3.468  1.00 40.98     0.038 C 
ENDBRANCH  12  13
ENDBRANCH  11  12
ENDBRANCH   1  11
BRANCH   3  20
HETATM   20  OAS   D T3015      10.353   6.485  -2.302  1.00 27.35    -0.326 OA
HETATM   21  CAA   D T3015       9.585   7.703  -2.166  1.00 26.97     0.181 C 
ENDBRANCH   3  20
BRANCH  10  22
HETATM   22  NAR   D T3015       8.510   3.404  -6.117  1.00 28.41    -0.224 NA
BRANCH  22  23
HETATM   23  CAW   D T3015       7.461   3.750  -6.998  1.00 30.70     0.110 A 
HETATM   24  CAF   D T3015       6.985   5.050  -7.053  1.00 30.33     0.022 A 
HETATM   25  CAE   D T3015       5.932   5.357  -7.907  1.00 31.71     0.008 A 
HETATM   26  CAU   D T3015       5.382   4.344  -8.696  1.00 32.99     0.037 A 
HETATM   27 BR     D T3015       3.954   4.574  -9.942  1.00 41.09    -0.049 Br
HETATM   28  CAH   D T3015       5.858   3.063  -8.626  1.00 31.01     0.038 A 
HETATM   29  CAV   D T3015       6.881   2.771  -7.792  1.00 32.00     0.158 A 
HETATM   30  FAC   D T3015       7.262   1.491  -7.791  1.00 33.90    -0.203 F 
ENDBRANCH  22  23
ENDBRANCH  10  22
TORSDOF 6
ENDMDL
