MODEL 1
REMARK VINA RESULT:    -7.898      0.000      0.000
REMARK INTER + INTRA:         -11.286
REMARK INTER:                 -10.668
REMARK INTRA:                  -0.617
REMARK UNBOUND:                -0.617
REMARK  6 active torsions:
REMARK  status: ('A' for Active; 'I' for Inactive)
REMARK    1  A    between atoms: CBC_7  and  CAO_8 
REMARK    2  A    between atoms: CAO_8  and  OAT_9 
REMARK    3  A    between atoms: OAT_9  and  CAY_10 
REMARK    4  A    between atoms: CAX_12  and  OAS_13 
REMARK    5  A    between atoms: C6_21  and  NAR_22 
REMARK    6  A    between atoms: NAR_22  and  CAW_23 
ROOT
HETATM    1  CAY   D T3015       9.528  -1.767  -3.870  1.00 27.56     0.118 A 
HETATM    2  CAI   D T3015       9.730  -1.227  -2.612  1.00 26.69     0.045 A 
HETATM    3  CAX   D T3015       9.672  -3.128  -4.072  1.00 27.38     0.117 A 
HETATM    4  CAJ   D T3015      10.032  -3.948  -2.997  1.00 26.81     0.031 A 
HETATM    5  C5    D T3015      10.240  -3.398  -1.729  1.00 27.31     0.056 A 
HETATM    6  C4    D T3015      10.077  -2.034  -1.541  1.00 26.48     0.088 A 
HETATM    7  N3    D T3015      10.290  -1.496  -0.315  1.00 27.11    -0.224 NA
HETATM    8  C2    D T3015      10.636  -2.262   0.715  1.00 26.78     0.200 A 
HETATM    9  N1    D T3015      10.768  -3.577   0.580  1.00 25.67    -0.205 NA
HETATM   10  C6    D T3015      10.594  -4.185  -0.606  1.00 27.45     0.166 A 
ENDROOT
BRANCH   1  11
HETATM   11  OAT   D T3015       9.194  -1.020  -4.963  1.00 28.48    -0.329 OA
BRANCH  11  12
HETATM   12  CAO   D T3015       7.836  -0.655  -5.118  1.00 34.10     0.149 C 
BRANCH  12  13
HETATM   13  CBC   D T3015       7.924   0.683  -5.840  1.00 37.94     0.034 C 
HETATM   14  CAK   D T3015       7.521   0.528  -7.294  1.00 39.50     0.038 C 
HETATM   15  CAM   D T3015       7.493   1.890  -7.994  1.00 42.92     0.250 C 
HETATM   16  NBD   D T3015       8.748   2.666  -7.828  1.00 44.82     0.139 N 
HETATM   17  CAB   D T3015       8.339   4.072  -8.025  1.00 45.53     0.285 C 
HETATM   18  CAN   D T3015       9.402   2.612  -6.482  1.00 44.14     0.250 C 
HETATM   19  CAL   D T3015       9.354   1.226  -5.833  1.00 40.98     0.038 C 
ENDBRANCH  12  13
ENDBRANCH  11  12
ENDBRANCH   1  11
BRANCH   3  20
HETATM   20  OAS   D T3015       9.452  -3.578  -5.365  1.00 27.35    -0.326 OA
HETATM   21  CAA   D T3015       9.952  -4.878  -5.751  1.00 26.97     0.181 C 
ENDBRANCH   3  20
BRANCH  10  22
HETATM   22  NAR   D T3015      10.764  -5.605  -0.716  1.00 28.41    -0.224 NA
BRANCH  22  23
HETATM   23  CAW   D T3015       9.685  -6.453  -1.051  1.00 30.70     0.110 A 
HETATM   24  CAF   D T3015       9.844  -7.460  -1.988  1.00 30.33     0.022 A 
HETATM   25  CAE   D T3015       8.757  -8.262  -2.320  1.00 31.71     0.008 A 
HETATM   26  CAU   D T3015       7.530  -8.034  -1.693  1.00 32.99     0.037 A 
HETATM   27 BR     D T3015       5.936  -9.040  -1.997  1.00 41.09    -0.049 Br
HETATM   28  CAH   D T3015       7.388  -7.030  -0.774  1.00 31.01     0.038 A 
HETATM   29  CAV   D T3015       8.447  -6.254  -0.457  1.00 32.00     0.158 A 
HETATM   30  FAC   D T3015       8.199  -5.297   0.441  1.00 33.90    -0.203 F 
ENDBRANCH  22  23
ENDBRANCH  10  22
TORSDOF 6
ENDMDL
MODEL 2
REMARK VINA RESULT:    -7.700      2.436      3.005
REMARK INTER + INTRA:         -11.018
REMARK INTER:                  -9.966
REMARK INTRA:                  -1.053
REMARK UNBOUND:                -0.617
REMARK  6 active torsions:
REMARK  status: ('A' for Active; 'I' for Inactive)
REMARK    1  A    between atoms: CBC_7  and  CAO_8 
REMARK    2  A    between atoms: CAO_8  and  OAT_9 
REMARK    3  A    between atoms: OAT_9  and  CAY_10 
REMARK    4  A    between atoms: CAX_12  and  OAS_13 
REMARK    5  A    between atoms: C6_21  and  NAR_22 
REMARK    6  A    between atoms: NAR_22  and  CAW_23 
ROOT
HETATM    1  CAY   D T3015      10.419  -0.766  -3.205  1.00 27.56     0.118 A 
HETATM    2  CAI   D T3015      11.748  -0.953  -2.865  1.00 26.69     0.045 A 
HETATM    3  CAX   D T3015       9.419  -1.166  -2.338  1.00 27.38     0.117 A 
HETATM    4  CAJ   D T3015       9.763  -1.769  -1.123  1.00 26.81     0.031 A 
HETATM    5  C5    D T3015      11.105  -1.961  -0.786  1.00 27.31     0.056 A 
HETATM    6  C4    D T3015      12.095  -1.541  -1.660  1.00 26.48     0.088 A 
HETATM    7  N3    D T3015      13.399  -1.736  -1.340  1.00 27.11    -0.224 NA
HETATM    8  C2    D T3015      13.740  -2.311  -0.191  1.00 26.78     0.200 A 
HETATM    9  N1    D T3015      12.819  -2.695   0.686  1.00 25.67    -0.205 NA
HETATM   10  C6    D T3015      11.506  -2.554   0.436  1.00 27.45     0.166 A 
ENDROOT
BRANCH   1  11
HETATM   11  OAT   D T3015      10.018  -0.203  -4.382  1.00 28.48    -0.329 OA
BRANCH  11  12
HETATM   12  CAO   D T3015      10.090   1.206  -4.493  1.00 34.10     0.149 C 
BRANCH  12  13
HETATM   13  CBC   D T3015       9.033   1.520  -5.543  1.00 37.94     0.034 C 
HETATM   14  CAK   D T3015       8.469   0.237  -6.126  1.00 39.50     0.038 C 
HETATM   15  CAM   D T3015       7.324   0.544  -7.095  1.00 42.92     0.250 C 
HETATM   16  NBD   D T3015       7.682   1.539  -8.139  1.00 44.82     0.139 N 
HETATM   17  CAB   D T3015       6.387   2.116  -8.556  1.00 45.53     0.285 C 
HETATM   18  CAN   D T3015       8.529   2.696  -7.707  1.00 44.14     0.250 C 
HETATM   19  CAL   D T3015       9.626   2.313  -6.709  1.00 40.98     0.038 C 
ENDBRANCH  12  13
ENDBRANCH  11  12
ENDBRANCH   1  11
BRANCH   3  20
HETATM   20  OAS   D T3015       8.119  -0.940  -2.765  1.00 27.35    -0.326 OA
HETATM   21  CAA   D T3015       7.292  -2.071  -3.125  1.00 26.97     0.181 C 
ENDBRANCH   3  20
BRANCH  10  22
HETATM   22  NAR   D T3015      10.542  -3.000   1.399  1.00 28.41    -0.224 NA
BRANCH  22  23
HETATM   23  CAW   D T3015      10.210  -4.367   1.532  1.00 30.70     0.110 A 
HETATM   24  CAF   D T3015      10.206  -5.203   0.427  1.00 30.33     0.022 A 
HETATM   25  CAE   D T3015       9.848  -6.537   0.582  1.00 31.71     0.008 A 
HETATM   26  CAU   D T3015       9.507  -7.005   1.853  1.00 32.99     0.037 A 
HETATM   27 BR     D T3015       9.014  -8.802   2.268  1.00 41.09    -0.049 Br
HETATM   28  CAH   D T3015       9.510  -6.165   2.933  1.00 31.01     0.038 A 
HETATM   29  CAV   D T3015       9.856  -4.869   2.776  1.00 32.00     0.158 A 
HETATM   30  FAC   D T3015       9.815  -4.133   3.890  1.00 33.90    -0.203 F 
ENDBRANCH  22  23
ENDBRANCH  10  22
TORSDOF 6
ENDMDL
MODEL 3
REMARK VINA RESULT:    -7.685      4.307      9.196
REMARK INTER + INTRA:         -10.998
REMARK INTER:                 -10.038
REMARK INTRA:                  -0.961
REMARK UNBOUND:                -0.617
REMARK  6 active torsions:
REMARK  status: ('A' for Active; 'I' for Inactive)
REMARK    1  A    between atoms: CBC_7  and  CAO_8 
REMARK    2  A    between atoms: CAO_8  and  OAT_9 
REMARK    3  A    between atoms: OAT_9  and  CAY_10 
REMARK    4  A    between atoms: CAX_12  and  OAS_13 
REMARK    5  A    between atoms: C6_21  and  NAR_22 
REMARK    6  A    between atoms: NAR_22  and  CAW_23 
ROOT
HETATM    1  CAY   D T3015      10.377  -4.320  -0.909  1.00 27.56     0.118 A 
HETATM    2  CAI   D T3015      10.357  -4.956  -2.139  1.00 26.69     0.045 A 
HETATM    3  CAX   D T3015       9.732  -3.108  -0.745  1.00 27.38     0.117 A 
HETATM    4  CAJ   D T3015       9.069  -2.529  -1.834  1.00 26.81     0.031 A 
HETATM    5  C5    D T3015       9.056  -3.172  -3.075  1.00 27.31     0.056 A 
HETATM    6  C4    D T3015       9.695  -4.394  -3.217  1.00 26.48     0.088 A 
HETATM    7  N3    D T3015       9.694  -5.014  -4.423  1.00 27.11    -0.224 NA
HETATM    8  C2    D T3015       9.072  -4.475  -5.467  1.00 26.78     0.200 A 
HETATM    9  N1    D T3015       8.420  -3.322  -5.359  1.00 25.67    -0.205 NA
HETATM   10  C6    D T3015       8.390  -2.636  -4.203  1.00 27.45     0.166 A 
ENDROOT
BRANCH   1  11
HETATM   11  OAT   D T3015      11.021  -4.822   0.185  1.00 28.48    -0.329 OA
BRANCH  11  12
HETATM   12  CAO   D T3015      10.671  -6.125   0.612  1.00 34.10     0.149 C 
BRANCH  12  13
HETATM   13  CBC   D T3015       9.987  -5.874   1.948  1.00 37.94     0.034 C 
HETATM   14  CAK   D T3015      10.800  -4.903   2.785  1.00 39.50     0.038 C 
HETATM   15  CAM   D T3015      10.059  -4.556   4.080  1.00 42.92     0.250 C 
HETATM   16  NBD   D T3015       9.622  -5.749   4.849  1.00 44.82     0.139 N 
HETATM   17  CAB   D T3015       8.489  -5.264   5.666  1.00 45.53     0.285 C 
HETATM   18  CAN   D T3015       9.094  -6.906   4.060  1.00 44.14     0.250 C 
HETATM   19  CAL   D T3015       9.865  -7.164   2.761  1.00 40.98     0.038 C 
ENDBRANCH  12  13
ENDBRANCH  11  12
ENDBRANCH   1  11
BRANCH   3  20
HETATM   20  OAS   D T3015       9.808  -2.545   0.520  1.00 27.35    -0.326 OA
HETATM   21  CAA   D T3015      10.780  -1.504   0.767  1.00 26.97     0.181 C 
ENDBRANCH   3  20
BRANCH  10  22
HETATM   22  NAR   D T3015       7.692  -1.385  -4.131  1.00 28.41    -0.224 NA
BRANCH  22  23
HETATM   23  CAW   D T3015       8.082  -0.277  -4.917  1.00 30.70     0.110 A 
HETATM   24  CAF   D T3015       8.831   0.750  -4.366  1.00 30.33     0.022 A 
HETATM   25  CAE   D T3015       9.177   1.842  -5.155  1.00 31.71     0.008 A 
HETATM   26  CAU   D T3015       8.763   1.873  -6.489  1.00 32.99     0.037 A 
HETATM   27 BR     D T3015       9.157   3.269  -7.730  1.00 41.09    -0.049 Br
HETATM   28  CAH   D T3015       8.017   0.854  -7.016  1.00 31.01     0.038 A 
HETATM   29  CAV   D T3015       7.683  -0.203  -6.244  1.00 32.00     0.158 A 
HETATM   30  FAC   D T3015       6.945  -1.137  -6.850  1.00 33.90    -0.203 F 
ENDBRANCH  22  23
ENDBRANCH  10  22
TORSDOF 6
ENDMDL
MODEL 4
REMARK VINA RESULT:    -7.683      4.714      8.942
REMARK INTER + INTRA:         -10.995
REMARK INTER:                 -10.209
REMARK INTRA:                  -0.786
REMARK UNBOUND:                -0.617
REMARK  6 active torsions:
REMARK  status: ('A' for Active; 'I' for Inactive)
REMARK    1  A    between atoms: CBC_7  and  CAO_8 
REMARK    2  A    between atoms: CAO_8  and  OAT_9 
REMARK    3  A    between atoms: OAT_9  and  CAY_10 
REMARK    4  A    between atoms: CAX_12  and  OAS_13 
REMARK    5  A    between atoms: C6_21  and  NAR_22 
REMARK    6  A    between atoms: NAR_22  and  CAW_23 
ROOT
HETATM    1  CAY   D T3015      11.584  -2.122  -0.433  1.00 27.56     0.118 A 
HETATM    2  CAI   D T3015      10.205  -2.241  -0.467  1.00 26.69     0.045 A 
HETATM    3  CAX   D T3015      12.271  -1.699  -1.556  1.00 27.38     0.117 A 
HETATM    4  CAJ   D T3015      11.562  -1.403  -2.725  1.00 26.81     0.031 A 
HETATM    5  C5    D T3015      10.170  -1.530  -2.757  1.00 27.31     0.056 A 
HETATM    6  C4    D T3015       9.496  -1.941  -1.618  1.00 26.48     0.088 A 
HETATM    7  N3    D T3015       8.147  -2.076  -1.650  1.00 27.11    -0.224 NA
HETATM    8  C2    D T3015       7.460  -1.803  -2.754  1.00 26.78     0.200 A 
HETATM    9  N1    D T3015       8.069  -1.373  -3.854  1.00 25.67    -0.205 NA
HETATM   10  C6    D T3015       9.404  -1.232  -3.911  1.00 27.45     0.166 A 
ENDROOT
BRANCH   1  11
HETATM   11  OAT   D T3015      12.335  -2.412   0.669  1.00 28.48    -0.329 OA
BRANCH  11  12
HETATM   12  CAO   D T3015      11.766  -2.154   1.938  1.00 34.10     0.149 C 
BRANCH  12  13
HETATM   13  CBC   D T3015      12.883  -1.422   2.670  1.00 37.94     0.034 C 
HETATM   14  CAK   D T3015      12.482  -1.145   4.107  1.00 39.50     0.038 C 
HETATM   15  CAM   D T3015      13.645  -0.517   4.880  1.00 42.92     0.250 C 
HETATM   16  NBD   D T3015      14.227   0.674   4.208  1.00 44.82     0.139 N 
HETATM   17  CAB   D T3015      15.603   0.758   4.738  1.00 45.53     0.285 C 
HETATM   18  CAN   D T3015      14.362   0.610   2.718  1.00 44.14     0.250 C 
HETATM   19  CAL   D T3015      13.177  -0.067   2.024  1.00 40.98     0.038 C 
ENDBRANCH  12  13
ENDBRANCH  11  12
ENDBRANCH   1  11
BRANCH   3  20
HETATM   20  OAS   D T3015      13.649  -1.612  -1.429  1.00 27.35    -0.326 OA
HETATM   21  CAA   D T3015      14.269  -0.306  -1.383  1.00 26.97     0.181 C 
ENDBRANCH   3  20
BRANCH  10  22
HETATM   22  NAR   D T3015      10.027  -0.785  -5.123  1.00 28.41    -0.224 NA
BRANCH  22  23
HETATM   23  CAW   D T3015       9.558   0.354  -5.816  1.00 30.70     0.110 A 
HETATM   24  CAF   D T3015       8.326   0.335  -6.451  1.00 30.33     0.022 A 
HETATM   25  CAE   D T3015       7.901   1.459  -7.150  1.00 31.71     0.008 A 
HETATM   26  CAU   D T3015       8.727   2.585  -7.190  1.00 32.99     0.037 A 
HETATM   27 BR     D T3015       8.310   4.224  -8.075  1.00 41.09    -0.049 Br
HETATM   28  CAH   D T3015       9.944   2.585  -6.565  1.00 31.01     0.038 A 
HETATM   29  CAV   D T3015      10.352   1.488  -5.888  1.00 32.00     0.158 A 
HETATM   30  FAC   D T3015      11.559   1.587  -5.324  1.00 33.90    -0.203 F 
ENDBRANCH  22  23
ENDBRANCH  10  22
TORSDOF 6
ENDMDL
MODEL 5
REMARK VINA RESULT:    -7.459      4.362      9.619
REMARK INTER + INTRA:         -10.692
REMARK INTER:                  -9.694
REMARK INTRA:                  -0.998
REMARK UNBOUND:                -0.617
REMARK  6 active torsions:
REMARK  status: ('A' for Active; 'I' for Inactive)
REMARK    1  A    between atoms: CBC_7  and  CAO_8 
REMARK    2  A    between atoms: CAO_8  and  OAT_9 
REMARK    3  A    between atoms: OAT_9  and  CAY_10 
REMARK    4  A    between atoms: CAX_12  and  OAS_13 
REMARK    5  A    between atoms: C6_21  and  NAR_22 
REMARK    6  A    between atoms: NAR_22  and  CAW_23 
ROOT
HETATM    1  CAY   D T3015       9.680  -5.221  -0.368  1.00 27.56     0.118 A 
HETATM    2  CAI   D T3015       9.646  -5.621  -1.693  1.00 26.69     0.045 A 
HETATM    3  CAX   D T3015       9.853  -3.886  -0.052  1.00 27.38     0.117 A 
HETATM    4  CAJ   D T3015      10.003  -2.949  -1.081  1.00 26.81     0.031 A 
HETATM    5  C5    D T3015       9.973  -3.359  -2.417  1.00 27.31     0.056 A 
HETATM    6  C4    D T3015       9.785  -4.699  -2.716  1.00 26.48     0.088 A 
HETATM    7  N3    D T3015       9.767  -5.100  -4.011  1.00 27.11    -0.224 NA
HETATM    8  C2    D T3015       9.912  -4.223  -5.000  1.00 26.78     0.200 A 
HETATM    9  N1    D T3015      10.061  -2.926  -4.751  1.00 25.67    -0.205 NA
HETATM   10  C6    D T3015      10.108  -2.450  -3.495  1.00 27.45     0.166 A 
ENDROOT
BRANCH   1  11
HETATM   11  OAT   D T3015       9.559  -6.086   0.681  1.00 28.48    -0.329 OA
BRANCH  11  12
HETATM   12  CAO   D T3015      10.612  -7.006   0.897  1.00 34.10     0.149 C 
BRANCH  12  13
HETATM   13  CBC   D T3015      10.314  -7.544   2.290  1.00 37.94     0.034 C 
HETATM   14  CAK   D T3015       9.408  -8.758   2.206  1.00 39.50     0.038 C 
HETATM   15  CAM   D T3015       9.201  -9.373   3.593  1.00 42.92     0.250 C 
HETATM   16  NBD   D T3015       8.751  -8.391   4.614  1.00 44.82     0.139 N 
HETATM   17  CAB   D T3015       9.169  -8.985   5.902  1.00 45.53     0.285 C 
HETATM   18  CAN   D T3015       9.376  -7.031   4.565  1.00 44.14     0.250 C 
HETATM   19  CAL   D T3015       9.584  -6.505   3.142  1.00 40.98     0.038 C 
ENDBRANCH  12  13
ENDBRANCH  11  12
ENDBRANCH   1  11
BRANCH   3  20
HETATM   20  OAS   D T3015       9.876  -3.579   1.300  1.00 27.35    -0.326 OA
HETATM   21  CAA   D T3015      11.089  -3.043   1.878  1.00 26.97     0.181 C 
ENDBRANCH   3  20
BRANCH  10  22
HETATM   22  NAR   D T3015      10.290  -1.046  -3.267  1.00 28.41    -0.224 NA
BRANCH  22  23
HETATM   23  CAW   D T3015      10.035  -0.095  -4.281  1.00 30.70     0.110 A 
HETATM   24  CAF   D T3015      11.079   0.558  -4.915  1.00 30.33     0.022 A 
HETATM   25  CAE   D T3015      10.798   1.509  -5.889  1.00 31.71     0.008 A 
HETATM   26  CAU   D T3015       9.465   1.779  -6.209  1.00 32.99     0.037 A 
HETATM   27 BR     D T3015       8.882   3.028  -7.530  1.00 41.09    -0.049 Br
HETATM   28  CAH   D T3015       8.445   1.130  -5.569  1.00 31.01     0.038 A 
HETATM   29  CAV   D T3015       8.724   0.208  -4.622  1.00 32.00     0.158 A 
HETATM   30  FAC   D T3015       7.658  -0.359  -4.050  1.00 33.90    -0.203 F 
ENDBRANCH  22  23
ENDBRANCH  10  22
TORSDOF 6
ENDMDL
MODEL 6
REMARK VINA RESULT:    -7.013     17.915     19.792
REMARK INTER + INTRA:         -10.090
REMARK INTER:                  -9.148
REMARK INTRA:                  -0.943
REMARK UNBOUND:                -0.617
REMARK  6 active torsions:
REMARK  status: ('A' for Active; 'I' for Inactive)
REMARK    1  A    between atoms: CBC_7  and  CAO_8 
REMARK    2  A    between atoms: CAO_8  and  OAT_9 
REMARK    3  A    between atoms: OAT_9  and  CAY_10 
REMARK    4  A    between atoms: CAX_12  and  OAS_13 
REMARK    5  A    between atoms: C6_21  and  NAR_22 
REMARK    6  A    between atoms: NAR_22  and  CAW_23 
ROOT
HETATM    1  CAY   D T3015      -0.758   8.627 -15.282  1.00 27.56     0.118 A 
HETATM    2  CAI   D T3015       0.499   8.219 -15.693  1.00 26.69     0.045 A 
HETATM    3  CAX   D T3015      -0.893   9.449 -14.178  1.00 27.38     0.117 A 
HETATM    4  CAJ   D T3015       0.250   9.854 -13.478  1.00 26.81     0.031 A 
HETATM    5  C5    D T3015       1.517   9.434 -13.893  1.00 27.31     0.056 A 
HETATM    6  C4    D T3015       1.635   8.622 -15.010  1.00 26.48     0.088 A 
HETATM    7  N3    D T3015       2.862   8.204 -15.408  1.00 27.11    -0.224 NA
HETATM    8  C2    D T3015       3.956   8.577 -14.751  1.00 26.78     0.200 A 
HETATM    9  N1    D T3015       3.884   9.382 -13.697  1.00 25.67    -0.205 NA
HETATM   10  C6    D T3015       2.704   9.825 -13.228  1.00 27.45     0.166 A 
ENDROOT
BRANCH   1  11
HETATM   11  OAT   D T3015      -1.911   8.253 -15.908  1.00 28.48    -0.329 OA
BRANCH  11  12
HETATM   12  CAO   D T3015      -1.797   7.614 -17.166  1.00 34.10     0.149 C 
BRANCH  12  13
HETATM   13  CBC   D T3015      -2.281   6.200 -16.875  1.00 37.94     0.034 C 
HETATM   14  CAK   D T3015      -1.888   5.263 -18.001  1.00 39.50     0.038 C 
HETATM   15  CAM   D T3015      -2.268   3.820 -17.659  1.00 42.92     0.250 C 
HETATM   16  NBD   D T3015      -3.689   3.663 -17.254  1.00 44.82     0.139 N 
HETATM   17  CAB   D T3015      -3.703   2.429 -16.440  1.00 45.53     0.285 C 
HETATM   18  CAN   D T3015      -4.266   4.737 -16.384  1.00 44.14     0.250 C 
HETATM   19  CAL   D T3015      -3.806   6.146 -16.767  1.00 40.98     0.038 C 
ENDBRANCH  12  13
ENDBRANCH  11  12
ENDBRANCH   1  11
BRANCH   3  20
HETATM   20  OAS   D T3015      -2.190   9.806 -13.839  1.00 27.35    -0.326 OA
HETATM   21  CAA   D T3015      -2.519  10.018 -12.447  1.00 26.97     0.181 C 
ENDBRANCH   3  20
BRANCH  10  22
HETATM   22  NAR   D T3015       2.666  10.677 -12.074  1.00 28.41    -0.224 NA
BRANCH  22  23
HETATM   23  CAW   D T3015       3.534  11.785 -11.947  1.00 30.70     0.110 A 
HETATM   24  CAF   D T3015       3.629  12.726 -12.959  1.00 30.33     0.022 A 
HETATM   25  CAE   D T3015       4.512  13.790 -12.820  1.00 31.71     0.008 A 
HETATM   26  CAU   D T3015       5.281  13.887 -11.658  1.00 32.99     0.037 A 
HETATM   27 BR     D T3015       6.526  15.282 -11.275  1.00 41.09    -0.049 Br
HETATM   28  CAH   D T3015       5.181  12.945 -10.670  1.00 31.01     0.038 A 
HETATM   29  CAV   D T3015       4.322  11.912 -10.812  1.00 32.00     0.158 A 
HETATM   30  FAC   D T3015       4.309  11.042  -9.798  1.00 33.90    -0.203 F 
ENDBRANCH  22  23
ENDBRANCH  10  22
TORSDOF 6
ENDMDL
MODEL 7
REMARK VINA RESULT:    -6.991      2.376      3.023
REMARK INTER + INTRA:         -10.060
REMARK INTER:                  -9.425
REMARK INTRA:                  -0.635
REMARK UNBOUND:                -0.617
REMARK  6 active torsions:
REMARK  status: ('A' for Active; 'I' for Inactive)
REMARK    1  A    between atoms: CBC_7  and  CAO_8 
REMARK    2  A    between atoms: CAO_8  and  OAT_9 
REMARK    3  A    between atoms: OAT_9  and  CAY_10 
REMARK    4  A    between atoms: CAX_12  and  OAS_13 
REMARK    5  A    between atoms: C6_21  and  NAR_22 
REMARK    6  A    between atoms: NAR_22  and  CAW_23 
ROOT
HETATM    1  CAY   D T3015       9.940  -0.732  -4.592  1.00 27.56     0.118 A 
HETATM    2  CAI   D T3015      11.085  -0.678  -3.815  1.00 26.69     0.045 A 
HETATM    3  CAX   D T3015       8.901  -1.573  -4.237  1.00 27.38     0.117 A 
HETATM    4  CAJ   D T3015       9.023  -2.372  -3.095  1.00 26.81     0.031 A 
HETATM    5  C5    D T3015      10.182  -2.318  -2.316  1.00 27.31     0.056 A 
HETATM    6  C4    D T3015      11.208  -1.459  -2.678  1.00 26.48     0.088 A 
HETATM    7  N3    D T3015      12.339  -1.413  -1.931  1.00 27.11    -0.224 NA
HETATM    8  C2    D T3015      12.470  -2.168  -0.845  1.00 26.78     0.200 A 
HETATM    9  N1    D T3015      11.494  -2.978  -0.449  1.00 25.67    -0.205 NA
HETATM   10  C6    D T3015      10.350  -3.096  -1.145  1.00 27.45     0.166 A 
ENDROOT
BRANCH   1  11
HETATM   11  OAT   D T3015       9.768   0.006  -5.727  1.00 28.48    -0.329 OA
BRANCH  11  12
HETATM   12  CAO   D T3015       9.817   1.415  -5.607  1.00 34.10     0.149 C 
BRANCH  12  13
HETATM   13  CBC   D T3015       8.600   1.867  -6.402  1.00 37.94     0.034 C 
HETATM   14  CAK   D T3015       8.026   0.709  -7.197  1.00 39.50     0.038 C 
HETATM   15  CAM   D T3015       6.735   1.129  -7.905  1.00 42.92     0.250 C 
HETATM   16  NBD   D T3015       6.880   2.364  -8.717  1.00 44.82     0.139 N 
HETATM   17  CAB   D T3015       5.508   2.906  -8.809  1.00 45.53     0.285 C 
HETATM   18  CAN   D T3015       7.717   3.461  -8.135  1.00 44.14     0.250 C 
HETATM   19  CAL   D T3015       8.969   2.956  -7.411  1.00 40.98     0.038 C 
ENDBRANCH  12  13
ENDBRANCH  11  12
ENDBRANCH   1  11
BRANCH   3  20
HETATM   20  OAS   D T3015       7.797  -1.563  -5.076  1.00 27.35    -0.326 OA
HETATM   21  CAA   D T3015       7.353  -2.806  -5.667  1.00 26.97     0.181 C 
ENDBRANCH   3  20
BRANCH  10  22
HETATM   22  NAR   D T3015       9.328  -3.996  -0.696  1.00 28.41    -0.224 NA
BRANCH  22  23
HETATM   23  CAW   D T3015       9.466  -4.727   0.506  1.00 30.70     0.110 A 
HETATM   24  CAF   D T3015       9.367  -4.092   1.733  1.00 30.33     0.022 A 
HETATM   25  CAE   D T3015       9.535  -4.830   2.899  1.00 31.71     0.008 A 
HETATM   26  CAU   D T3015       9.794  -6.200   2.804  1.00 32.99     0.037 A 
HETATM   27 BR     D T3015      10.030  -7.380   4.285  1.00 41.09    -0.049 Br
HETATM   28  CAH   D T3015       9.896  -6.811   1.584  1.00 31.01     0.038 A 
HETATM   29  CAV   D T3015       9.733  -6.087   0.454  1.00 32.00     0.158 A 
HETATM   30  FAC   D T3015       9.864  -6.776  -0.683  1.00 33.90    -0.203 F 
ENDBRANCH  22  23
ENDBRANCH  10  22
TORSDOF 6
ENDMDL
MODEL 8
REMARK VINA RESULT:    -6.791      2.923      4.232
REMARK INTER + INTRA:          -9.790
REMARK INTER:                  -8.857
REMARK INTRA:                  -0.933
REMARK UNBOUND:                -0.617
REMARK  6 active torsions:
REMARK  status: ('A' for Active; 'I' for Inactive)
REMARK    1  A    between atoms: CBC_7  and  CAO_8 
REMARK    2  A    between atoms: CAO_8  and  OAT_9 
REMARK    3  A    between atoms: OAT_9  and  CAY_10 
REMARK    4  A    between atoms: CAX_12  and  OAS_13 
REMARK    5  A    between atoms: C6_21  and  NAR_22 
REMARK    6  A    between atoms: NAR_22  and  CAW_23 
ROOT
HETATM    1  CAY   D T3015      10.080  -3.317  -2.983  1.00 27.56     0.118 A 
HETATM    2  CAI   D T3015       9.571  -4.571  -3.276  1.00 26.69     0.045 A 
HETATM    3  CAX   D T3015      10.761  -3.105  -1.799  1.00 27.38     0.117 A 
HETATM    4  CAJ   D T3015      10.923  -4.165  -0.899  1.00 26.81     0.031 A 
HETATM    5  C5    D T3015      10.404  -5.428  -1.197  1.00 27.31     0.056 A 
HETATM    6  C4    D T3015       9.735  -5.626  -2.395  1.00 26.48     0.088 A 
HETATM    7  N3    D T3015       9.220  -6.847  -2.681  1.00 27.11    -0.224 NA
HETATM    8  C2    D T3015       9.363  -7.863  -1.835  1.00 26.78     0.200 A 
HETATM    9  N1    D T3015      10.026  -7.719  -0.694  1.00 25.67    -0.205 NA
HETATM   10  C6    D T3015      10.550  -6.536  -0.328  1.00 27.45     0.166 A 
ENDROOT
BRANCH   1  11
HETATM   11  OAT   D T3015       9.940  -2.238  -3.808  1.00 28.48    -0.329 OA
BRANCH  11  12
HETATM   12  CAO   D T3015       8.643  -1.691  -3.958  1.00 34.10     0.149 C 
BRANCH  12  13
HETATM   13  CBC   D T3015       8.868  -0.546  -4.937  1.00 37.94     0.034 C 
HETATM   14  CAK   D T3015       8.898   0.781  -4.202  1.00 39.50     0.038 C 
HETATM   15  CAM   D T3015       9.240   1.922  -5.164  1.00 42.92     0.250 C 
HETATM   16  NBD   D T3015       8.377   1.956  -6.372  1.00 44.82     0.139 N 
HETATM   17  CAB   D T3015       9.187   2.672  -7.380  1.00 45.53     0.285 C 
HETATM   18  CAN   D T3015       8.025   0.638  -6.988  1.00 44.14     0.250 C 
HETATM   19  CAL   D T3015       7.734  -0.460  -5.960  1.00 40.98     0.038 C 
ENDBRANCH  12  13
ENDBRANCH  11  12
ENDBRANCH   1  11
BRANCH   3  20
HETATM   20  OAS   D T3015      11.232  -1.817  -1.589  1.00 27.35    -0.326 OA
HETATM   21  CAA   D T3015      12.622  -1.627  -1.239  1.00 26.97     0.181 C 
ENDBRANCH   3  20
BRANCH  10  22
HETATM   22  NAR   D T3015      11.242  -6.415   0.923  1.00 28.41    -0.224 NA
BRANCH  22  23
HETATM   23  CAW   D T3015      10.563  -6.059   2.110  1.00 30.70     0.110 A 
HETATM   24  CAF   D T3015      10.607  -4.758   2.584  1.00 30.33     0.022 A 
HETATM   25  CAE   D T3015       9.954  -4.442   3.770  1.00 31.71     0.008 A 
HETATM   26  CAU   D T3015       9.262  -5.446   4.452  1.00 32.99     0.037 A 
HETATM   27 BR     D T3015       8.289  -5.203   6.076  1.00 41.09    -0.049 Br
HETATM   28  CAH   D T3015       9.235  -6.728   3.974  1.00 31.01     0.038 A 
HETATM   29  CAV   D T3015       9.874  -7.029   2.822  1.00 32.00     0.158 A 
HETATM   30  FAC   D T3015       9.795  -8.310   2.449  1.00 33.90    -0.203 F 
ENDBRANCH  22  23
ENDBRANCH  10  22
TORSDOF 6
ENDMDL
MODEL 9
REMARK VINA RESULT:    -6.790     18.251     20.043
REMARK INTER + INTRA:          -9.788
REMARK INTER:                  -8.673
REMARK INTRA:                  -1.116
REMARK UNBOUND:                -0.617
REMARK  6 active torsions:
REMARK  status: ('A' for Active; 'I' for Inactive)
REMARK    1  A    between atoms: CBC_7  and  CAO_8 
REMARK    2  A    between atoms: CAO_8  and  OAT_9 
REMARK    3  A    between atoms: OAT_9  and  CAY_10 
REMARK    4  A    between atoms: CAX_12  and  OAS_13 
REMARK    5  A    between atoms: C6_21  and  NAR_22 
REMARK    6  A    between atoms: NAR_22  and  CAW_23 
ROOT
HETATM    1  CAY   D T3015       2.042   9.193 -15.322  1.00 27.56     0.118 A 
HETATM    2  CAI   D T3015       2.480   8.986 -16.619  1.00 26.69     0.045 A 
HETATM    3  CAX   D T3015       0.731   8.915 -14.981  1.00 27.38     0.117 A 
HETATM    4  CAJ   D T3015      -0.147   8.434 -15.959  1.00 26.81     0.031 A 
HETATM    5  C5    D T3015       0.298   8.231 -17.268  1.00 27.31     0.056 A 
HETATM    6  C4    D T3015       1.618   8.501 -17.590  1.00 26.48     0.088 A 
HETATM    7  N3    D T3015       2.050   8.317 -18.862  1.00 27.11    -0.224 NA
HETATM    8  C2    D T3015       1.226   7.864 -19.802  1.00 26.78     0.200 A 
HETATM    9  N1    D T3015      -0.037   7.562 -19.523  1.00 25.67    -0.205 NA
HETATM   10  C6    D T3015      -0.547   7.735 -18.291  1.00 27.45     0.166 A 
ENDROOT
BRANCH   1  11
HETATM   11  OAT   D T3015       2.842   9.678 -14.328  1.00 28.48    -0.329 OA
BRANCH  11  12
HETATM   12  CAO   D T3015       4.221   9.367 -14.386  1.00 34.10     0.149 C 
BRANCH  12  13
HETATM   13  CBC   D T3015       4.863  10.528 -13.639  1.00 37.94     0.034 C 
HETATM   14  CAK   D T3015       4.343  11.851 -14.168  1.00 39.50     0.038 C 
HETATM   15  CAM   D T3015       4.896  13.016 -13.342  1.00 42.92     0.250 C 
HETATM   16  NBD   D T3015       6.375  12.996 -13.205  1.00 44.82     0.139 N 
HETATM   17  CAB   D T3015       6.640  13.769 -11.974  1.00 45.53     0.285 C 
HETATM   18  CAN   D T3015       7.015  11.658 -12.998  1.00 44.14     0.250 C 
HETATM   19  CAL   D T3015       6.381  10.540 -13.830  1.00 40.98     0.038 C 
ENDBRANCH  12  13
ENDBRANCH  11  12
ENDBRANCH   1  11
BRANCH   3  20
HETATM   20  OAS   D T3015       0.382   9.155 -13.660  1.00 27.35    -0.326 OA
HETATM   21  CAA   D T3015      -0.581  10.193 -13.366  1.00 26.97     0.181 C 
ENDBRANCH   3  20
BRANCH  10  22
HETATM   22  NAR   D T3015      -1.921   7.417 -18.033  1.00 28.41    -0.224 NA
BRANCH  22  23
HETATM   23  CAW   D T3015      -2.384   6.081 -18.047  1.00 30.70     0.110 A 
HETATM   24  CAF   D T3015      -2.097   5.225 -16.997  1.00 30.33     0.022 A 
HETATM   25  CAE   D T3015      -2.540   3.908 -17.050  1.00 31.71     0.008 A 
HETATM   26  CAU   D T3015      -3.270   3.482 -18.163  1.00 32.99     0.037 A 
HETATM   27 BR     D T3015      -3.980   1.727 -18.406  1.00 41.09    -0.049 Br
HETATM   28  CAH   D T3015      -3.539   4.339 -19.195  1.00 31.01     0.038 A 
HETATM   29  CAV   D T3015      -3.104   5.617 -19.138  1.00 32.00     0.158 A 
HETATM   30  FAC   D T3015      -3.409   6.367 -20.201  1.00 33.90    -0.203 F 
ENDBRANCH  22  23
ENDBRANCH  10  22
TORSDOF 6
ENDMDL
