MODEL 1
REMARK VINA RESULT:    -8.144      0.000      0.000
REMARK INTER + INTRA:         -12.184
REMARK INTER:                 -11.001
REMARK INTRA:                  -1.184
REMARK UNBOUND:                -1.184
REMARK  6 active torsions:
REMARK  status: ('A' for Active; 'I' for Inactive)
REMARK    1  A    between atoms: CBC_7  and  CAO_8 
REMARK    2  A    between atoms: CAO_8  and  OAT_9 
REMARK    3  A    between atoms: OAT_9  and  CAY_10 
REMARK    4  A    between atoms: CAX_12  and  OAS_13 
REMARK    5  A    between atoms: C6_21  and  NAR_22 
REMARK    6  A    between atoms: NAR_22  and  CAW_23 
ROOT
HETATM    1  CAY   D T3015     -12.538   5.577  -3.514  1.00 27.56     0.118 A 
HETATM    2  CAI   D T3015     -11.216   5.203  -3.690  1.00 26.69     0.045 A 
HETATM    3  CAX   D T3015     -13.521   5.058  -4.337  1.00 27.38     0.117 A 
HETATM    4  CAJ   D T3015     -13.165   4.161  -5.352  1.00 26.81     0.031 A 
HETATM    5  C5    D T3015     -11.829   3.791  -5.530  1.00 27.31     0.056 A 
HETATM    6  C4    D T3015     -10.860   4.310  -4.685  1.00 26.48     0.088 A 
HETATM    7  N3    D T3015      -9.561   3.962  -4.864  1.00 27.11    -0.224 NA
HETATM    8  C2    D T3015      -9.208   3.114  -5.825  1.00 26.78     0.200 A 
HETATM    9  N1    D T3015     -10.114   2.571  -6.631  1.00 25.67    -0.205 NA
HETATM   10  C6    D T3015     -11.418   2.879  -6.532  1.00 27.45     0.166 A 
ENDROOT
BRANCH   1  11
HETATM   11  OAT   D T3015     -12.948   6.459  -2.556  1.00 28.48    -0.329 OA
BRANCH  11  12
HETATM   12  CAO   D T3015     -12.634   6.158  -1.210  1.00 34.10     0.149 C 
BRANCH  12  13
HETATM   13  CBC   D T3015     -13.956   5.640  -0.659  1.00 37.94     0.034 C 
HETATM   14  CAK   D T3015     -14.222   6.224   0.716  1.00 39.50     0.038 C 
HETATM   15  CAM   D T3015     -15.603   5.801   1.224  1.00 42.92     0.250 C 
HETATM   16  NBD   D T3015     -15.827   4.333   1.171  1.00 44.82     0.139 N 
HETATM   17  CAB   D T3015     -17.297   4.188   1.118  1.00 45.53     0.285 C 
HETATM   18  CAN   D T3015     -15.298   3.611  -0.029  1.00 44.14     0.250 C 
HETATM   19  CAL   D T3015     -13.932   4.120  -0.497  1.00 40.98     0.038 C 
ENDBRANCH  12  13
ENDBRANCH  11  12
ENDBRANCH   1  11
BRANCH   3  20
HETATM   20  OAS   D T3015     -14.815   5.490  -4.087  1.00 27.35    -0.326 OA
HETATM   21  CAA   D T3015     -15.825   4.517  -3.738  1.00 26.97     0.181 C 
ENDBRANCH   3  20
BRANCH  10  22
HETATM   22  NAR   D T3015     -12.365   2.287  -7.433  1.00 28.41    -0.224 NA
BRANCH  22  23
HETATM   23  CAW   D T3015     -12.966   1.040  -7.154  1.00 30.70     0.110 A 
HETATM   24  CAF   D T3015     -13.804   0.889  -6.061  1.00 30.33     0.022 A 
HETATM   25  CAE   D T3015     -14.359  -0.358  -5.793  1.00 31.71     0.008 A 
HETATM   26  CAU   D T3015     -14.063  -1.428  -6.640  1.00 32.99     0.037 A 
HETATM   27 BR     D T3015     -14.746  -3.202  -6.451  1.00 41.09    -0.049 Br
HETATM   28  CAH   D T3015     -13.229  -1.265  -7.712  1.00 31.01     0.038 A 
HETATM   29  CAV   D T3015     -12.690  -0.051  -7.966  1.00 32.00     0.158 A 
HETATM   30  FAC   D T3015     -11.882  -0.001  -9.027  1.00 33.90    -0.203 F 
ENDBRANCH  22  23
ENDBRANCH  10  22
TORSDOF 6
ENDMDL
MODEL 2
REMARK VINA RESULT:    -7.660      2.406      3.454
REMARK INTER + INTRA:         -11.530
REMARK INTER:                 -10.740
REMARK INTRA:                  -0.790
REMARK UNBOUND:                -1.184
REMARK  6 active torsions:
REMARK  status: ('A' for Active; 'I' for Inactive)
REMARK    1  A    between atoms: CBC_7  and  CAO_8 
REMARK    2  A    between atoms: CAO_8  and  OAT_9 
REMARK    3  A    between atoms: OAT_9  and  CAY_10 
REMARK    4  A    between atoms: CAX_12  and  OAS_13 
REMARK    5  A    between atoms: C6_21  and  NAR_22 
REMARK    6  A    between atoms: NAR_22  and  CAW_23 
ROOT
HETATM    1  CAY   D T3015     -12.872   3.617  -5.623  1.00 27.56     0.118 A 
HETATM    2  CAI   D T3015     -11.509   3.443  -5.796  1.00 26.69     0.045 A 
HETATM    3  CAX   D T3015     -13.766   2.822  -6.316  1.00 27.38     0.117 A 
HETATM    4  CAJ   D T3015     -13.280   1.850  -7.199  1.00 26.81     0.031 A 
HETATM    5  C5    D T3015     -11.905   1.681  -7.375  1.00 27.31     0.056 A 
HETATM    6  C4    D T3015     -11.023   2.478  -6.659  1.00 26.48     0.088 A 
HETATM    7  N3    D T3015      -9.688   2.324  -6.838  1.00 27.11    -0.224 NA
HETATM    8  C2    D T3015      -9.212   1.408  -7.675  1.00 26.78     0.200 A 
HETATM    9  N1    D T3015     -10.025   0.605  -8.352  1.00 25.67    -0.205 NA
HETATM   10  C6    D T3015     -11.361   0.706  -8.246  1.00 27.45     0.166 A 
ENDROOT
BRANCH   1  11
HETATM   11  OAT   D T3015     -13.409   4.557  -4.791  1.00 28.48    -0.329 OA
BRANCH  11  12
HETATM   12  CAO   D T3015     -13.174   4.417  -3.403  1.00 34.10     0.149 C 
BRANCH  12  13
HETATM   13  CBC   D T3015     -13.056   5.859  -2.930  1.00 37.94     0.034 C 
HETATM   14  CAK   D T3015     -11.736   6.458  -3.378  1.00 39.50     0.038 C 
HETATM   15  CAM   D T3015     -11.662   7.942  -3.007  1.00 42.92     0.250 C 
HETATM   16  NBD   D T3015     -11.955   8.207  -1.575  1.00 44.82     0.139 N 
HETATM   17  CAB   D T3015     -12.407   9.614  -1.547  1.00 45.53     0.285 C 
HETATM   18  CAN   D T3015     -13.056   7.409  -0.950  1.00 44.14     0.250 C 
HETATM   19  CAL   D T3015     -13.085   5.946  -1.403  1.00 40.98     0.038 C 
ENDBRANCH  12  13
ENDBRANCH  11  12
ENDBRANCH   1  11
BRANCH   3  20
HETATM   20  OAS   D T3015     -15.111   3.070  -6.080  1.00 27.35    -0.326 OA
HETATM   21  CAA   D T3015     -15.888   2.089  -5.357  1.00 26.97     0.181 C 
ENDBRANCH   3  20
BRANCH  10  22
HETATM   22  NAR   D T3015     -12.209  -0.166  -9.007  1.00 28.41    -0.224 NA
BRANCH  22  23
HETATM   23  CAW   D T3015     -13.157  -1.005  -8.379  1.00 30.70     0.110 A 
HETATM   24  CAF   D T3015     -12.817  -1.731  -7.250  1.00 30.33     0.022 A 
HETATM   25  CAE   D T3015     -13.761  -2.572  -6.669  1.00 31.71     0.008 A 
HETATM   26  CAU   D T3015     -15.034  -2.656  -7.237  1.00 32.99     0.037 A 
HETATM   27 BR     D T3015     -16.467  -3.730  -6.571  1.00 41.09    -0.049 Br
HETATM   28  CAH   D T3015     -15.353  -1.936  -8.356  1.00 31.01     0.038 A 
HETATM   29  CAV   D T3015     -14.430  -1.123  -8.918  1.00 32.00     0.158 A 
HETATM   30  FAC   D T3015     -14.837  -0.475 -10.011  1.00 33.90    -0.203 F 
ENDBRANCH  22  23
ENDBRANCH  10  22
TORSDOF 6
ENDMDL
MODEL 3
REMARK VINA RESULT:    -7.647      3.999      8.518
REMARK INTER + INTRA:         -11.513
REMARK INTER:                 -10.827
REMARK INTRA:                  -0.686
REMARK UNBOUND:                -1.184
REMARK  6 active torsions:
REMARK  status: ('A' for Active; 'I' for Inactive)
REMARK    1  A    between atoms: CBC_7  and  CAO_8 
REMARK    2  A    between atoms: CAO_8  and  OAT_9 
REMARK    3  A    between atoms: OAT_9  and  CAY_10 
REMARK    4  A    between atoms: CAX_12  and  OAS_13 
REMARK    5  A    between atoms: C6_21  and  NAR_22 
REMARK    6  A    between atoms: NAR_22  and  CAW_23 
ROOT
HETATM    1  CAY   D T3015     -12.394   5.276  -2.770  1.00 27.56     0.118 A 
HETATM    2  CAI   D T3015     -12.121   6.631  -2.689  1.00 26.69     0.045 A 
HETATM    3  CAX   D T3015     -13.227   4.679  -1.842  1.00 27.38     0.117 A 
HETATM    4  CAJ   D T3015     -13.782   5.456  -0.817  1.00 26.81     0.031 A 
HETATM    5  C5    D T3015     -13.500   6.822  -0.735  1.00 27.31     0.056 A 
HETATM    6  C4    D T3015     -12.675   7.405  -1.685  1.00 26.48     0.088 A 
HETATM    7  N3    D T3015     -12.390   8.728  -1.600  1.00 27.11    -0.224 NA
HETATM    8  C2    D T3015     -12.906   9.478  -0.631  1.00 26.78     0.200 A 
HETATM    9  N1    D T3015     -13.728   8.960   0.275  1.00 25.67    -0.205 NA
HETATM   10  C6    D T3015     -14.045   7.654   0.273  1.00 27.45     0.166 A 
ENDROOT
BRANCH   1  11
HETATM   11  OAT   D T3015     -11.871   4.461  -3.733  1.00 28.48    -0.329 OA
BRANCH  11  12
HETATM   12  CAO   D T3015     -12.724   4.062  -4.788  1.00 34.10     0.149 C 
BRANCH  12  13
HETATM   13  CBC   D T3015     -11.846   3.118  -5.599  1.00 37.94     0.034 C 
HETATM   14  CAK   D T3015     -10.466   3.717  -5.798  1.00 39.50     0.038 C 
HETATM   15  CAM   D T3015      -9.544   2.722  -6.509  1.00 42.92     0.250 C 
HETATM   16  NBD   D T3015     -10.120   2.178  -7.766  1.00 44.82     0.139 N 
HETATM   17  CAB   D T3015      -9.420   0.891  -7.962  1.00 45.53     0.285 C 
HETATM   18  CAN   D T3015     -11.581   1.854  -7.755  1.00 44.14     0.250 C 
HETATM   19  CAL   D T3015     -12.429   2.876  -6.991  1.00 40.98     0.038 C 
ENDBRANCH  12  13
ENDBRANCH  11  12
ENDBRANCH   1  11
BRANCH   3  20
HETATM   20  OAS   D T3015     -13.441   3.318  -2.001  1.00 27.35    -0.326 OA
HETATM   21  CAA   D T3015     -14.784   2.799  -1.875  1.00 26.97     0.181 C 
ENDBRANCH   3  20
BRANCH  10  22
HETATM   22  NAR   D T3015     -14.920   7.127   1.279  1.00 28.41    -0.224 NA
BRANCH  22  23
HETATM   23  CAW   D T3015     -16.254   6.767   0.981  1.00 30.70     0.110 A 
HETATM   24  CAF   D T3015     -17.074   7.628   0.269  1.00 30.33     0.022 A 
HETATM   25  CAE   D T3015     -18.392   7.261   0.015  1.00 31.71     0.008 A 
HETATM   26  CAU   D T3015     -18.853   6.027   0.478  1.00 32.99     0.037 A 
HETATM   27 BR     D T3015     -20.614   5.340   0.207  1.00 41.09    -0.049 Br
HETATM   28  CAH   D T3015     -18.033   5.191   1.185  1.00 31.01     0.038 A 
HETATM   29  CAV   D T3015     -16.754   5.554   1.431  1.00 32.00     0.158 A 
HETATM   30  FAC   D T3015     -16.042   4.674   2.137  1.00 33.90    -0.203 F 
ENDBRANCH  22  23
ENDBRANCH  10  22
TORSDOF 6
ENDMDL
MODEL 4
REMARK VINA RESULT:    -7.558      3.817      8.125
REMARK INTER + INTRA:         -11.392
REMARK INTER:                 -10.342
REMARK INTRA:                  -1.050
REMARK UNBOUND:                -1.184
REMARK  6 active torsions:
REMARK  status: ('A' for Active; 'I' for Inactive)
REMARK    1  A    between atoms: CBC_7  and  CAO_8 
REMARK    2  A    between atoms: CAO_8  and  OAT_9 
REMARK    3  A    between atoms: OAT_9  and  CAY_10 
REMARK    4  A    between atoms: CAX_12  and  OAS_13 
REMARK    5  A    between atoms: C6_21  and  NAR_22 
REMARK    6  A    between atoms: NAR_22  and  CAW_23 
ROOT
HETATM    1  CAY   D T3015     -14.199   3.387  -4.100  1.00 27.56     0.118 A 
HETATM    2  CAI   D T3015     -13.325   4.073  -3.273  1.00 26.69     0.045 A 
HETATM    3  CAX   D T3015     -15.565   3.529  -3.935  1.00 27.38     0.117 A 
HETATM    4  CAJ   D T3015     -16.052   4.363  -2.922  1.00 26.81     0.031 A 
HETATM    5  C5    D T3015     -15.167   5.050  -2.087  1.00 27.31     0.056 A 
HETATM    6  C4    D T3015     -13.801   4.907  -2.277  1.00 26.48     0.088 A 
HETATM    7  N3    D T3015     -12.940   5.562  -1.459  1.00 27.11    -0.224 NA
HETATM    8  C2    D T3015     -13.388   6.356  -0.491  1.00 26.78     0.200 A 
HETATM    9  N1    D T3015     -14.689   6.543  -0.302  1.00 25.67    -0.205 NA
HETATM   10  C6    D T3015     -15.608   5.915  -1.056  1.00 27.45     0.166 A 
ENDROOT
BRANCH   1  11
HETATM   11  OAT   D T3015     -13.789   2.545  -5.093  1.00 28.48    -0.329 OA
BRANCH  11  12
HETATM   12  CAO   D T3015     -13.225   3.125  -6.253  1.00 34.10     0.149 C 
BRANCH  12  13
HETATM   13  CBC   D T3015     -11.811   2.559  -6.266  1.00 37.94     0.034 C 
HETATM   14  CAK   D T3015     -10.829   3.574  -5.712  1.00 39.50     0.038 C 
HETATM   15  CAM   D T3015      -9.426   2.968  -5.613  1.00 42.92     0.250 C 
HETATM   16  NBD   D T3015      -8.959   2.349  -6.881  1.00 44.82     0.139 N 
HETATM   17  CAB   D T3015      -7.943   1.364  -6.456  1.00 45.53     0.285 C 
HETATM   18  CAN   D T3015      -9.971   1.581  -7.672  1.00 44.14     0.250 C 
HETATM   19  CAL   D T3015     -11.357   2.233  -7.689  1.00 40.98     0.038 C 
ENDBRANCH  12  13
ENDBRANCH  11  12
ENDBRANCH   1  11
BRANCH   3  20
HETATM   20  OAS   D T3015     -16.362   2.802  -4.808  1.00 27.35    -0.326 OA
HETATM   21  CAA   D T3015     -17.755   3.160  -4.949  1.00 26.97     0.181 C 
ENDBRANCH   3  20
BRANCH  10  22
HETATM   22  NAR   D T3015     -17.005   6.127  -0.810  1.00 28.41    -0.224 NA
BRANCH  22  23
HETATM   23  CAW   D T3015     -17.738   5.281   0.053  1.00 30.70     0.110 A 
HETATM   24  CAF   D T3015     -17.375   5.145   1.382  1.00 30.33     0.022 A 
HETATM   25  CAE   D T3015     -18.096   4.282   2.202  1.00 31.71     0.008 A 
HETATM   26  CAU   D T3015     -19.176   3.580   1.662  1.00 32.99     0.037 A 
HETATM   27 BR     D T3015     -20.297   2.374   2.631  1.00 41.09    -0.049 Br
HETATM   28  CAH   D T3015     -19.518   3.720   0.345  1.00 31.01     0.038 A 
HETATM   29  CAV   D T3015     -18.811   4.558  -0.447  1.00 32.00     0.158 A 
HETATM   30  FAC   D T3015     -19.218   4.615  -1.716  1.00 33.90    -0.203 F 
ENDBRANCH  22  23
ENDBRANCH  10  22
TORSDOF 6
ENDMDL
MODEL 5
REMARK VINA RESULT:    -7.556      1.790      2.529
REMARK INTER + INTRA:         -11.390
REMARK INTER:                 -10.256
REMARK INTRA:                  -1.133
REMARK UNBOUND:                -1.184
REMARK  6 active torsions:
REMARK  status: ('A' for Active; 'I' for Inactive)
REMARK    1  A    between atoms: CBC_7  and  CAO_8 
REMARK    2  A    between atoms: CAO_8  and  OAT_9 
REMARK    3  A    between atoms: OAT_9  and  CAY_10 
REMARK    4  A    between atoms: CAX_12  and  OAS_13 
REMARK    5  A    between atoms: C6_21  and  NAR_22 
REMARK    6  A    between atoms: NAR_22  and  CAW_23 
ROOT
HETATM    1  CAY   D T3015     -12.576   3.804  -5.354  1.00 27.56     0.118 A 
HETATM    2  CAI   D T3015     -11.230   3.552  -5.563  1.00 26.69     0.045 A 
HETATM    3  CAX   D T3015     -13.531   3.093  -6.057  1.00 27.38     0.117 A 
HETATM    4  CAJ   D T3015     -13.124   2.128  -6.986  1.00 26.81     0.031 A 
HETATM    5  C5    D T3015     -11.766   1.881  -7.198  1.00 27.31     0.056 A 
HETATM    6  C4    D T3015     -10.822   2.592  -6.472  1.00 26.48     0.088 A 
HETATM    7  N3    D T3015      -9.503   2.363  -6.685  1.00 27.11    -0.224 NA
HETATM    8  C2    D T3015      -9.102   1.452  -7.566  1.00 26.78     0.200 A 
HETATM    9  N1    D T3015      -9.977   0.728  -8.254  1.00 25.67    -0.205 NA
HETATM   10  C6    D T3015     -11.302   0.907  -8.116  1.00 27.45     0.166 A 
ENDROOT
BRANCH   1  11
HETATM   11  OAT   D T3015     -13.037   4.743  -4.477  1.00 28.48    -0.329 OA
BRANCH  11  12
HETATM   12  CAO   D T3015     -12.426   4.807  -3.203  1.00 34.10     0.149 C 
BRANCH  12  13
HETATM   13  CBC   D T3015     -13.612   4.727  -2.251  1.00 37.94     0.034 C 
HETATM   14  CAK   D T3015     -14.004   3.281  -2.012  1.00 39.50     0.038 C 
HETATM   15  CAM   D T3015     -15.118   3.189  -0.966  1.00 42.92     0.250 C 
HETATM   16  NBD   D T3015     -16.285   4.057  -1.269  1.00 44.82     0.139 N 
HETATM   17  CAB   D T3015     -16.924   4.285   0.044  1.00 45.53     0.285 C 
HETATM   18  CAN   D T3015     -15.992   5.415  -1.826  1.00 44.14     0.250 C 
HETATM   19  CAL   D T3015     -14.840   5.427  -2.835  1.00 40.98     0.038 C 
ENDBRANCH  12  13
ENDBRANCH  11  12
ENDBRANCH   1  11
BRANCH   3  20
HETATM   20  OAS   D T3015     -14.853   3.414  -5.783  1.00 27.35    -0.326 OA
HETATM   21  CAA   D T3015     -15.701   2.424  -5.161  1.00 26.97     0.181 C 
ENDBRANCH   3  20
BRANCH  10  22
HETATM   22  NAR   D T3015     -12.217   0.120  -8.890  1.00 28.41    -0.224 NA
BRANCH  22  23
HETATM   23  CAW   D T3015     -13.122  -0.775  -8.276  1.00 30.70     0.110 A 
HETATM   24  CAF   D T3015     -12.734  -1.529  -7.181  1.00 30.33     0.022 A 
HETATM   25  CAE   D T3015     -13.636  -2.424  -6.614  1.00 31.71     0.008 A 
HETATM   26  CAU   D T3015     -14.917  -2.532  -7.160  1.00 32.99     0.037 A 
HETATM   27 BR     D T3015     -16.297  -3.680  -6.507  1.00 41.09    -0.049 Br
HETATM   28  CAH   D T3015     -15.283  -1.784  -8.245  1.00 31.01     0.038 A 
HETATM   29  CAV   D T3015     -14.401  -0.918  -8.793  1.00 32.00     0.158 A 
HETATM   30  FAC   D T3015     -14.853  -0.246  -9.854  1.00 33.90    -0.203 F 
ENDBRANCH  22  23
ENDBRANCH  10  22
TORSDOF 6
ENDMDL
MODEL 6
REMARK VINA RESULT:    -7.324      2.595      3.574
REMARK INTER + INTRA:         -11.076
REMARK INTER:                  -9.922
REMARK INTRA:                  -1.154
REMARK UNBOUND:                -1.184
REMARK  6 active torsions:
REMARK  status: ('A' for Active; 'I' for Inactive)
REMARK    1  A    between atoms: CBC_7  and  CAO_8 
REMARK    2  A    between atoms: CAO_8  and  OAT_9 
REMARK    3  A    between atoms: OAT_9  and  CAY_10 
REMARK    4  A    between atoms: CAX_12  and  OAS_13 
REMARK    5  A    between atoms: C6_21  and  NAR_22 
REMARK    6  A    between atoms: NAR_22  and  CAW_23 
ROOT
HETATM    1  CAY   D T3015     -11.999   4.326  -4.658  1.00 27.56     0.118 A 
HETATM    2  CAI   D T3015     -10.815   3.806  -5.152  1.00 26.69     0.045 A 
HETATM    3  CAX   D T3015     -13.210   3.915  -5.184  1.00 27.38     0.117 A 
HETATM    4  CAJ   D T3015     -13.224   2.979  -6.225  1.00 26.81     0.031 A 
HETATM    5  C5    D T3015     -12.027   2.460  -6.725  1.00 27.31     0.056 A 
HETATM    6  C4    D T3015     -10.823   2.873  -6.173  1.00 26.48     0.088 A 
HETATM    7  N3    D T3015      -9.659   2.381  -6.665  1.00 27.11    -0.224 NA
HETATM    8  C2    D T3015      -9.657   1.494  -7.654  1.00 26.78     0.200 A 
HETATM    9  N1    D T3015     -10.792   1.051  -8.184  1.00 25.67    -0.205 NA
HETATM   10  C6    D T3015     -11.986   1.503  -7.767  1.00 27.45     0.166 A 
ENDROOT
BRANCH   1  11
HETATM   11  OAT   D T3015     -12.053   5.254  -3.658  1.00 28.48    -0.329 OA
BRANCH  11  12
HETATM   12  CAO   D T3015     -10.827   5.775  -3.180  1.00 34.10     0.149 C 
BRANCH  12  13
HETATM   13  CBC   D T3015     -11.198   7.192  -2.762  1.00 37.94     0.034 C 
HETATM   14  CAK   D T3015     -12.179   7.164  -1.606  1.00 39.50     0.038 C 
HETATM   15  CAM   D T3015     -12.464   8.583  -1.105  1.00 42.92     0.250 C 
HETATM   16  NBD   D T3015     -12.875   9.518  -2.183  1.00 44.82     0.139 N 
HETATM   17  CAB   D T3015     -12.533  10.856  -1.659  1.00 45.53     0.285 C 
HETATM   18  CAN   D T3015     -12.162   9.395  -3.494  1.00 44.14     0.250 C 
HETATM   19  CAL   D T3015     -11.880   7.946  -3.904  1.00 40.98     0.038 C 
ENDBRANCH  12  13
ENDBRANCH  11  12
ENDBRANCH   1  11
BRANCH   3  20
HETATM   20  OAS   D T3015     -14.343   4.491  -4.629  1.00 27.35    -0.326 OA
HETATM   21  CAA   D T3015     -15.272   3.655  -3.904  1.00 26.97     0.181 C 
ENDBRANCH   3  20
BRANCH  10  22
HETATM   22  NAR   D T3015     -13.190   1.015  -8.376  1.00 28.41    -0.224 NA
BRANCH  22  23
HETATM   23  CAW   D T3015     -13.475  -0.367  -8.440  1.00 30.70     0.110 A 
HETATM   24  CAF   D T3015     -13.407  -1.046  -9.646  1.00 30.33     0.022 A 
HETATM   25  CAE   D T3015     -13.721  -2.401  -9.686  1.00 31.71     0.008 A 
HETATM   26  CAU   D T3015     -14.091  -3.045  -8.504  1.00 32.99     0.037 A 
HETATM   27 BR     D T3015     -14.532  -4.898  -8.353  1.00 41.09    -0.049 Br
HETATM   28  CAH   D T3015     -14.160  -2.360  -7.322  1.00 31.01     0.038 A 
HETATM   29  CAV   D T3015     -13.856  -1.043  -7.290  1.00 32.00     0.158 A 
HETATM   30  FAC   D T3015     -13.965  -0.465  -6.092  1.00 33.90    -0.203 F 
ENDBRANCH  22  23
ENDBRANCH  10  22
TORSDOF 6
ENDMDL
MODEL 7
REMARK VINA RESULT:    -7.304      4.414      8.907
REMARK INTER + INTRA:         -11.049
REMARK INTER:                  -9.986
REMARK INTRA:                  -1.064
REMARK UNBOUND:                -1.184
REMARK  6 active torsions:
REMARK  status: ('A' for Active; 'I' for Inactive)
REMARK    1  A    between atoms: CBC_7  and  CAO_8 
REMARK    2  A    between atoms: CAO_8  and  OAT_9 
REMARK    3  A    between atoms: OAT_9  and  CAY_10 
REMARK    4  A    between atoms: CAX_12  and  OAS_13 
REMARK    5  A    between atoms: C6_21  and  NAR_22 
REMARK    6  A    between atoms: NAR_22  and  CAW_23 
ROOT
HETATM    1  CAY   D T3015     -14.358   4.164  -2.140  1.00 27.56     0.118 A 
HETATM    2  CAI   D T3015     -13.828   4.932  -1.116  1.00 26.69     0.045 A 
HETATM    3  CAX   D T3015     -15.727   4.017  -2.259  1.00 27.38     0.117 A 
HETATM    4  CAJ   D T3015     -16.569   4.642  -1.331  1.00 26.81     0.031 A 
HETATM    5  C5    D T3015     -16.032   5.411  -0.297  1.00 27.31     0.056 A 
HETATM    6  C4    D T3015     -14.656   5.560  -0.202  1.00 26.48     0.088 A 
HETATM    7  N3    D T3015     -14.131   6.296   0.808  1.00 27.11    -0.224 NA
HETATM    8  C2    D T3015     -14.918   6.892   1.699  1.00 26.78     0.200 A 
HETATM    9  N1    D T3015     -16.240   6.799   1.619  1.00 25.67    -0.205 NA
HETATM   10  C6    D T3015     -16.839   6.073   0.660  1.00 27.45     0.166 A 
ENDROOT
BRANCH   1  11
HETATM   11  OAT   D T3015     -13.591   3.515  -3.065  1.00 28.48    -0.329 OA
BRANCH  11  12
HETATM   12  CAO   D T3015     -12.780   4.304  -3.914  1.00 34.10     0.149 C 
BRANCH  12  13
HETATM   13  CBC   D T3015     -12.357   3.318  -4.995  1.00 37.94     0.034 C 
HETATM   14  CAK   D T3015     -10.963   3.644  -5.495  1.00 39.50     0.038 C 
HETATM   15  CAM   D T3015     -10.487   2.587  -6.496  1.00 42.92     0.250 C 
HETATM   16  NBD   D T3015     -11.450   2.345  -7.601  1.00 44.82     0.139 N 
HETATM   17  CAB   D T3015     -11.132   0.981  -8.072  1.00 45.53     0.285 C 
HETATM   18  CAN   D T3015     -12.902   2.328  -7.240  1.00 44.14     0.250 C 
HETATM   19  CAL   D T3015     -13.289   3.388  -6.205  1.00 40.98     0.038 C 
ENDBRANCH  12  13
ENDBRANCH  11  12
ENDBRANCH   1  11
BRANCH   3  20
HETATM   20  OAS   D T3015     -16.165   3.229  -3.314  1.00 27.35    -0.326 OA
HETATM   21  CAA   D T3015     -16.846   3.856  -4.424  1.00 26.97     0.181 C 
ENDBRANCH   3  20
BRANCH  10  22
HETATM   22  NAR   D T3015     -18.270   5.980   0.617  1.00 28.41    -0.224 NA
BRANCH  22  23
HETATM   23  CAW   D T3015     -19.040   6.846  -0.190  1.00 30.70     0.110 A 
HETATM   24  CAF   D T3015     -18.960   8.220  -0.028  1.00 30.33     0.022 A 
HETATM   25  CAE   D T3015     -19.752   9.048  -0.817  1.00 31.71     0.008 A 
HETATM   26  CAU   D T3015     -20.605   8.471  -1.761  1.00 32.99     0.037 A 
HETATM   27 BR     D T3015     -21.745   9.440  -2.948  1.00 41.09    -0.049 Br
HETATM   28  CAH   D T3015     -20.677   7.113  -1.905  1.00 31.01     0.038 A 
HETATM   29  CAV   D T3015     -19.907   6.313  -1.133  1.00 32.00     0.158 A 
HETATM   30  FAC   D T3015     -20.061   5.005  -1.344  1.00 33.90    -0.203 F 
ENDBRANCH  22  23
ENDBRANCH  10  22
TORSDOF 6
ENDMDL
MODEL 8
REMARK VINA RESULT:    -7.289      3.952      6.091
REMARK INTER + INTRA:         -11.030
REMARK INTER:                 -10.105
REMARK INTRA:                  -0.925
REMARK UNBOUND:                -1.184
REMARK  6 active torsions:
REMARK  status: ('A' for Active; 'I' for Inactive)
REMARK    1  A    between atoms: CBC_7  and  CAO_8 
REMARK    2  A    between atoms: CAO_8  and  OAT_9 
REMARK    3  A    between atoms: OAT_9  and  CAY_10 
REMARK    4  A    between atoms: CAX_12  and  OAS_13 
REMARK    5  A    between atoms: C6_21  and  NAR_22 
REMARK    6  A    between atoms: NAR_22  and  CAW_23 
ROOT
HETATM    1  CAY   D T3015     -12.646   1.797  -7.315  1.00 27.56     0.118 A 
HETATM    2  CAI   D T3015     -13.906   1.233  -7.202  1.00 26.69     0.045 A 
HETATM    3  CAX   D T3015     -11.622   1.091  -7.919  1.00 27.38     0.117 A 
HETATM    4  CAJ   D T3015     -11.869  -0.200  -8.402  1.00 26.81     0.031 A 
HETATM    5  C5    D T3015     -13.139  -0.768  -8.281  1.00 27.31     0.056 A 
HETATM    6  C4    D T3015     -14.158  -0.038  -7.686  1.00 26.48     0.088 A 
HETATM    7  N3    D T3015     -15.389  -0.592  -7.556  1.00 27.11    -0.224 NA
HETATM    8  C2    D T3015     -15.637  -1.818  -8.008  1.00 26.78     0.200 A 
HETATM    9  N1    D T3015     -14.695  -2.532  -8.612  1.00 25.67    -0.205 NA
HETATM   10  C6    D T3015     -13.444  -2.063  -8.764  1.00 27.45     0.166 A 
ENDROOT
BRANCH   1  11
HETATM   11  OAT   D T3015     -12.337   3.042  -6.849  1.00 28.48    -0.329 OA
BRANCH  11  12
HETATM   12  CAO   D T3015     -11.755   3.135  -5.563  1.00 34.10     0.149 C 
BRANCH  12  13
HETATM   13  CBC   D T3015     -12.881   3.719  -4.720  1.00 37.94     0.034 C 
HETATM   14  CAK   D T3015     -12.361   4.846  -3.849  1.00 39.50     0.038 C 
HETATM   15  CAM   D T3015     -13.510   5.514  -3.087  1.00 42.92     0.250 C 
HETATM   16  NBD   D T3015     -14.357   4.553  -2.336  1.00 44.82     0.139 N 
HETATM   17  CAB   D T3015     -15.655   5.245  -2.189  1.00 45.53     0.285 C 
HETATM   18  CAN   D T3015     -14.660   3.249  -3.007  1.00 44.14     0.250 C 
HETATM   19  CAL   D T3015     -13.471   2.668  -3.779  1.00 40.98     0.038 C 
ENDBRANCH  12  13
ENDBRANCH  11  12
ENDBRANCH   1  11
BRANCH   3  20
HETATM   20  OAS   D T3015     -10.395   1.736  -7.986  1.00 27.35    -0.326 OA
HETATM   21  CAA   D T3015      -9.185   0.946  -7.963  1.00 26.97     0.181 C 
ENDBRANCH   3  20
BRANCH  10  22
HETATM   22  NAR   D T3015     -12.448  -2.872  -9.405  1.00 28.41    -0.224 NA
BRANCH  22  23
HETATM   23  CAW   D T3015     -12.295  -2.877 -10.810  1.00 30.70     0.110 A 
HETATM   24  CAF   D T3015     -11.378  -2.040 -11.423  1.00 30.33     0.022 A 
HETATM   25  CAE   D T3015     -11.269  -2.045 -12.810  1.00 31.71     0.008 A 
HETATM   26  CAU   D T3015     -12.087  -2.902 -13.550  1.00 32.99     0.037 A 
HETATM   27 BR     D T3015     -12.066  -3.069 -15.453  1.00 41.09    -0.049 Br
HETATM   28  CAH   D T3015     -12.992  -3.718 -12.930  1.00 31.01     0.038 A 
HETATM   29  CAV   D T3015     -13.095  -3.707 -11.582  1.00 32.00     0.158 A 
HETATM   30  FAC   D T3015     -14.015  -4.531 -11.077  1.00 33.90    -0.203 F 
ENDBRANCH  22  23
ENDBRANCH  10  22
TORSDOF 6
ENDMDL
MODEL 9
REMARK VINA RESULT:    -7.256      3.784      8.206
REMARK INTER + INTRA:         -10.985
REMARK INTER:                  -9.866
REMARK INTRA:                  -1.119
REMARK UNBOUND:                -1.184
REMARK  6 active torsions:
REMARK  status: ('A' for Active; 'I' for Inactive)
REMARK    1  A    between atoms: CBC_7  and  CAO_8 
REMARK    2  A    between atoms: CAO_8  and  OAT_9 
REMARK    3  A    between atoms: OAT_9  and  CAY_10 
REMARK    4  A    between atoms: CAX_12  and  OAS_13 
REMARK    5  A    between atoms: C6_21  and  NAR_22 
REMARK    6  A    between atoms: NAR_22  and  CAW_23 
ROOT
HETATM    1  CAY   D T3015     -12.889   4.164  -4.167  1.00 27.56     0.118 A 
HETATM    2  CAI   D T3015     -12.390   5.447  -4.014  1.00 26.69     0.045 A 
HETATM    3  CAX   D T3015     -13.687   3.609  -3.184  1.00 27.38     0.117 A 
HETATM    4  CAJ   D T3015     -13.975   4.351  -2.032  1.00 26.81     0.031 A 
HETATM    5  C5    D T3015     -13.465   5.643  -1.878  1.00 27.31     0.056 A 
HETATM    6  C4    D T3015     -12.679   6.189  -2.882  1.00 26.48     0.088 A 
HETATM    7  N3    D T3015     -12.173   7.437  -2.730  1.00 27.11    -0.224 NA
HETATM    8  C2    D T3015     -12.435   8.153  -1.641  1.00 26.78     0.200 A 
HETATM    9  N1    D T3015     -13.211   7.675  -0.675  1.00 25.67    -0.205 NA
HETATM   10  C6    D T3015     -13.736   6.439  -0.740  1.00 27.45     0.166 A 
ENDROOT
BRANCH   1  11
HETATM   11  OAT   D T3015     -12.631   3.383  -5.257  1.00 28.48    -0.329 OA
BRANCH  11  12
HETATM   12  CAO   D T3015     -13.299   3.698  -6.463  1.00 34.10     0.149 C 
BRANCH  12  13
HETATM   13  CBC   D T3015     -13.118   2.435  -7.294  1.00 37.94     0.034 C 
HETATM   14  CAK   D T3015     -13.867   1.275  -6.666  1.00 39.50     0.038 C 
HETATM   15  CAM   D T3015     -13.785   0.033  -7.558  1.00 42.92     0.250 C 
HETATM   16  NBD   D T3015     -12.397  -0.324  -7.947  1.00 44.82     0.139 N 
HETATM   17  CAB   D T3015     -12.553  -1.100  -9.195  1.00 45.53     0.285 C 
HETATM   18  CAN   D T3015     -11.475   0.807  -8.278  1.00 44.14     0.250 C 
HETATM   19  CAL   D T3015     -11.647   2.025  -7.365  1.00 40.98     0.038 C 
ENDBRANCH  12  13
ENDBRANCH  11  12
ENDBRANCH   1  11
BRANCH   3  20
HETATM   20  OAS   D T3015     -14.139   2.320  -3.423  1.00 27.35    -0.326 OA
HETATM   21  CAA   D T3015     -13.555   1.223  -2.685  1.00 26.97     0.181 C 
ENDBRANCH   3  20
BRANCH  10  22
HETATM   22  NAR   D T3015     -14.554   5.950   0.333  1.00 28.41    -0.224 NA
BRANCH  22  23
HETATM   23  CAW   D T3015     -15.960   6.083   0.305  1.00 30.70     0.110 A 
HETATM   24  CAF   D T3015     -16.551   7.336   0.302  1.00 30.33     0.022 A 
HETATM   25  CAE   D T3015     -17.938   7.437   0.305  1.00 31.71     0.008 A 
HETATM   26  CAU   D T3015     -18.703   6.268   0.303  1.00 32.99     0.037 A 
HETATM   27 BR     D T3015     -20.611   6.203   0.281  1.00 41.09    -0.049 Br
HETATM   28  CAH   D T3015     -18.105   5.038   0.312  1.00 31.01     0.038 A 
HETATM   29  CAV   D T3015     -16.756   4.946   0.312  1.00 32.00     0.158 A 
HETATM   30  FAC   D T3015     -16.273   3.702   0.333  1.00 33.90    -0.203 F 
ENDBRANCH  22  23
ENDBRANCH  10  22
TORSDOF 6
ENDMDL
