MODEL 1
REMARK VINA RESULT:    -7.504      0.000      0.000
REMARK INTER + INTRA:         -11.423
REMARK INTER:                 -10.136
REMARK INTRA:                  -1.287
REMARK UNBOUND:                -1.287
REMARK  6 active torsions:
REMARK  status: ('A' for Active; 'I' for Inactive)
REMARK    1  A    between atoms: CBC_7  and  CAO_8 
REMARK    2  A    between atoms: CAO_8  and  OAT_9 
REMARK    3  A    between atoms: OAT_9  and  CAY_10 
REMARK    4  A    between atoms: CAX_12  and  OAS_13 
REMARK    5  A    between atoms: C6_21  and  NAR_22 
REMARK    6  A    between atoms: NAR_22  and  CAW_23 
ROOT
HETATM    1  CAY   D T3015       5.558   4.627   9.185  1.00 27.56     0.118 A 
HETATM    2  CAI   D T3015       6.037   5.079   7.968  1.00 26.69     0.045 A 
HETATM    3  CAX   D T3015       4.323   5.048   9.644  1.00 27.38     0.117 A 
HETATM    4  CAJ   D T3015       3.571   5.940   8.872  1.00 26.81     0.031 A 
HETATM    5  C5    D T3015       4.059   6.398   7.646  1.00 27.31     0.056 A 
HETATM    6  C4    D T3015       5.293   5.953   7.194  1.00 26.48     0.088 A 
HETATM    7  N3    D T3015       5.775   6.405   6.010  1.00 27.11    -0.224 NA
HETATM    8  C2    D T3015       5.072   7.255   5.267  1.00 26.78     0.200 A 
HETATM    9  N1    D T3015       3.873   7.674   5.651  1.00 25.67    -0.205 NA
HETATM   10  C6    D T3015       3.333   7.290   6.821  1.00 27.45     0.166 A 
ENDROOT
BRANCH   1  11
HETATM   11  OAT   D T3015       6.251   3.773   9.994  1.00 28.48    -0.329 OA
BRANCH  11  12
HETATM   12  CAO   D T3015       7.576   4.129  10.343  1.00 34.10     0.149 C 
BRANCH  12  13
HETATM   13  CBC   D T3015       7.628   3.829  11.834  1.00 37.94     0.034 C 
HETATM   14  CAK   D T3015       6.676   2.699  12.181  1.00 39.50     0.038 C 
HETATM   15  CAM   D T3015       6.810   2.314  13.657  1.00 42.92     0.250 C 
HETATM   16  NBD   D T3015       6.690   3.470  14.583  1.00 44.82     0.139 N 
HETATM   17  CAB   D T3015       7.401   3.038  15.804  1.00 45.53     0.285 C 
HETATM   18  CAN   D T3015       7.342   4.748  14.157  1.00 44.14     0.250 C 
HETATM   19  CAL   D T3015       7.195   5.041  12.661  1.00 40.98     0.038 C 
ENDBRANCH  12  13
ENDBRANCH  11  12
ENDBRANCH   1  11
BRANCH   3  20
HETATM   20  OAS   D T3015       3.928   4.544  10.875  1.00 27.35    -0.326 OA
HETATM   21  CAA   D T3015       2.882   3.547  10.922  1.00 26.97     0.181 C 
ENDBRANCH   3  20
BRANCH  10  22
HETATM   22  NAR   D T3015       2.042   7.780   7.211  1.00 28.41    -0.224 NA
BRANCH  22  23
HETATM   23  CAW   D T3015       0.882   7.478   6.463  1.00 30.70     0.110 A 
HETATM   24  CAF   D T3015       0.456   8.323   5.452  1.00 30.33     0.022 A 
HETATM   25  CAE   D T3015      -0.705   8.017   4.750  1.00 31.71     0.008 A 
HETATM   26  CAU   D T3015      -1.410   6.857   5.079  1.00 32.99     0.037 A 
HETATM   27 BR     D T3015      -3.005   6.257   4.217  1.00 41.09    -0.049 Br
HETATM   28  CAH   D T3015      -0.979   6.035   6.085  1.00 31.01     0.038 A 
HETATM   29  CAV   D T3015       0.149   6.340   6.763  1.00 32.00     0.158 A 
HETATM   30  FAC   D T3015       0.476   5.481   7.732  1.00 33.90    -0.203 F 
ENDBRANCH  22  23
ENDBRANCH  10  22
TORSDOF 6
ENDMDL
MODEL 2
REMARK VINA RESULT:    -7.418      5.175     10.188
REMARK INTER + INTRA:         -11.307
REMARK INTER:                 -10.285
REMARK INTRA:                  -1.022
REMARK UNBOUND:                -1.287
REMARK  6 active torsions:
REMARK  status: ('A' for Active; 'I' for Inactive)
REMARK    1  A    between atoms: CBC_7  and  CAO_8 
REMARK    2  A    between atoms: CAO_8  and  OAT_9 
REMARK    3  A    between atoms: OAT_9  and  CAY_10 
REMARK    4  A    between atoms: CAX_12  and  OAS_13 
REMARK    5  A    between atoms: C6_21  and  NAR_22 
REMARK    6  A    between atoms: NAR_22  and  CAW_23 
ROOT
HETATM    1  CAY   D T3015       3.242   9.664   3.421  1.00 27.56     0.118 A 
HETATM    2  CAI   D T3015       4.370   8.863   3.388  1.00 26.69     0.045 A 
HETATM    3  CAX   D T3015       2.531   9.814   4.597  1.00 27.38     0.117 A 
HETATM    4  CAJ   D T3015       2.957   9.140   5.747  1.00 26.81     0.031 A 
HETATM    5  C5    D T3015       4.093   8.328   5.710  1.00 27.31     0.056 A 
HETATM    6  C4    D T3015       4.802   8.202   4.525  1.00 26.48     0.088 A 
HETATM    7  N3    D T3015       5.899   7.405   4.482  1.00 27.11    -0.224 NA
HETATM    8  C2    D T3015       6.313   6.757   5.567  1.00 26.78     0.200 A 
HETATM    9  N1    D T3015       5.679   6.881   6.726  1.00 25.67    -0.205 NA
HETATM   10  C6    D T3015       4.573   7.635   6.847  1.00 27.45     0.166 A 
ENDROOT
BRANCH   1  11
HETATM   11  OAT   D T3015       2.763  10.332   2.330  1.00 28.48    -0.329 OA
BRANCH  11  12
HETATM   12  CAO   D T3015       3.695  10.715   1.335  1.00 34.10     0.149 C 
BRANCH  12  13
HETATM   13  CBC   D T3015       2.843  11.520   0.363  1.00 37.94     0.034 C 
HETATM   14  CAK   D T3015       2.019  10.594  -0.511  1.00 39.50     0.038 C 
HETATM   15  CAM   D T3015       1.073  11.399  -1.409  1.00 42.92     0.250 C 
HETATM   16  NBD   D T3015       1.760  12.462  -2.186  1.00 44.82     0.139 N 
HETATM   17  CAB   D T3015       0.695  13.441  -2.488  1.00 45.53     0.285 C 
HETATM   18  CAN   D T3015       2.836  13.228  -1.482  1.00 44.14     0.250 C 
HETATM   19  CAL   D T3015       3.712  12.357  -0.576  1.00 40.98     0.038 C 
ENDBRANCH  12  13
ENDBRANCH  11  12
ENDBRANCH   1  11
BRANCH   3  20
HETATM   20  OAS   D T3015       1.414  10.634   4.534  1.00 27.35    -0.326 OA
HETATM   21  CAA   D T3015       0.471  10.621   5.629  1.00 26.97     0.181 C 
ENDBRANCH   3  20
BRANCH  10  22
HETATM   22  NAR   D T3015       3.904   7.729   8.113  1.00 28.41    -0.224 NA
BRANCH  22  23
HETATM   23  CAW   D T3015       3.270   6.608   8.696  1.00 30.70     0.110 A 
HETATM   24  CAF   D T3015       3.973   5.756   9.531  1.00 30.33     0.022 A 
HETATM   25  CAE   D T3015       3.333   4.645  10.068  1.00 31.71     0.008 A 
HETATM   26  CAU   D T3015       1.990   4.420   9.756  1.00 32.99     0.037 A 
HETATM   27 BR     D T3015       0.937   2.968  10.413  1.00 41.09    -0.049 Br
HETATM   28  CAH   D T3015       1.311   5.267   8.924  1.00 31.01     0.038 A 
HETATM   29  CAV   D T3015       1.940   6.345   8.405  1.00 32.00     0.158 A 
HETATM   30  FAC   D T3015       1.193   7.101   7.596  1.00 33.90    -0.203 F 
ENDBRANCH  22  23
ENDBRANCH  10  22
TORSDOF 6
ENDMDL
MODEL 3
REMARK VINA RESULT:    -7.247      3.140      4.968
REMARK INTER + INTRA:         -11.076
REMARK INTER:                 -10.454
REMARK INTRA:                  -0.622
REMARK UNBOUND:                -1.287
REMARK  6 active torsions:
REMARK  status: ('A' for Active; 'I' for Inactive)
REMARK    1  A    between atoms: CBC_7  and  CAO_8 
REMARK    2  A    between atoms: CAO_8  and  OAT_9 
REMARK    3  A    between atoms: OAT_9  and  CAY_10 
REMARK    4  A    between atoms: CAX_12  and  OAS_13 
REMARK    5  A    between atoms: C6_21  and  NAR_22 
REMARK    6  A    between atoms: NAR_22  and  CAW_23 
ROOT
HETATM    1  CAY   D T3015       1.279   5.858   8.691  1.00 27.56     0.118 A 
HETATM    2  CAI   D T3015       0.153   5.530   7.957  1.00 26.69     0.045 A 
HETATM    3  CAX   D T3015       2.066   6.931   8.313  1.00 27.38     0.117 A 
HETATM    4  CAJ   D T3015       1.717   7.672   7.178  1.00 26.81     0.031 A 
HETATM    5  C5    D T3015       0.582   7.335   6.437  1.00 27.31     0.056 A 
HETATM    6  C4    D T3015      -0.204   6.265   6.840  1.00 26.48     0.088 A 
HETATM    7  N3    D T3015      -1.299   5.929   6.116  1.00 27.11    -0.224 NA
HETATM    8  C2    D T3015      -1.641   6.621   5.034  1.00 26.78     0.200 A 
HETATM    9  N1    D T3015      -0.933   7.672   4.638  1.00 25.67    -0.205 NA
HETATM   10  C6    D T3015       0.177   8.059   5.289  1.00 27.45     0.166 A 
ENDROOT
BRANCH   1  11
HETATM   11  OAT   D T3015       1.685   5.164   9.796  1.00 28.48    -0.329 OA
BRANCH  11  12
HETATM   12  CAO   D T3015       2.334   3.924   9.588  1.00 34.10     0.149 C 
BRANCH  12  13
HETATM   13  CBC   D T3015       3.724   4.167  10.159  1.00 37.94     0.034 C 
HETATM   14  CAK   D T3015       4.780   3.546   9.263  1.00 39.50     0.038 C 
HETATM   15  CAM   D T3015       6.185   3.888   9.769  1.00 42.92     0.250 C 
HETATM   16  NBD   D T3015       6.391   3.568  11.205  1.00 44.82     0.139 N 
HETATM   17  CAB   D T3015       7.492   4.459  11.625  1.00 45.53     0.285 C 
HETATM   18  CAN   D T3015       5.252   3.857  12.132  1.00 44.14     0.250 C 
HETATM   19  CAL   D T3015       3.880   3.523  11.537  1.00 40.98     0.038 C 
ENDBRANCH  12  13
ENDBRANCH  11  12
ENDBRANCH   1  11
BRANCH   3  20
HETATM   20  OAS   D T3015       3.175   7.182   9.107  1.00 27.35    -0.326 OA
HETATM   21  CAA   D T3015       4.479   7.259   8.486  1.00 26.97     0.181 C 
ENDBRANCH   3  20
BRANCH  10  22
HETATM   22  NAR   D T3015       0.928   9.188   4.820  1.00 28.41    -0.224 NA
BRANCH  22  23
HETATM   23  CAW   D T3015       2.276   9.061   4.418  1.00 30.70     0.110 A 
HETATM   24  CAF   D T3015       2.608   8.341   3.281  1.00 30.33     0.022 A 
HETATM   25  CAE   D T3015       3.945   8.207   2.925  1.00 31.71     0.008 A 
HETATM   26  CAU   D T3015       4.922   8.809   3.720  1.00 32.99     0.037 A 
HETATM   27 BR     D T3015       6.802   8.758   3.382  1.00 41.09    -0.049 Br
HETATM   28  CAH   D T3015       4.579   9.511   4.844  1.00 31.01     0.038 A 
HETATM   29  CAV   D T3015       3.278   9.636   5.185  1.00 32.00     0.158 A 
HETATM   30  FAC   D T3015       3.050  10.329   6.304  1.00 33.90    -0.203 F 
ENDBRANCH  22  23
ENDBRANCH  10  22
TORSDOF 6
ENDMDL
MODEL 4
REMARK VINA RESULT:    -7.206      4.215      9.045
REMARK INTER + INTRA:         -11.020
REMARK INTER:                  -9.769
REMARK INTRA:                  -1.251
REMARK UNBOUND:                -1.287
REMARK  6 active torsions:
REMARK  status: ('A' for Active; 'I' for Inactive)
REMARK    1  A    between atoms: CBC_7  and  CAO_8 
REMARK    2  A    between atoms: CAO_8  and  OAT_9 
REMARK    3  A    between atoms: OAT_9  and  CAY_10 
REMARK    4  A    between atoms: CAX_12  and  OAS_13 
REMARK    5  A    between atoms: C6_21  and  NAR_22 
REMARK    6  A    between atoms: NAR_22  and  CAW_23 
ROOT
HETATM    1  CAY   D T3015       3.209   7.409   7.698  1.00 27.56     0.118 A 
HETATM    2  CAI   D T3015       2.095   6.789   8.235  1.00 26.69     0.045 A 
HETATM    3  CAX   D T3015       4.466   6.863   7.887  1.00 27.38     0.117 A 
HETATM    4  CAJ   D T3015       4.598   5.686   8.632  1.00 26.81     0.031 A 
HETATM    5  C5    D T3015       3.471   5.065   9.177  1.00 27.31     0.056 A 
HETATM    6  C4    D T3015       2.217   5.619   8.964  1.00 26.48     0.088 A 
HETATM    7  N3    D T3015       1.123   5.025   9.501  1.00 27.11    -0.224 NA
HETATM    8  C2    D T3015       1.234   3.908  10.214  1.00 26.78     0.200 A 
HETATM    9  N1    D T3015       2.413   3.331  10.409  1.00 25.67    -0.205 NA
HETATM   10  C6    D T3015       3.548   3.867   9.927  1.00 27.45     0.166 A 
ENDROOT
BRANCH   1  11
HETATM   11  OAT   D T3015       3.151   8.569   6.979  1.00 28.48    -0.329 OA
BRANCH  11  12
HETATM   12  CAO   D T3015       2.487   8.532   5.729  1.00 34.10     0.149 C 
BRANCH  12  13
HETATM   13  CBC   D T3015       3.532   9.087   4.772  1.00 37.94     0.034 C 
HETATM   14  CAK   D T3015       2.876   9.968   3.725  1.00 39.50     0.038 C 
HETATM   15  CAM   D T3015       3.934  10.624   2.832  1.00 42.92     0.250 C 
HETATM   16  NBD   D T3015       4.894   9.654   2.245  1.00 44.82     0.139 N 
HETATM   17  CAB   D T3015       6.096  10.462   1.949  1.00 45.53     0.285 C 
HETATM   18  CAN   D T3015       5.357   8.539   3.130  1.00 44.14     0.250 C 
HETATM   19  CAL   D T3015       4.248   7.965   4.019  1.00 40.98     0.038 C 
ENDBRANCH  12  13
ENDBRANCH  11  12
ENDBRANCH   1  11
BRANCH   3  20
HETATM   20  OAS   D T3015       5.523   7.555   7.315  1.00 27.35    -0.326 OA
HETATM   21  CAA   D T3015       6.584   6.811   6.674  1.00 26.97     0.181 C 
ENDBRANCH   3  20
BRANCH  10  22
HETATM   22  NAR   D T3015       4.807   3.224  10.175  1.00 28.41    -0.224 NA
BRANCH  22  23
HETATM   23  CAW   D T3015       5.591   3.550  11.305  1.00 30.70     0.110 A 
HETATM   24  CAF   D T3015       5.108   3.329  12.584  1.00 30.33     0.022 A 
HETATM   25  CAE   D T3015       5.888   3.686  13.679  1.00 31.71     0.008 A 
HETATM   26  CAU   D T3015       7.145   4.252  13.459  1.00 32.99     0.037 A 
HETATM   27 BR     D T3015       8.367   4.783  14.828  1.00 41.09    -0.049 Br
HETATM   28  CAH   D T3015       7.605   4.470  12.189  1.00 31.01     0.038 A 
HETATM   29  CAV   D T3015       6.841   4.122  11.130  1.00 32.00     0.158 A 
HETATM   30  FAC   D T3015       7.376   4.387   9.935  1.00 33.90    -0.203 F 
ENDBRANCH  22  23
ENDBRANCH  10  22
TORSDOF 6
ENDMDL
MODEL 5
REMARK VINA RESULT:    -7.103      4.829      6.992
REMARK INTER + INTRA:         -10.882
REMARK INTER:                 -10.056
REMARK INTRA:                  -0.826
REMARK UNBOUND:                -1.287
REMARK  6 active torsions:
REMARK  status: ('A' for Active; 'I' for Inactive)
REMARK    1  A    between atoms: CBC_7  and  CAO_8 
REMARK    2  A    between atoms: CAO_8  and  OAT_9 
REMARK    3  A    between atoms: OAT_9  and  CAY_10 
REMARK    4  A    between atoms: CAX_12  and  OAS_13 
REMARK    5  A    between atoms: C6_21  and  NAR_22 
REMARK    6  A    between atoms: NAR_22  and  CAW_23 
ROOT
HETATM    1  CAY   D T3015       3.160   8.570   5.948  1.00 27.56     0.118 A 
HETATM    2  CAI   D T3015       4.325   8.122   5.351  1.00 26.69     0.045 A 
HETATM    3  CAX   D T3015       2.543   9.720   5.490  1.00 27.38     0.117 A 
HETATM    4  CAJ   D T3015       3.114  10.427   4.426  1.00 26.81     0.031 A 
HETATM    5  C5    D T3015       4.293   9.975   3.828  1.00 27.31     0.056 A 
HETATM    6  C4    D T3015       4.889   8.811   4.292  1.00 26.48     0.088 A 
HETATM    7  N3    D T3015       6.039   8.376   3.721  1.00 27.11    -0.224 NA
HETATM    8  C2    D T3015       6.594   9.040   2.712  1.00 26.78     0.200 A 
HETATM    9  N1    D T3015       6.033  10.137   2.220  1.00 25.67    -0.205 NA
HETATM   10  C6    D T3015       4.903  10.646   2.741  1.00 27.45     0.166 A 
ENDROOT
BRANCH   1  11
HETATM   11  OAT   D T3015       2.564   7.937   7.001  1.00 28.48    -0.329 OA
BRANCH  11  12
HETATM   12  CAO   D T3015       1.428   7.137   6.728  1.00 34.10     0.149 C 
BRANCH  12  13
HETATM   13  CBC   D T3015       1.569   5.995   7.724  1.00 37.94     0.034 C 
HETATM   14  CAK   D T3015       0.205   5.565   8.232  1.00 39.50     0.038 C 
HETATM   15  CAM   D T3015       0.331   4.340   9.143  1.00 42.92     0.250 C 
HETATM   16  NBD   D T3015       1.321   4.516  10.237  1.00 44.82     0.139 N 
HETATM   17  CAB   D T3015       1.718   3.139  10.597  1.00 45.53     0.285 C 
HETATM   18  CAN   D T3015       2.589   5.233   9.892  1.00 44.14     0.250 C 
HETATM   19  CAL   D T3015       2.382   6.420   8.947  1.00 40.98     0.038 C 
ENDBRANCH  12  13
ENDBRANCH  11  12
ENDBRANCH   1  11
BRANCH   3  20
HETATM   20  OAS   D T3015       1.382  10.093   6.151  1.00 27.35    -0.326 OA
HETATM   21  CAA   D T3015       0.415  10.916   5.460  1.00 26.97     0.181 C 
ENDBRANCH   3  20
BRANCH  10  22
HETATM   22  NAR   D T3015       4.337  11.846   2.195  1.00 28.41    -0.224 NA
BRANCH  22  23
HETATM   23  CAW   D T3015       3.420  11.805   1.121  1.00 30.70     0.110 A 
HETATM   24  CAF   D T3015       3.836  11.433  -0.147  1.00 30.33     0.022 A 
HETATM   25  CAE   D T3015       2.918  11.429  -1.192  1.00 31.71     0.008 A 
HETATM   26  CAU   D T3015       1.595  11.794  -0.934  1.00 32.99     0.037 A 
HETATM   27 BR     D T3015       0.190  11.827  -2.228  1.00 41.09    -0.049 Br
HETATM   28  CAH   D T3015       1.201  12.165   0.323  1.00 31.01     0.038 A 
HETATM   29  CAV   D T3015       2.099  12.168   1.334  1.00 32.00     0.158 A 
HETATM   30  FAC   D T3015       1.617  12.557   2.517  1.00 33.90    -0.203 F 
ENDBRANCH  22  23
ENDBRANCH  10  22
TORSDOF 6
ENDMDL
MODEL 6
REMARK VINA RESULT:    -7.063      3.221      4.537
REMARK INTER + INTRA:         -10.827
REMARK INTER:                  -9.636
REMARK INTRA:                  -1.191
REMARK UNBOUND:                -1.287
REMARK  6 active torsions:
REMARK  status: ('A' for Active; 'I' for Inactive)
REMARK    1  A    between atoms: CBC_7  and  CAO_8 
REMARK    2  A    between atoms: CAO_8  and  OAT_9 
REMARK    3  A    between atoms: OAT_9  and  CAY_10 
REMARK    4  A    between atoms: CAX_12  and  OAS_13 
REMARK    5  A    between atoms: C6_21  and  NAR_22 
REMARK    6  A    between atoms: NAR_22  and  CAW_23 
ROOT
HETATM    1  CAY   D T3015       3.281   5.753   7.942  1.00 27.56     0.118 A 
HETATM    2  CAI   D T3015       1.931   5.984   7.746  1.00 26.69     0.045 A 
HETATM    3  CAX   D T3015       4.218   6.626   7.420  1.00 27.38     0.117 A 
HETATM    4  CAJ   D T3015       3.787   7.737   6.686  1.00 26.81     0.031 A 
HETATM    5  C5    D T3015       2.423   7.965   6.486  1.00 27.31     0.056 A 
HETATM    6  C4    D T3015       1.498   7.086   7.029  1.00 26.48     0.088 A 
HETATM    7  N3    D T3015       0.174   7.298   6.827  1.00 27.11    -0.224 NA
HETATM    8  C2    D T3015      -0.250   8.348   6.129  1.00 26.78     0.200 A 
HETATM    9  N1    D T3015       0.605   9.228   5.624  1.00 25.67    -0.205 NA
HETATM   10  C6    D T3015       1.934   9.079   5.762  1.00 27.45     0.166 A 
ENDROOT
BRANCH   1  11
HETATM   11  OAT   D T3015       3.767   4.679   8.631  1.00 28.48    -0.329 OA
BRANCH  11  12
HETATM   12  CAO   D T3015       3.286   4.471   9.946  1.00 34.10     0.149 C 
BRANCH  12  13
HETATM   13  CBC   D T3015       4.566   4.383  10.766  1.00 37.94     0.034 C 
HETATM   14  CAK   D T3015       5.664   3.712   9.964  1.00 39.50     0.038 C 
HETATM   15  CAM   D T3015       6.985   3.726  10.740  1.00 42.92     0.250 C 
HETATM   16  NBD   D T3015       6.867   3.182  12.117  1.00 44.82     0.139 N 
HETATM   17  CAB   D T3015       7.992   3.797  12.852  1.00 45.53     0.285 C 
HETATM   18  CAN   D T3015       5.632   3.540  12.882  1.00 44.14     0.250 C 
HETATM   19  CAL   D T3015       4.361   3.540  12.026  1.00 40.98     0.038 C 
ENDBRANCH  12  13
ENDBRANCH  11  12
ENDBRANCH   1  11
BRANCH   3  20
HETATM   20  OAS   D T3015       5.547   6.312   7.665  1.00 27.35    -0.326 OA
HETATM   21  CAA   D T3015       6.457   6.195   6.548  1.00 26.97     0.181 C 
ENDBRANCH   3  20
BRANCH  10  22
HETATM   22  NAR   D T3015       2.828  10.042   5.184  1.00 28.41    -0.224 NA
BRANCH  22  23
HETATM   23  CAW   D T3015       2.775  10.363   3.809  1.00 30.70     0.110 A 
HETATM   24  CAF   D T3015       2.371  11.621   3.395  1.00 30.33     0.022 A 
HETATM   25  CAE   D T3015       2.301  11.901   2.034  1.00 31.71     0.008 A 
HETATM   26  CAU   D T3015       2.648  10.906   1.119  1.00 32.99     0.037 A 
HETATM   27 BR     D T3015       2.639  11.107  -0.781  1.00 41.09    -0.049 Br
HETATM   28  CAH   D T3015       3.040   9.666   1.544  1.00 31.01     0.038 A 
HETATM   29  CAV   D T3015       3.104   9.400   2.867  1.00 32.00     0.158 A 
HETATM   30  FAC   D T3015       3.485   8.158   3.177  1.00 33.90    -0.203 F 
ENDBRANCH  22  23
ENDBRANCH  10  22
TORSDOF 6
ENDMDL
MODEL 7
REMARK VINA RESULT:    -6.871      3.856      8.984
REMARK INTER + INTRA:         -10.568
REMARK INTER:                  -9.463
REMARK INTRA:                  -1.105
REMARK UNBOUND:                -1.287
REMARK  6 active torsions:
REMARK  status: ('A' for Active; 'I' for Inactive)
REMARK    1  A    between atoms: CBC_7  and  CAO_8 
REMARK    2  A    between atoms: CAO_8  and  OAT_9 
REMARK    3  A    between atoms: OAT_9  and  CAY_10 
REMARK    4  A    between atoms: CAX_12  and  OAS_13 
REMARK    5  A    between atoms: C6_21  and  NAR_22 
REMARK    6  A    between atoms: NAR_22  and  CAW_23 
ROOT
HETATM    1  CAY   D T3015       2.870   6.374   8.324  1.00 27.56     0.118 A 
HETATM    2  CAI   D T3015       4.115   6.569   7.752  1.00 26.69     0.045 A 
HETATM    3  CAX   D T3015       2.690   5.386   9.275  1.00 27.38     0.117 A 
HETATM    4  CAJ   D T3015       3.775   4.582   9.643  1.00 26.81     0.031 A 
HETATM    5  C5    D T3015       5.029   4.778   9.061  1.00 27.31     0.056 A 
HETATM    6  C4    D T3015       5.194   5.784   8.120  1.00 26.48     0.088 A 
HETATM    7  N3    D T3015       6.408   5.969   7.544  1.00 27.11    -0.224 NA
HETATM    8  C2    D T3015       7.446   5.211   7.882  1.00 26.78     0.200 A 
HETATM    9  N1    D T3015       7.333   4.262   8.803  1.00 25.67    -0.205 NA
HETATM   10  C6    D T3015       6.161   4.002   9.407  1.00 27.45     0.166 A 
ENDROOT
BRANCH   1  11
HETATM   11  OAT   D T3015       1.768   7.111   7.995  1.00 28.48    -0.329 OA
BRANCH  11  12
HETATM   12  CAO   D T3015       1.794   7.816   6.767  1.00 34.10     0.149 C 
BRANCH  12  13
HETATM   13  CBC   D T3015       0.590   7.252   6.026  1.00 37.94     0.034 C 
HETATM   14  CAK   D T3015      -0.195   8.369   5.364  1.00 39.50     0.038 C 
HETATM   15  CAM   D T3015      -1.339   7.798   4.520  1.00 42.92     0.250 C 
HETATM   16  NBD   D T3015      -2.207   6.850   5.265  1.00 44.82     0.139 N 
HETATM   17  CAB   D T3015      -2.817   6.009   4.214  1.00 45.53     0.285 C 
HETATM   18  CAN   D T3015      -1.526   5.905   6.205  1.00 44.14     0.250 C 
HETATM   19  CAL   D T3015      -0.370   6.543   6.982  1.00 40.98     0.038 C 
ENDBRANCH  12  13
ENDBRANCH  11  12
ENDBRANCH   1  11
BRANCH   3  20
HETATM   20  OAS   D T3015       1.408   5.263   9.790  1.00 27.35    -0.326 OA
HETATM   21  CAA   D T3015       0.625   4.096   9.453  1.00 26.97     0.181 C 
ENDBRANCH   3  20
BRANCH  10  22
HETATM   22  NAR   D T3015       6.074   2.955  10.384  1.00 28.41    -0.224 NA
BRANCH  22  23
HETATM   23  CAW   D T3015       6.689   3.076  11.651  1.00 30.70     0.110 A 
HETATM   24  CAF   D T3015       8.022   2.740  11.822  1.00 30.33     0.022 A 
HETATM   25  CAE   D T3015       8.594   2.842  13.085  1.00 31.71     0.008 A 
HETATM   26  CAU   D T3015       7.809   3.288  14.151  1.00 32.99     0.037 A 
HETATM   27 BR     D T3015       8.420   3.516  15.946  1.00 41.09    -0.049 Br
HETATM   28  CAH   D T3015       6.492   3.610  13.967  1.00 31.01     0.038 A 
HETATM   29  CAV   D T3015       5.942   3.508  12.736  1.00 32.00     0.158 A 
HETATM   30  FAC   D T3015       4.649   3.834  12.666  1.00 33.90    -0.203 F 
ENDBRANCH  22  23
ENDBRANCH  10  22
TORSDOF 6
ENDMDL
MODEL 8
REMARK VINA RESULT:    -6.523      2.553      3.709
REMARK INTER + INTRA:         -10.097
REMARK INTER:                  -8.932
REMARK INTRA:                  -1.165
REMARK UNBOUND:                -1.287
REMARK  6 active torsions:
REMARK  status: ('A' for Active; 'I' for Inactive)
REMARK    1  A    between atoms: CBC_7  and  CAO_8 
REMARK    2  A    between atoms: CAO_8  and  OAT_9 
REMARK    3  A    between atoms: OAT_9  and  CAY_10 
REMARK    4  A    between atoms: CAX_12  and  OAS_13 
REMARK    5  A    between atoms: C6_21  and  NAR_22 
REMARK    6  A    between atoms: NAR_22  and  CAW_23 
ROOT
HETATM    1  CAY   D T3015       5.184   4.134   9.552  1.00 27.56     0.118 A 
HETATM    2  CAI   D T3015       3.806   4.230   9.456  1.00 26.69     0.045 A 
HETATM    3  CAX   D T3015       5.988   5.101   8.977  1.00 27.38     0.117 A 
HETATM    4  CAJ   D T3015       5.397   6.169   8.293  1.00 26.81     0.031 A 
HETATM    5  C5    D T3015       4.006   6.260   8.193  1.00 27.31     0.056 A 
HETATM    6  C4    D T3015       3.215   5.289   8.788  1.00 26.48     0.088 A 
HETATM    7  N3    D T3015       1.866   5.368   8.684  1.00 27.11    -0.224 NA
HETATM    8  C2    D T3015       1.290   6.375   8.034  1.00 26.78     0.200 A 
HETATM    9  N1    D T3015       2.014   7.341   7.482  1.00 25.67    -0.205 NA
HETATM   10  C6    D T3015       3.358   7.325   7.523  1.00 27.45     0.166 A 
ENDROOT
BRANCH   1  11
HETATM   11  OAT   D T3015       5.823   3.109  10.188  1.00 28.48    -0.329 OA
BRANCH  11  12
HETATM   12  CAO   D T3015       5.459   2.842  11.530  1.00 34.10     0.149 C 
BRANCH  12  13
HETATM   13  CBC   D T3015       6.476   3.648  12.325  1.00 37.94     0.034 C 
HETATM   14  CAK   D T3015       7.866   3.065  12.152  1.00 39.50     0.038 C 
HETATM   15  CAM   D T3015       8.910   3.941  12.853  1.00 42.92     0.250 C 
HETATM   16  NBD   D T3015       8.581   4.228  14.273  1.00 44.82     0.139 N 
HETATM   17  CAB   D T3015       9.311   5.477  14.573  1.00 45.53     0.285 C 
HETATM   18  CAN   D T3015       7.145   4.503  14.594  1.00 44.14     0.250 C 
HETATM   19  CAL   D T3015       6.166   3.612  13.823  1.00 40.98     0.038 C 
ENDBRANCH  12  13
ENDBRANCH  11  12
ENDBRANCH   1  11
BRANCH   3  20
HETATM   20  OAS   D T3015       7.356   4.920   9.123  1.00 27.35    -0.326 OA
HETATM   21  CAA   D T3015       8.161   4.684   7.945  1.00 26.97     0.181 C 
ENDBRANCH   3  20
BRANCH  10  22
HETATM   22  NAR   D T3015       4.107   8.377   6.898  1.00 28.41    -0.224 NA
BRANCH  22  23
HETATM   23  CAW   D T3015       3.848   8.775   5.567  1.00 30.70     0.110 A 
HETATM   24  CAF   D T3015       4.447   8.117   4.506  1.00 30.33     0.022 A 
HETATM   25  CAE   D T3015       4.197   8.548   3.207  1.00 31.71     0.008 A 
HETATM   26  CAU   D T3015       3.340   9.632   3.006  1.00 32.99     0.037 A 
HETATM   27 BR     D T3015       2.857  10.351   1.304  1.00 41.09    -0.049 Br
HETATM   28  CAH   D T3015       2.761  10.276   4.066  1.00 31.01     0.038 A 
HETATM   29  CAV   D T3015       3.010   9.853   5.325  1.00 32.00     0.158 A 
HETATM   30  FAC   D T3015       2.407  10.555   6.287  1.00 33.90    -0.203 F 
ENDBRANCH  22  23
ENDBRANCH  10  22
TORSDOF 6
ENDMDL
