MODEL 1
REMARK VINA RESULT:    -9.218      0.000      0.000
REMARK INTER + INTRA:         -13.355
REMARK INTER:                 -12.451
REMARK INTRA:                  -0.903
REMARK UNBOUND:                -0.903
REMARK  6 active torsions:
REMARK  status: ('A' for Active; 'I' for Inactive)
REMARK    1  A    between atoms: CBC_7  and  CAO_8 
REMARK    2  A    between atoms: CAO_8  and  OAT_9 
REMARK    3  A    between atoms: OAT_9  and  CAY_10 
REMARK    4  A    between atoms: CAX_12  and  OAS_13 
REMARK    5  A    between atoms: C6_21  and  NAR_22 
REMARK    6  A    between atoms: NAR_22  and  CAW_23 
ROOT
HETATM    1  CAY   D T3015       7.143  11.503   3.384  1.00 27.56     0.118 A 
HETATM    2  CAI   D T3015       6.170  10.598   3.774  1.00 26.69     0.045 A 
HETATM    3  CAX   D T3015       6.805  12.587   2.592  1.00 27.38     0.117 A 
HETATM    4  CAJ   D T3015       5.476  12.751   2.184  1.00 26.81     0.031 A 
HETATM    5  C5    D T3015       4.499  11.832   2.575  1.00 27.31     0.056 A 
HETATM    6  C4    D T3015       4.853  10.761   3.381  1.00 26.48     0.088 A 
HETATM    7  N3    D T3015       3.909   9.862   3.752  1.00 27.11    -0.224 NA
HETATM    8  C2    D T3015       2.644  10.003   3.370  1.00 26.78     0.200 A 
HETATM    9  N1    D T3015       2.262  11.036   2.626  1.00 25.67    -0.205 NA
HETATM   10  C6    D T3015       3.140  11.960   2.200  1.00 27.45     0.166 A 
ENDROOT
BRANCH   1  11
HETATM   11  OAT   D T3015       8.458  11.389   3.732  1.00 28.48    -0.329 OA
BRANCH  11  12
HETATM   12  CAO   D T3015       9.169  10.265   3.250  1.00 34.10     0.149 C 
BRANCH  12  13
HETATM   13  CBC   D T3015      10.237  10.055   4.315  1.00 37.94     0.034 C 
HETATM   14  CAK   D T3015       9.627   9.446   5.563  1.00 39.50     0.038 C 
HETATM   15  CAM   D T3015      10.713   9.125   6.594  1.00 42.92     0.250 C 
HETATM   16  NBD   D T3015      11.603  10.276   6.893  1.00 44.82     0.139 N 
HETATM   17  CAB   D T3015      12.850   9.658   7.388  1.00 45.53     0.285 C 
HETATM   18  CAN   D T3015      12.002  11.141   5.738  1.00 44.14     0.250 C 
HETATM   19  CAL   D T3015      10.871  11.383   4.734  1.00 40.98     0.038 C 
ENDBRANCH  12  13
ENDBRANCH  11  12
ENDBRANCH   1  11
BRANCH   3  20
HETATM   20  OAS   D T3015       7.845  13.438   2.251  1.00 27.35    -0.326 OA
HETATM   21  CAA   D T3015       8.226  13.558   0.861  1.00 26.97     0.181 C 
ENDBRANCH   3  20
BRANCH  10  22
HETATM   22  NAR   D T3015       2.692  13.051   1.381  1.00 28.41    -0.224 NA
BRANCH  22  23
HETATM   23  CAW   D T3015       1.345  13.159   0.972  1.00 30.70     0.110 A 
HETATM   24  CAF   D T3015       0.984  12.892  -0.339  1.00 30.33     0.022 A 
HETATM   25  CAE   D T3015      -0.346  13.034  -0.723  1.00 31.71     0.008 A 
HETATM   26  CAU   D T3015      -1.286  13.438   0.227  1.00 32.99     0.037 A 
HETATM   27 BR     D T3015      -3.153  13.666  -0.101  1.00 41.09    -0.049 Br
HETATM   28  CAH   D T3015      -0.912  13.705   1.516  1.00 31.01     0.038 A 
HETATM   29  CAV   D T3015       0.381  13.567   1.882  1.00 32.00     0.158 A 
HETATM   30  FAC   D T3015       0.643  13.863   3.158  1.00 33.90    -0.203 F 
ENDBRANCH  22  23
ENDBRANCH  10  22
TORSDOF 6
ENDMDL
MODEL 2
REMARK VINA RESULT:    -8.630      2.843      3.338
REMARK INTER + INTRA:         -12.560
REMARK INTER:                 -11.483
REMARK INTRA:                  -1.078
REMARK UNBOUND:                -0.903
REMARK  6 active torsions:
REMARK  status: ('A' for Active; 'I' for Inactive)
REMARK    1  A    between atoms: CBC_7  and  CAO_8 
REMARK    2  A    between atoms: CAO_8  and  OAT_9 
REMARK    3  A    between atoms: OAT_9  and  CAY_10 
REMARK    4  A    between atoms: CAX_12  and  OAS_13 
REMARK    5  A    between atoms: C6_21  and  NAR_22 
REMARK    6  A    between atoms: NAR_22  and  CAW_23 
ROOT
HETATM    1  CAY   D T3015       6.360  11.982   2.775  1.00 27.56     0.118 A 
HETATM    2  CAI   D T3015       5.044  11.744   3.132  1.00 26.69     0.045 A 
HETATM    3  CAX   D T3015       6.658  12.500   1.526  1.00 27.38     0.117 A 
HETATM    4  CAJ   D T3015       5.618  12.769   0.629  1.00 26.81     0.031 A 
HETATM    5  C5    D T3015       4.291  12.521   0.991  1.00 27.31     0.056 A 
HETATM    6  C4    D T3015       4.011  12.017   2.252  1.00 26.48     0.088 A 
HETATM    7  N3    D T3015       2.726  11.765   2.601  1.00 27.11    -0.224 NA
HETATM    8  C2    D T3015       1.728  12.013   1.759  1.00 26.78     0.200 A 
HETATM    9  N1    D T3015       1.956  12.528   0.556  1.00 25.67    -0.205 NA
HETATM   10  C6    D T3015       3.203  12.788   0.126  1.00 27.45     0.166 A 
ENDROOT
BRANCH   1  11
HETATM   11  OAT   D T3015       7.419  11.725   3.596  1.00 28.48    -0.329 OA
BRANCH  11  12
HETATM   12  CAO   D T3015       7.592  10.394   4.046  1.00 34.10     0.149 C 
BRANCH  12  13
HETATM   13  CBC   D T3015       8.918  10.456   4.792  1.00 37.94     0.034 C 
HETATM   14  CAK   D T3015       9.851  11.453   4.131  1.00 39.50     0.038 C 
HETATM   15  CAM   D T3015      11.141  11.605   4.943  1.00 42.92     0.250 C 
HETATM   16  NBD   D T3015      11.805  10.312   5.246  1.00 44.82     0.139 N 
HETATM   17  CAB   D T3015      12.614  10.587   6.451  1.00 45.53     0.285 C 
HETATM   18  CAN   D T3015      10.915   9.161   5.601  1.00 44.14     0.250 C 
HETATM   19  CAL   D T3015       9.630   9.102   4.771  1.00 40.98     0.038 C 
ENDBRANCH  12  13
ENDBRANCH  11  12
ENDBRANCH   1  11
BRANCH   3  20
HETATM   20  OAS   D T3015       8.003  12.704   1.258  1.00 27.35    -0.326 OA
HETATM   21  CAA   D T3015       8.429  13.989   0.750  1.00 26.97     0.181 C 
ENDBRANCH   3  20
BRANCH  10  22
HETATM   22  NAR   D T3015       3.410  13.325  -1.189  1.00 28.41    -0.224 NA
BRANCH  22  23
HETATM   23  CAW   D T3015       3.316  14.712  -1.440  1.00 30.70     0.110 A 
HETATM   24  CAF   D T3015       4.455  15.498  -1.492  1.00 30.33     0.022 A 
HETATM   25  CAE   D T3015       4.331  16.866  -1.713  1.00 31.71     0.008 A 
HETATM   26  CAU   D T3015       3.057  17.412  -1.882  1.00 32.99     0.037 A 
HETATM   27 BR     D T3015       2.687  19.255  -2.217  1.00 41.09    -0.049 Br
HETATM   28  CAH   D T3015       1.941  16.624  -1.821  1.00 31.01     0.038 A 
HETATM   29  CAV   D T3015       2.068  15.296  -1.604  1.00 32.00     0.158 A 
HETATM   30  FAC   D T3015       0.918  14.619  -1.551  1.00 33.90    -0.203 F 
ENDBRANCH  22  23
ENDBRANCH  10  22
TORSDOF 6
ENDMDL
MODEL 3
REMARK VINA RESULT:    -8.267      4.939      9.626
REMARK INTER + INTRA:         -12.071
REMARK INTER:                 -10.939
REMARK INTRA:                  -1.132
REMARK UNBOUND:                -0.903
REMARK  6 active torsions:
REMARK  status: ('A' for Active; 'I' for Inactive)
REMARK    1  A    between atoms: CBC_7  and  CAO_8 
REMARK    2  A    between atoms: CAO_8  and  OAT_9 
REMARK    3  A    between atoms: OAT_9  and  CAY_10 
REMARK    4  A    between atoms: CAX_12  and  OAS_13 
REMARK    5  A    between atoms: C6_21  and  NAR_22 
REMARK    6  A    between atoms: NAR_22  and  CAW_23 
ROOT
HETATM    1  CAY   D T3015       5.230  13.598   0.386  1.00 27.56     0.118 A 
HETATM    2  CAI   D T3015       4.500  13.013   1.406  1.00 26.69     0.045 A 
HETATM    3  CAX   D T3015       6.564  13.275   0.213  1.00 27.38     0.117 A 
HETATM    4  CAJ   D T3015       7.168  12.361   1.085  1.00 26.81     0.031 A 
HETATM    5  C5    D T3015       6.429  11.777   2.117  1.00 27.31     0.056 A 
HETATM    6  C4    D T3015       5.090  12.101   2.265  1.00 26.48     0.088 A 
HETATM    7  N3    D T3015       4.374  11.545   3.273  1.00 27.11    -0.224 NA
HETATM    8  C2    D T3015       4.934  10.677   4.110  1.00 26.78     0.200 A 
HETATM    9  N1    D T3015       6.206  10.317   3.977  1.00 25.67    -0.205 NA
HETATM   10  C6    D T3015       6.989  10.838   3.016  1.00 27.45     0.166 A 
ENDROOT
BRANCH   1  11
HETATM   11  OAT   D T3015       4.706  14.510  -0.485  1.00 28.48    -0.329 OA
BRANCH  11  12
HETATM   12  CAO   D T3015       3.659  14.079  -1.334  1.00 34.10     0.149 C 
BRANCH  12  13
HETATM   13  CBC   D T3015       3.488  15.254  -2.287  1.00 37.94     0.034 C 
HETATM   14  CAK   D T3015       4.836  15.865  -2.622  1.00 39.50     0.038 C 
HETATM   15  CAM   D T3015       4.681  16.971  -3.669  1.00 42.92     0.250 C 
HETATM   16  NBD   D T3015       3.665  17.991  -3.307  1.00 44.82     0.139 N 
HETATM   17  CAB   D T3015       3.252  18.575  -4.600  1.00 45.53     0.285 C 
HETATM   18  CAN   D T3015       2.410  17.494  -2.660  1.00 44.14     0.250 C 
HETATM   19  CAL   D T3015       2.645  16.363  -1.654  1.00 40.98     0.038 C 
ENDBRANCH  12  13
ENDBRANCH  11  12
ENDBRANCH   1  11
BRANCH   3  20
HETATM   20  OAS   D T3015       7.214  13.912  -0.834  1.00 27.35    -0.326 OA
HETATM   21  CAA   D T3015       8.030  15.071  -0.551  1.00 26.97     0.181 C 
ENDBRANCH   3  20
BRANCH  10  22
HETATM   22  NAR   D T3015       8.364  10.439   2.918  1.00 28.41    -0.224 NA
BRANCH  22  23
HETATM   23  CAW   D T3015       9.325  10.869   3.859  1.00 30.70     0.110 A 
HETATM   24  CAF   D T3015       9.873  12.139   3.776  1.00 30.33     0.022 A 
HETATM   25  CAE   D T3015      10.839  12.527   4.698  1.00 31.71     0.008 A 
HETATM   26  CAU   D T3015      11.228  11.626   5.691  1.00 32.99     0.037 A 
HETATM   27 BR     D T3015      12.516  11.982   7.056  1.00 41.09    -0.049 Br
HETATM   28  CAH   D T3015      10.683  10.373   5.756  1.00 31.01     0.038 A 
HETATM   29  CAV   D T3015       9.746  10.001   4.855  1.00 32.00     0.158 A 
HETATM   30  FAC   D T3015       9.286   8.755   4.999  1.00 33.90    -0.203 F 
ENDBRANCH  22  23
ENDBRANCH  10  22
TORSDOF 6
ENDMDL
MODEL 4
REMARK VINA RESULT:    -8.212      4.407      7.360
REMARK INTER + INTRA:         -11.995
REMARK INTER:                 -10.743
REMARK INTRA:                  -1.252
REMARK UNBOUND:                -0.903
REMARK  6 active torsions:
REMARK  status: ('A' for Active; 'I' for Inactive)
REMARK    1  A    between atoms: CBC_7  and  CAO_8 
REMARK    2  A    between atoms: CAO_8  and  OAT_9 
REMARK    3  A    between atoms: OAT_9  and  CAY_10 
REMARK    4  A    between atoms: CAX_12  and  OAS_13 
REMARK    5  A    between atoms: C6_21  and  NAR_22 
REMARK    6  A    between atoms: NAR_22  and  CAW_23 
ROOT
HETATM    1  CAY   D T3015       6.102  15.669  -0.787  1.00 27.56     0.118 A 
HETATM    2  CAI   D T3015       6.547  15.197   0.436  1.00 26.69     0.045 A 
HETATM    3  CAX   D T3015       5.001  15.092  -1.395  1.00 27.38     0.117 A 
HETATM    4  CAJ   D T3015       4.350  14.024  -0.767  1.00 26.81     0.031 A 
HETATM    5  C5    D T3015       4.806  13.547   0.465  1.00 27.31     0.056 A 
HETATM    6  C4    D T3015       5.901  14.147   1.066  1.00 26.48     0.088 A 
HETATM    7  N3    D T3015       6.352  13.678   2.255  1.00 27.11    -0.224 NA
HETATM    8  C2    D T3015       5.747  12.663   2.863  1.00 26.78     0.200 A 
HETATM    9  N1    D T3015       4.674  12.086   2.334  1.00 25.67    -0.205 NA
HETATM   10  C6    D T3015       4.176  12.479   1.148  1.00 27.45     0.166 A 
ENDROOT
BRANCH   1  11
HETATM   11  OAT   D T3015       6.703  16.694  -1.460  1.00 28.48    -0.329 OA
BRANCH  11  12
HETATM   12  CAO   D T3015       8.102  16.617  -1.659  1.00 34.10     0.149 C 
BRANCH  12  13
HETATM   13  CBC   D T3015       8.218  16.303  -3.144  1.00 37.94     0.034 C 
HETATM   14  CAK   D T3015       9.671  16.329  -3.579  1.00 39.50     0.038 C 
HETATM   15  CAM   D T3015       9.804  15.900  -5.043  1.00 42.92     0.250 C 
HETATM   16  NBD   D T3015       8.917  16.655  -5.963  1.00 44.82     0.139 N 
HETATM   17  CAB   D T3015       8.746  15.761  -7.126  1.00 45.53     0.285 C 
HETATM   18  CAN   D T3015       7.536  16.961  -5.472  1.00 44.14     0.250 C 
HETATM   19  CAL   D T3015       7.484  17.345  -3.990  1.00 40.98     0.038 C 
ENDBRANCH  12  13
ENDBRANCH  11  12
ENDBRANCH   1  11
BRANCH   3  20
HETATM   20  OAS   D T3015       4.630  15.631  -2.618  1.00 27.35    -0.326 OA
HETATM   21  CAA   D T3015       4.830  14.849  -3.818  1.00 26.97     0.181 C 
ENDBRANCH   3  20
BRANCH  10  22
HETATM   22  NAR   D T3015       3.027  11.817   0.598  1.00 28.41    -0.224 NA
BRANCH  22  23
HETATM   23  CAW   D T3015       1.737  12.385   0.689  1.00 30.70     0.110 A 
HETATM   24  CAF   D T3015       1.147  12.598   1.924  1.00 30.33     0.022 A 
HETATM   25  CAE   D T3015      -0.137  13.132   1.984  1.00 31.71     0.008 A 
HETATM   26  CAU   D T3015      -0.796  13.445   0.794  1.00 32.99     0.037 A 
HETATM   27 BR     D T3015      -2.544  14.205   0.673  1.00 41.09    -0.049 Br
HETATM   28  CAH   D T3015      -0.203  13.222  -0.418  1.00 31.01     0.038 A 
HETATM   29  CAV   D T3015       1.043  12.701  -0.469  1.00 32.00     0.158 A 
HETATM   30  FAC   D T3015       1.527  12.512  -1.701  1.00 33.90    -0.203 F 
ENDBRANCH  22  23
ENDBRANCH  10  22
TORSDOF 6
ENDMDL
MODEL 5
REMARK VINA RESULT:    -8.149      1.799      2.956
REMARK INTER + INTRA:         -11.911
REMARK INTER:                 -11.114
REMARK INTRA:                  -0.797
REMARK UNBOUND:                -0.903
REMARK  6 active torsions:
REMARK  status: ('A' for Active; 'I' for Inactive)
REMARK    1  A    between atoms: CBC_7  and  CAO_8 
REMARK    2  A    between atoms: CAO_8  and  OAT_9 
REMARK    3  A    between atoms: OAT_9  and  CAY_10 
REMARK    4  A    between atoms: CAX_12  and  OAS_13 
REMARK    5  A    between atoms: C6_21  and  NAR_22 
REMARK    6  A    between atoms: NAR_22  and  CAW_23 
ROOT
HETATM    1  CAY   D T3015       7.571  12.989   2.004  1.00 27.56     0.118 A 
HETATM    2  CAI   D T3015       7.262  13.923   1.030  1.00 26.69     0.045 A 
HETATM    3  CAX   D T3015       6.608  12.097   2.441  1.00 27.38     0.117 A 
HETATM    4  CAJ   D T3015       5.320  12.155   1.895  1.00 26.81     0.031 A 
HETATM    5  C5    D T3015       5.011  13.103   0.916  1.00 27.31     0.056 A 
HETATM    6  C4    D T3015       5.993  13.978   0.480  1.00 26.48     0.088 A 
HETATM    7  N3    D T3015       5.692  14.906  -0.461  1.00 27.11    -0.224 NA
HETATM    8  C2    D T3015       4.473  14.976  -0.987  1.00 26.78     0.200 A 
HETATM    9  N1    D T3015       3.517  14.131  -0.618  1.00 25.67    -0.205 NA
HETATM   10  C6    D T3015       3.729  13.195   0.323  1.00 27.45     0.166 A 
ENDROOT
BRANCH   1  11
HETATM   11  OAT   D T3015       8.801  12.893   2.589  1.00 28.48    -0.329 OA
BRANCH  11  12
HETATM   12  CAO   D T3015       9.911  12.654   1.745  1.00 34.10     0.149 C 
BRANCH  12  13
HETATM   13  CBC   D T3015      10.972  12.147   2.713  1.00 37.94     0.034 C 
HETATM   14  CAK   D T3015      11.402  10.741   2.339  1.00 39.50     0.038 C 
HETATM   15  CAM   D T3015      12.550  10.271   3.237  1.00 42.92     0.250 C 
HETATM   16  NBD   D T3015      12.264  10.416   4.686  1.00 44.82     0.139 N 
HETATM   17  CAB   D T3015      13.597  10.489   5.319  1.00 45.53     0.285 C 
HETATM   18  CAN   D T3015      11.537  11.654   5.112  1.00 44.14     0.250 C 
HETATM   19  CAL   D T3015      10.431  12.079   4.142  1.00 40.98     0.038 C 
ENDBRANCH  12  13
ENDBRANCH  11  12
ENDBRANCH   1  11
BRANCH   3  20
HETATM   20  OAS   D T3015       7.009  11.200   3.420  1.00 27.35    -0.326 OA
HETATM   21  CAA   D T3015       7.569   9.928   3.019  1.00 26.97     0.181 C 
ENDBRANCH   3  20
BRANCH  10  22
HETATM   22  NAR   D T3015       2.664  12.313   0.710  1.00 28.41    -0.224 NA
BRANCH  22  23
HETATM   23  CAW   D T3015       1.310  12.688   0.570  1.00 30.70     0.110 A 
HETATM   24  CAF   D T3015       0.680  12.607  -0.661  1.00 30.33     0.022 A 
HETATM   25  CAE   D T3015      -0.646  13.011  -0.777  1.00 31.71     0.008 A 
HETATM   26  CAU   D T3015      -1.312  13.484   0.356  1.00 32.99     0.037 A 
HETATM   27 BR     D T3015      -3.133  14.059   0.401  1.00 41.09    -0.049 Br
HETATM   28  CAH   D T3015      -0.674  13.565   1.563  1.00 31.01     0.038 A 
HETATM   29  CAV   D T3015       0.615  13.173   1.668  1.00 32.00     0.158 A 
HETATM   30  FAC   D T3015       1.148  13.302   2.886  1.00 33.90    -0.203 F 
ENDBRANCH  22  23
ENDBRANCH  10  22
TORSDOF 6
ENDMDL
MODEL 6
REMARK VINA RESULT:    -8.089      5.903      8.793
REMARK INTER + INTRA:         -11.830
REMARK INTER:                 -10.870
REMARK INTRA:                  -0.960
REMARK UNBOUND:                -0.903
REMARK  6 active torsions:
REMARK  status: ('A' for Active; 'I' for Inactive)
REMARK    1  A    between atoms: CBC_7  and  CAO_8 
REMARK    2  A    between atoms: CAO_8  and  OAT_9 
REMARK    3  A    between atoms: OAT_9  and  CAY_10 
REMARK    4  A    between atoms: CAX_12  and  OAS_13 
REMARK    5  A    between atoms: C6_21  and  NAR_22 
REMARK    6  A    between atoms: NAR_22  and  CAW_23 
ROOT
HETATM    1  CAY   D T3015       5.200  15.916  -3.812  1.00 27.56     0.118 A 
HETATM    2  CAI   D T3015       5.713  14.657  -3.549  1.00 26.69     0.045 A 
HETATM    3  CAX   D T3015       4.240  16.462  -2.979  1.00 27.38     0.117 A 
HETATM    4  CAJ   D T3015       3.788  15.726  -1.878  1.00 26.81     0.031 A 
HETATM    5  C5    D T3015       4.304  14.453  -1.619  1.00 27.31     0.056 A 
HETATM    6  C4    D T3015       5.277  13.929  -2.457  1.00 26.48     0.088 A 
HETATM    7  N3    D T3015       5.770  12.690  -2.215  1.00 27.11    -0.224 NA
HETATM    8  C2    D T3015       5.349  11.977  -1.175  1.00 26.78     0.200 A 
HETATM    9  N1    D T3015       4.443  12.461  -0.332  1.00 25.67    -0.205 NA
HETATM   10  C6    D T3015       3.890  13.674  -0.513  1.00 27.45     0.166 A 
ENDROOT
BRANCH   1  11
HETATM   11  OAT   D T3015       5.585  16.676  -4.879  1.00 28.48    -0.329 OA
BRANCH  11  12
HETATM   12  CAO   D T3015       5.557  16.073  -6.158  1.00 34.10     0.149 C 
BRANCH  12  13
HETATM   13  CBC   D T3015       6.892  16.490  -6.760  1.00 37.94     0.034 C 
HETATM   14  CAK   D T3015       7.963  15.466  -6.434  1.00 39.50     0.038 C 
HETATM   15  CAM   D T3015       9.279  15.819  -7.134  1.00 42.92     0.250 C 
HETATM   16  NBD   D T3015       9.725  17.213  -6.885  1.00 44.82     0.139 N 
HETATM   17  CAB   D T3015      10.597  17.531  -8.034  1.00 45.53     0.285 C 
HETATM   18  CAN   D T3015       8.664  18.270  -6.868  1.00 44.14     0.250 C 
HETATM   19  CAL   D T3015       7.368  17.825  -6.185  1.00 40.98     0.038 C 
ENDBRANCH  12  13
ENDBRANCH  11  12
ENDBRANCH   1  11
BRANCH   3  20
HETATM   20  OAS   D T3015       3.785  17.726  -3.322  1.00 27.35    -0.326 OA
HETATM   21  CAA   D T3015       2.604  18.247  -2.670  1.00 26.97     0.181 C 
ENDBRANCH   3  20
BRANCH  10  22
HETATM   22  NAR   D T3015       2.899  14.154   0.408  1.00 28.41    -0.224 NA
BRANCH  22  23
HETATM   23  CAW   D T3015       1.526  13.882   0.220  1.00 30.70     0.110 A 
HETATM   24  CAF   D T3015       0.957  13.968  -1.040  1.00 30.33     0.022 A 
HETATM   25  CAE   D T3015      -0.404  13.724  -1.192  1.00 31.71     0.008 A 
HETATM   26  CAU   D T3015      -1.162  13.391  -0.068  1.00 32.99     0.037 A 
HETATM   27 BR     D T3015      -3.031  12.998  -0.079  1.00 41.09    -0.049 Br
HETATM   28  CAH   D T3015      -0.587  13.317   1.171  1.00 31.01     0.038 A 
HETATM   29  CAV   D T3015       0.735  13.558   1.312  1.00 32.00     0.158 A 
HETATM   30  FAC   D T3015       1.195  13.470   2.564  1.00 33.90    -0.203 F 
ENDBRANCH  22  23
ENDBRANCH  10  22
TORSDOF 6
ENDMDL
MODEL 7
REMARK VINA RESULT:    -8.020      4.649     10.241
REMARK INTER + INTRA:         -11.737
REMARK INTER:                 -10.898
REMARK INTRA:                  -0.839
REMARK UNBOUND:                -0.903
REMARK  6 active torsions:
REMARK  status: ('A' for Active; 'I' for Inactive)
REMARK    1  A    between atoms: CBC_7  and  CAO_8 
REMARK    2  A    between atoms: CAO_8  and  OAT_9 
REMARK    3  A    between atoms: OAT_9  and  CAY_10 
REMARK    4  A    between atoms: CAX_12  and  OAS_13 
REMARK    5  A    between atoms: C6_21  and  NAR_22 
REMARK    6  A    between atoms: NAR_22  and  CAW_23 
ROOT
HETATM    1  CAY   D T3015       5.069  12.403   1.964  1.00 27.56     0.118 A 
HETATM    2  CAI   D T3015       6.179  12.860   1.274  1.00 26.69     0.045 A 
HETATM    3  CAX   D T3015       5.227  11.670   3.126  1.00 27.38     0.117 A 
HETATM    4  CAJ   D T3015       6.517  11.386   3.589  1.00 26.81     0.031 A 
HETATM    5  C5    D T3015       7.635  11.844   2.887  1.00 27.31     0.056 A 
HETATM    6  C4    D T3015       7.457  12.591   1.733  1.00 26.48     0.088 A 
HETATM    7  N3    D T3015       8.540  13.025   1.044  1.00 27.11    -0.224 NA
HETATM    8  C2    D T3015       9.772  12.762   1.469  1.00 26.78     0.200 A 
HETATM    9  N1    D T3015       9.980  12.079   2.589  1.00 25.67    -0.205 NA
HETATM   10  C6    D T3015       8.960  11.596   3.320  1.00 27.45     0.166 A 
ENDROOT
BRANCH   1  11
HETATM   11  OAT   D T3015       3.786  12.630   1.556  1.00 28.48    -0.329 OA
BRANCH  11  12
HETATM   12  CAO   D T3015       3.296  11.859   0.475  1.00 34.10     0.149 C 
BRANCH  12  13
HETATM   13  CBC   D T3015       1.808  12.183   0.472  1.00 37.94     0.034 C 
HETATM   14  CAK   D T3015       1.456  13.046  -0.725  1.00 39.50     0.038 C 
HETATM   15  CAM   D T3015      -0.056  13.278  -0.797  1.00 42.92     0.250 C 
HETATM   16  NBD   D T3015      -0.636  13.792   0.470  1.00 44.82     0.139 N 
HETATM   17  CAB   D T3015      -2.059  13.398   0.409  1.00 45.53     0.285 C 
HETATM   18  CAN   D T3015      -0.102  13.212   1.743  1.00 44.14     0.250 C 
HETATM   19  CAL   D T3015       1.411  12.974   1.720  1.00 40.98     0.038 C 
ENDBRANCH  12  13
ENDBRANCH  11  12
ENDBRANCH   1  11
BRANCH   3  20
HETATM   20  OAS   D T3015       4.058  11.255   3.747  1.00 27.35    -0.326 OA
HETATM   21  CAA   D T3015       3.882   9.850   4.043  1.00 26.97     0.181 C 
ENDBRANCH   3  20
BRANCH  10  22
HETATM   22  NAR   D T3015       9.226  10.844   4.513  1.00 28.41    -0.224 NA
BRANCH  22  23
HETATM   23  CAW   D T3015      10.538  10.454   4.861  1.00 30.70     0.110 A 
HETATM   24  CAF   D T3015      10.960   9.149   4.664  1.00 30.33     0.022 A 
HETATM   25  CAE   D T3015      12.248   8.785   5.042  1.00 31.71     0.008 A 
HETATM   26  CAU   D T3015      13.087   9.748   5.606  1.00 32.99     0.037 A 
HETATM   27 BR     D T3015      14.889   9.447   6.163  1.00 41.09    -0.049 Br
HETATM   28  CAH   D T3015      12.653  11.031   5.800  1.00 31.01     0.038 A 
HETATM   29  CAV   D T3015      11.400  11.378   5.433  1.00 32.00     0.158 A 
HETATM   30  FAC   D T3015      11.071  12.650   5.675  1.00 33.90    -0.203 F 
ENDBRANCH  22  23
ENDBRANCH  10  22
TORSDOF 6
ENDMDL
MODEL 8
REMARK VINA RESULT:    -7.999      4.753      9.735
REMARK INTER + INTRA:         -11.708
REMARK INTER:                 -10.586
REMARK INTRA:                  -1.123
REMARK UNBOUND:                -0.903
REMARK  6 active torsions:
REMARK  status: ('A' for Active; 'I' for Inactive)
REMARK    1  A    between atoms: CBC_7  and  CAO_8 
REMARK    2  A    between atoms: CAO_8  and  OAT_9 
REMARK    3  A    between atoms: OAT_9  and  CAY_10 
REMARK    4  A    between atoms: CAX_12  and  OAS_13 
REMARK    5  A    between atoms: C6_21  and  NAR_22 
REMARK    6  A    between atoms: NAR_22  and  CAW_23 
ROOT
HETATM    1  CAY   D T3015       5.354  12.126   1.940  1.00 27.56     0.118 A 
HETATM    2  CAI   D T3015       5.736  11.504   3.117  1.00 26.69     0.045 A 
HETATM    3  CAX   D T3015       6.284  12.355   0.942  1.00 27.38     0.117 A 
HETATM    4  CAJ   D T3015       7.613  11.961   1.139  1.00 26.81     0.031 A 
HETATM    5  C5    D T3015       7.995  11.338   2.330  1.00 27.31     0.056 A 
HETATM    6  C4    D T3015       7.046  11.104   3.312  1.00 26.48     0.088 A 
HETATM    7  N3    D T3015       7.417  10.511   4.473  1.00 27.11    -0.224 NA
HETATM    8  C2    D T3015       8.676  10.134   4.676  1.00 26.78     0.200 A 
HETATM    9  N1    D T3015       9.605  10.311   3.743  1.00 25.67    -0.205 NA
HETATM   10  C6    D T3015       9.322  10.909   2.573  1.00 27.45     0.166 A 
ENDROOT
BRANCH   1  11
HETATM   11  OAT   D T3015       4.080  12.551   1.695  1.00 28.48    -0.329 OA
BRANCH  11  12
HETATM   12  CAO   D T3015       3.036  11.961   2.445  1.00 34.10     0.149 C 
BRANCH  12  13
HETATM   13  CBC   D T3015       1.813  12.193   1.569  1.00 37.94     0.034 C 
HETATM   14  CAK   D T3015       2.229  12.718   0.207  1.00 39.50     0.038 C 
HETATM   15  CAM   D T3015       1.014  12.843  -0.717  1.00 42.92     0.250 C 
HETATM   16  NBD   D T3015      -0.104  13.617  -0.122  1.00 44.82     0.139 N 
HETATM   17  CAB   D T3015      -1.304  13.144  -0.843  1.00 45.53     0.285 C 
HETATM   18  CAN   D T3015      -0.383  13.395   1.332  1.00 44.14     0.250 C 
HETATM   19  CAL   D T3015       0.882  13.242   2.181  1.00 40.98     0.038 C 
ENDBRANCH  12  13
ENDBRANCH  11  12
ENDBRANCH   1  11
BRANCH   3  20
HETATM   20  OAS   D T3015       5.810  12.984  -0.199  1.00 27.35    -0.326 OA
HETATM   21  CAA   D T3015       5.703  12.226  -1.425  1.00 26.97     0.181 C 
ENDBRANCH   3  20
BRANCH  10  22
HETATM   22  NAR   D T3015      10.358  11.101   1.598  1.00 28.41    -0.224 NA
BRANCH  22  23
HETATM   23  CAW   D T3015      11.290  12.157   1.712  1.00 30.70     0.110 A 
HETATM   24  CAF   D T3015      11.074  13.360   1.059  1.00 30.33     0.022 A 
HETATM   25  CAE   D T3015      12.022  14.372   1.165  1.00 31.71     0.008 A 
HETATM   26  CAU   D T3015      13.167  14.151   1.933  1.00 32.99     0.037 A 
HETATM   27 BR     D T3015      14.564  15.423   2.216  1.00 41.09    -0.049 Br
HETATM   28  CAH   D T3015      13.369  12.955   2.565  1.00 31.01     0.038 A 
HETATM   29  CAV   D T3015      12.445  11.975   2.457  1.00 32.00     0.158 A 
HETATM   30  FAC   D T3015      12.743  10.843   3.102  1.00 33.90    -0.203 F 
ENDBRANCH  22  23
ENDBRANCH  10  22
TORSDOF 6
ENDMDL
MODEL 9
REMARK VINA RESULT:    -7.952      6.818      9.955
REMARK INTER + INTRA:         -11.645
REMARK INTER:                 -10.440
REMARK INTRA:                  -1.206
REMARK UNBOUND:                -0.903
REMARK  6 active torsions:
REMARK  status: ('A' for Active; 'I' for Inactive)
REMARK    1  A    between atoms: CBC_7  and  CAO_8 
REMARK    2  A    between atoms: CAO_8  and  OAT_9 
REMARK    3  A    between atoms: OAT_9  and  CAY_10 
REMARK    4  A    between atoms: CAX_12  and  OAS_13 
REMARK    5  A    between atoms: C6_21  and  NAR_22 
REMARK    6  A    between atoms: NAR_22  and  CAW_23 
ROOT
HETATM    1  CAY   D T3015       5.995  16.683  -4.827  1.00 27.56     0.118 A 
HETATM    2  CAI   D T3015       4.970  17.361  -4.187  1.00 26.69     0.045 A 
HETATM    3  CAX   D T3015       6.218  15.346  -4.554  1.00 27.38     0.117 A 
HETATM    4  CAJ   D T3015       5.406  14.690  -3.621  1.00 26.81     0.031 A 
HETATM    5  C5    D T3015       4.377  15.379  -2.974  1.00 27.31     0.056 A 
HETATM    6  C4    D T3015       4.159  16.715  -3.271  1.00 26.48     0.088 A 
HETATM    7  N3    D T3015       3.169  17.388  -2.636  1.00 27.11    -0.224 NA
HETATM    8  C2    D T3015       2.391  16.780  -1.745  1.00 26.78     0.200 A 
HETATM    9  N1    D T3015       2.550  15.492  -1.461  1.00 25.67    -0.205 NA
HETATM   10  C6    D T3015       3.521  14.759  -2.033  1.00 27.45     0.166 A 
ENDROOT
BRANCH   1  11
HETATM   11  OAT   D T3015       6.832  17.269  -5.732  1.00 28.48    -0.329 OA
BRANCH  11  12
HETATM   12  CAO   D T3015       7.689  18.294  -5.265  1.00 34.10     0.149 C 
BRANCH  12  13
HETATM   13  CBC   D T3015       9.028  17.930  -5.892  1.00 37.94     0.034 C 
HETATM   14  CAK   D T3015       9.833  19.182  -6.187  1.00 39.50     0.038 C 
HETATM   15  CAM   D T3015      11.226  18.818  -6.709  1.00 42.92     0.250 C 
HETATM   16  NBD   D T3015      11.199  17.871  -7.853  1.00 44.82     0.139 N 
HETATM   17  CAB   D T3015      12.523  17.215  -7.818  1.00 45.53     0.285 C 
HETATM   18  CAN   D T3015      10.190  16.767  -7.793  1.00 44.14     0.250 C 
HETATM   19  CAL   D T3015       8.837  17.203  -7.225  1.00 40.98     0.038 C 
ENDBRANCH  12  13
ENDBRANCH  11  12
ENDBRANCH   1  11
BRANCH   3  20
HETATM   20  OAS   D T3015       7.266  14.752  -5.241  1.00 27.35    -0.326 OA
HETATM   21  CAA   D T3015       8.497  14.471  -4.536  1.00 26.97     0.181 C 
ENDBRANCH   3  20
BRANCH  10  22
HETATM   22  NAR   D T3015       3.673  13.375  -1.684  1.00 28.41    -0.224 NA
BRANCH  22  23
HETATM   23  CAW   D T3015       4.490  12.973  -0.604  1.00 30.70     0.110 A 
HETATM   24  CAF   D T3015       5.790  12.550  -0.824  1.00 30.33     0.022 A 
HETATM   25  CAE   D T3015       6.563  12.132   0.255  1.00 31.71     0.008 A 
HETATM   26  CAU   D T3015       6.008  12.156   1.536  1.00 32.99     0.037 A 
HETATM   27 BR     D T3015       6.915  11.645   3.137  1.00 41.09    -0.049 Br
HETATM   28  CAH   D T3015       4.720  12.570   1.735  1.00 31.01     0.038 A 
HETATM   29  CAV   D T3015       3.974  12.972   0.683  1.00 32.00     0.158 A 
HETATM   30  FAC   D T3015       2.727  13.346   0.984  1.00 33.90    -0.203 F 
ENDBRANCH  22  23
ENDBRANCH  10  22
TORSDOF 6
ENDMDL
