MODEL 1
REMARK VINA RESULT:    -9.593      0.000      0.000
REMARK INTER + INTRA:         -12.734
REMARK INTER:                 -12.958
REMARK INTRA:                   0.223
REMARK UNBOUND:                 0.223
REMARK  6 active torsions:
REMARK  status: ('A' for Active; 'I' for Inactive)
REMARK       I    between atoms: N1_1  and  C25_25 
REMARK    1  A    between atoms: C3_3  and  N5_5 
REMARK       I    between atoms: N5_5  and  C6_6 
REMARK    2  A    between atoms: C6_6  and  C7_7 
REMARK    3  A    between atoms: N17_17  and  C24_24 
REMARK    4  A    between atoms: C25_25  and  C20_32 
REMARK    5  A    between atoms: C27_27  and  C20_32 
REMARK    6  A    between atoms: C20_32  and  O34_35 
ROOT
HETATM    1  N1    D T1390       2.311  13.869  -0.171  1.00 51.21    -0.308 N 
HETATM    2  N2    D T1390       1.801  11.272   2.392  1.00 51.21    -0.149 NA
HETATM    3  C3    D T1390       3.888  11.766   2.450  1.00 51.21     0.186 A 
HETATM    4  N4    D T1390       2.927  10.975   3.001  1.00 51.21    -0.129 NA
HETATM    5  C13   D T1390       1.960  12.203   1.475  1.00 51.21     0.104 A 
HETATM    6  C14   D T1390       3.254  12.562   1.457  1.00 51.21     0.055 A 
HETATM    7  C15   D T1390       3.597  13.609   0.462  1.00 51.21     0.136 A 
HETATM    8  C16   D T1390       1.263  13.025   0.435  1.00 51.21     0.152 A 
HETATM    9  C25   D T1390       2.010  14.771  -1.236  1.00 51.21     0.266 C 
HETATM   10  O26   D T1390       0.871  14.881  -1.679  1.00 51.21    -0.269 OA
ENDROOT
BRANCH   3  11
HETATM   11  N5    D T1390       5.161  11.641   2.921  1.00 51.21    -0.187 NA
HETATM   12  C6    D T1390       6.353  11.771   2.231  1.00 51.21     0.281 C 
HETATM   13  O8    D T1390       6.418  12.051   1.047  1.00 51.21    -0.265 OA
BRANCH  12  14
HETATM   14  C7    D T1390       7.640  11.554   3.013  1.00 51.21     0.058 A 
HETATM   15  C9    D T1390       8.795  12.357   2.854  1.00 51.21     0.006 A 
HETATM   16  C10   D T1390       9.975  12.109   3.608  1.00 51.21     0.011 A 
HETATM   17  C24   D T1390      10.062  11.034   4.577  1.00 51.21     0.037 A 
HETATM   18  C11   D T1390       8.864  10.230   4.720  1.00 51.21     0.011 A 
HETATM   19  C12   D T1390       7.697  10.482   3.967  1.00 51.21     0.006 A 
BRANCH  17  20
HETATM   20  N17   D T1390      11.254  10.723   5.379  1.00 51.21    -0.248 NA
HETATM   21  C18   D T1390      12.527  11.365   4.850  1.00 51.21     0.112 C 
HETATM   22  C19   D T1390      13.662  10.459   4.276  1.00 51.21     0.268 C 
HETATM   23  N20   D T1390      13.845   9.201   5.022  1.00 51.21     0.142 N 
HETATM   24  C21   D T1390      12.583   8.454   5.056  1.00 51.21     0.268 C 
HETATM   25  C23   D T1390      14.921   8.391   4.442  1.00 51.21     0.285 C 
HETATM   26  C22   D T1390      11.413   9.262   5.691  1.00 51.21     0.112 C 
ENDBRANCH  17  20
ENDBRANCH  12  14
ENDBRANCH   3  11
BRANCH   9  27
HETATM   27  C20   D T1390       3.219  15.615  -1.877  1.00 51.21     0.216 C 
BRANCH  27  28
HETATM   28  C27   D T1390       2.836  17.115  -1.905  1.00 51.21     0.014 A 
HETATM   29  C28   D T1390       2.657  17.856  -0.708  1.00 51.21    -0.001 A 
HETATM   30  C31   D T1390       2.327  19.231  -0.752  1.00 51.21    -0.000 A 
HETATM   31  C35   D T1390       2.172  19.894  -2.001  1.00 51.21    -0.000 A 
HETATM   32  C33   D T1390       2.347  19.163  -3.203  1.00 51.21    -0.000 A 
HETATM   33  C29   D T1390       2.674  17.794  -3.154  1.00 51.21    -0.001 A 
ENDBRANCH  27  28
BRANCH  27  34
HETATM   34  O34   D T1390       4.391  15.372  -1.045  1.00 51.21    -0.340 OA
HETATM   35  C36   D T1390       5.620  15.865  -1.568  1.00 51.21     0.175 C 
ENDBRANCH  27  34
ENDBRANCH   9  27
TORSDOF 6
ENDMDL
MODEL 2
REMARK VINA RESULT:    -9.492      1.199      2.614
REMARK INTER + INTRA:         -12.598
REMARK INTER:                 -11.929
REMARK INTRA:                  -0.668
REMARK UNBOUND:                 0.223
REMARK  6 active torsions:
REMARK  status: ('A' for Active; 'I' for Inactive)
REMARK       I    between atoms: N1_1  and  C25_25 
REMARK    1  A    between atoms: C3_3  and  N5_5 
REMARK       I    between atoms: N5_5  and  C6_6 
REMARK    2  A    between atoms: C6_6  and  C7_7 
REMARK    3  A    between atoms: N17_17  and  C24_24 
REMARK    4  A    between atoms: C25_25  and  C20_32 
REMARK    5  A    between atoms: C27_27  and  C20_32 
REMARK    6  A    between atoms: C20_32  and  O34_35 
ROOT
HETATM    1  N1    D T1390       2.219  13.444   0.381  1.00 51.21    -0.308 N 
HETATM    2  N2    D T1390       2.070  10.565   2.673  1.00 51.21    -0.149 NA
HETATM    3  C3    D T1390       4.068  11.334   2.812  1.00 51.21     0.186 A 
HETATM    4  N4    D T1390       3.225  10.368   3.269  1.00 51.21    -0.129 NA
HETATM    5  C13   D T1390       2.100  11.593   1.853  1.00 51.21     0.104 A 
HETATM    6  C14   D T1390       3.331  12.128   1.890  1.00 51.21     0.055 A 
HETATM    7  C15   D T1390       3.528  13.305   1.007  1.00 51.21     0.136 A 
HETATM    8  C16   D T1390       1.298  12.408   0.886  1.00 51.21     0.152 A 
HETATM    9  C25   D T1390       1.798  14.396  -0.597  1.00 51.21     0.266 C 
HETATM   10  O26   D T1390       0.656  14.389  -1.046  1.00 51.21    -0.269 OA
ENDROOT
BRANCH   3  11
HETATM   11  N5    D T1390       5.345  11.342   3.289  1.00 51.21    -0.187 NA
HETATM   12  C6    D T1390       6.526  11.512   2.591  1.00 51.21     0.281 C 
HETATM   13  O8    D T1390       6.574  11.708   1.389  1.00 51.21    -0.265 OA
BRANCH  12  14
HETATM   14  C7    D T1390       7.822  11.451   3.384  1.00 51.21     0.058 A 
HETATM   15  C9    D T1390       8.880  12.377   3.224  1.00 51.21     0.006 A 
HETATM   16  C10   D T1390      10.074  12.274   3.989  1.00 51.21     0.011 A 
HETATM   17  C24   D T1390      10.274  11.227   4.972  1.00 51.21     0.037 A 
HETATM   18  C11   D T1390       9.174  10.295   5.116  1.00 51.21     0.011 A 
HETATM   19  C12   D T1390       7.992  10.403   4.352  1.00 51.21     0.006 A 
BRANCH  17  20
HETATM   20  N17   D T1390      11.487  11.063   5.786  1.00 51.21    -0.248 NA
HETATM   21  C18   D T1390      12.775  11.141   4.982  1.00 51.21     0.112 C 
HETATM   22  C19   D T1390      13.667   9.867   4.838  1.00 51.21     0.268 C 
HETATM   23  N20   D T1390      13.730   9.050   6.063  1.00 51.21     0.142 N 
HETATM   24  C21   D T1390      12.376   8.663   6.473  1.00 51.21     0.268 C 
HETATM   25  C23   D T1390      14.580   7.870   5.872  1.00 51.21     0.285 C 
HETATM   26  C22   D T1390      11.439   9.883   6.717  1.00 51.21     0.112 C 
ENDBRANCH  17  20
ENDBRANCH  12  14
ENDBRANCH   3  11
BRANCH   9  27
HETATM   27  C20   D T1390       2.879  15.457  -1.134  1.00 51.21     0.216 C 
BRANCH  27  28
HETATM   28  C27   D T1390       4.103  14.698  -1.701  1.00 51.21     0.014 A 
HETATM   29  C28   D T1390       3.947  13.573  -2.553  1.00 51.21    -0.001 A 
HETATM   30  C31   D T1390       5.076  12.903  -3.079  1.00 51.21    -0.000 A 
HETATM   31  C35   D T1390       6.390  13.349  -2.762  1.00 51.21    -0.000 A 
HETATM   32  C33   D T1390       6.557  14.470  -1.911  1.00 51.21    -0.000 A 
HETATM   33  C29   D T1390       5.430  15.133  -1.389  1.00 51.21    -0.001 A 
ENDBRANCH  27  28
BRANCH  27  34
HETATM   34  O34   D T1390       2.215  16.253  -2.159  1.00 51.21    -0.340 OA
HETATM   35  C36   D T1390       2.710  17.579  -2.316  1.00 51.21     0.175 C 
ENDBRANCH  27  34
ENDBRANCH   9  27
TORSDOF 6
ENDMDL
MODEL 3
REMARK VINA RESULT:    -9.403      1.839      2.581
REMARK INTER + INTRA:         -12.478
REMARK INTER:                 -11.757
REMARK INTRA:                  -0.721
REMARK UNBOUND:                 0.223
REMARK  6 active torsions:
REMARK  status: ('A' for Active; 'I' for Inactive)
REMARK       I    between atoms: N1_1  and  C25_25 
REMARK    1  A    between atoms: C3_3  and  N5_5 
REMARK       I    between atoms: N5_5  and  C6_6 
REMARK    2  A    between atoms: C6_6  and  C7_7 
REMARK    3  A    between atoms: N17_17  and  C24_24 
REMARK    4  A    between atoms: C25_25  and  C20_32 
REMARK    5  A    between atoms: C27_27  and  C20_32 
REMARK    6  A    between atoms: C20_32  and  O34_35 
ROOT
HETATM    1  N1    D T1390       4.117  14.177  -0.594  1.00 51.21    -0.308 N 
HETATM    2  N2    D T1390       2.805  11.975   2.052  1.00 51.21    -0.149 NA
HETATM    3  C3    D T1390       4.916  12.135   2.401  1.00 51.21     0.186 A 
HETATM    4  N4    D T1390       3.763  11.569   2.854  1.00 51.21    -0.129 NA
HETATM    5  C13   D T1390       3.252  12.768   1.101  1.00 51.21     0.104 A 
HETATM    6  C14   D T1390       4.578  12.914   1.260  1.00 51.21     0.055 A 
HETATM    7  C15   D T1390       5.235  13.784   0.254  1.00 51.21     0.136 A 
HETATM    8  C16   D T1390       2.864  13.578  -0.097  1.00 51.21     0.152 A 
HETATM    9  C25   D T1390       4.132  15.000  -1.761  1.00 51.21     0.266 C 
HETATM   10  O26   D T1390       3.105  15.242  -2.387  1.00 51.21    -0.269 OA
ENDROOT
BRANCH   3  11
HETATM   11  N5    D T1390       6.068  11.860   3.077  1.00 51.21    -0.187 NA
HETATM   12  C6    D T1390       7.302  11.498   2.567  1.00 51.21     0.281 C 
HETATM   13  O8    D T1390       7.532  11.394   1.375  1.00 51.21    -0.265 OA
BRANCH  12  14
HETATM   14  C7    D T1390       8.416  11.225   3.565  1.00 51.21     0.058 A 
HETATM   15  C9    D T1390       8.422  10.116   4.445  1.00 51.21     0.006 A 
HETATM   16  C10   D T1390       9.489   9.908   5.362  1.00 51.21     0.011 A 
HETATM   17  C24   D T1390      10.622  10.807   5.446  1.00 51.21     0.037 A 
HETATM   18  C11   D T1390      10.591  11.932   4.533  1.00 51.21     0.011 A 
HETATM   19  C12   D T1390       9.528  12.132   3.626  1.00 51.21     0.006 A 
BRANCH  17  20
HETATM   20  N17   D T1390      11.749  10.650   6.378  1.00 51.21    -0.248 NA
HETATM   21  C18   D T1390      13.059  11.211   5.848  1.00 51.21     0.112 C 
HETATM   22  C19   D T1390      14.235  10.236   5.523  1.00 51.21     0.268 C 
HETATM   23  N20   D T1390      14.360   9.124   6.482  1.00 51.21     0.142 N 
HETATM   24  C21   D T1390      13.099   8.377   6.545  1.00 51.21     0.268 C 
HETATM   25  C23   D T1390      15.478   8.242   6.131  1.00 51.21     0.285 C 
HETATM   26  C22   D T1390      11.883   9.264   6.943  1.00 51.21     0.112 C 
ENDBRANCH  17  20
ENDBRANCH  12  14
ENDBRANCH   3  11
BRANCH   9  27
HETATM   27  C20   D T1390       5.548  15.570  -2.267  1.00 51.21     0.216 C 
BRANCH  27  28
HETATM   28  C27   D T1390       5.385  16.147  -3.694  1.00 51.21     0.014 A 
HETATM   29  C28   D T1390       5.765  15.402  -4.841  1.00 51.21    -0.001 A 
HETATM   30  C31   D T1390       5.589  15.936  -6.139  1.00 51.21    -0.000 A 
HETATM   31  C35   D T1390       5.027  17.231  -6.315  1.00 51.21    -0.000 A 
HETATM   32  C33   D T1390       4.647  17.984  -5.176  1.00 51.21    -0.000 A 
HETATM   33  C29   D T1390       4.824  17.449  -3.886  1.00 51.21    -0.001 A 
ENDBRANCH  27  28
BRANCH  27  34
HETATM   34  O34   D T1390       5.955  16.594  -1.313  1.00 51.21    -0.340 OA
HETATM   35  C36   D T1390       7.351  16.649  -1.038  1.00 51.21     0.175 C 
ENDBRANCH  27  34
ENDBRANCH   9  27
TORSDOF 6
ENDMDL
MODEL 4
REMARK VINA RESULT:    -9.367      4.519     10.415
REMARK INTER + INTRA:         -12.429
REMARK INTER:                 -12.082
REMARK INTRA:                  -0.347
REMARK UNBOUND:                 0.223
REMARK  6 active torsions:
REMARK  status: ('A' for Active; 'I' for Inactive)
REMARK       I    between atoms: N1_1  and  C25_25 
REMARK    1  A    between atoms: C3_3  and  N5_5 
REMARK       I    between atoms: N5_5  and  C6_6 
REMARK    2  A    between atoms: C6_6  and  C7_7 
REMARK    3  A    between atoms: N17_17  and  C24_24 
REMARK    4  A    between atoms: C25_25  and  C20_32 
REMARK    5  A    between atoms: C27_27  and  C20_32 
REMARK    6  A    between atoms: C20_32  and  O34_35 
ROOT
HETATM    1  N1    D T1390       6.493  11.898   2.498  1.00 51.21    -0.308 N 
HETATM    2  N2    D T1390       3.383  13.126   0.952  1.00 51.21    -0.149 NA
HETATM    3  C3    D T1390       4.970  13.681  -0.380  1.00 51.21     0.186 A 
HETATM    4  N4    D T1390       3.624  13.738  -0.185  1.00 51.21    -0.129 NA
HETATM    5  C13   D T1390       4.481  12.674   1.519  1.00 51.21     0.104 A 
HETATM    6  C14   D T1390       5.523  12.989   0.733  1.00 51.21     0.055 A 
HETATM    7  C15   D T1390       6.845  12.548   1.242  1.00 51.21     0.136 A 
HETATM    8  C16   D T1390       5.033  11.943   2.704  1.00 51.21     0.152 A 
HETATM    9  C25   D T1390       7.357  11.293   3.460  1.00 51.21     0.266 C 
HETATM   10  O26   D T1390       6.917  10.786   4.487  1.00 51.21    -0.269 OA
ENDROOT
BRANCH   3  11
HETATM   11  N5    D T1390       5.475  14.257  -1.508  1.00 51.21    -0.187 NA
HETATM   12  C6    D T1390       5.354  13.836  -2.820  1.00 51.21     0.281 C 
HETATM   13  O8    D T1390       4.725  12.848  -3.154  1.00 51.21    -0.265 OA
BRANCH  12  14
HETATM   14  C7    D T1390       6.047  14.669  -3.887  1.00 51.21     0.058 A 
HETATM   15  C9    D T1390       5.444  15.781  -4.524  1.00 51.21     0.006 A 
HETATM   16  C10   D T1390       6.135  16.525  -5.519  1.00 51.21     0.011 A 
HETATM   17  C24   D T1390       7.485  16.196  -5.932  1.00 51.21     0.037 A 
HETATM   18  C11   D T1390       8.078  15.056  -5.262  1.00 51.21     0.011 A 
HETATM   19  C12   D T1390       7.385  14.321  -4.276  1.00 51.21     0.006 A 
BRANCH  17  20
HETATM   20  N17   D T1390       8.247  16.921  -6.959  1.00 51.21    -0.248 NA
HETATM   21  C18   D T1390       8.949  16.008  -7.953  1.00 51.21     0.112 C 
HETATM   22  C19   D T1390      10.510  15.955  -7.975  1.00 51.21     0.268 C 
HETATM   23  N20   D T1390      11.147  17.265  -7.755  1.00 51.21     0.142 N 
HETATM   24  C21   D T1390      10.688  17.834  -6.482  1.00 51.21     0.268 C 
HETATM   25  C23   D T1390      12.609  17.158  -7.787  1.00 51.21     0.285 C 
HETATM   26  C22   D T1390       9.141  17.996  -6.409  1.00 51.21     0.112 C 
ENDBRANCH  17  20
ENDBRANCH  12  14
ENDBRANCH   3  11
BRANCH   9  27
HETATM   27  C20   D T1390       8.941  11.334   3.185  1.00 51.21     0.216 C 
BRANCH  27  28
HETATM   28  C27   D T1390       9.689  10.812   4.435  1.00 51.21     0.014 A 
HETATM   29  C28   D T1390       9.479   9.498   4.931  1.00 51.21    -0.001 A 
HETATM   30  C31   D T1390      10.187   9.031   6.062  1.00 51.21    -0.000 A 
HETATM   31  C35   D T1390      11.125   9.873   6.722  1.00 51.21    -0.000 A 
HETATM   32  C33   D T1390      11.342  11.187   6.237  1.00 51.21    -0.000 A 
HETATM   33  C29   D T1390      10.634  11.648   5.111  1.00 51.21    -0.001 A 
ENDBRANCH  27  28
BRANCH  27  34
HETATM   34  O34   D T1390       9.188  10.496   2.018  1.00 51.21    -0.340 OA
HETATM   35  C36   D T1390      10.430  10.721   1.360  1.00 51.21     0.175 C 
ENDBRANCH  27  34
ENDBRANCH   9  27
TORSDOF 6
ENDMDL
MODEL 5
REMARK VINA RESULT:    -9.264      3.923     10.650
REMARK INTER + INTRA:         -12.290
REMARK INTER:                 -12.001
REMARK INTRA:                  -0.288
REMARK UNBOUND:                 0.223
REMARK  6 active torsions:
REMARK  status: ('A' for Active; 'I' for Inactive)
REMARK       I    between atoms: N1_1  and  C25_25 
REMARK    1  A    between atoms: C3_3  and  N5_5 
REMARK       I    between atoms: N5_5  and  C6_6 
REMARK    2  A    between atoms: C6_6  and  C7_7 
REMARK    3  A    between atoms: N17_17  and  C24_24 
REMARK    4  A    between atoms: C25_25  and  C20_32 
REMARK    5  A    between atoms: C27_27  and  C20_32 
REMARK    6  A    between atoms: C20_32  and  O34_35 
ROOT
HETATM    1  N1    D T1390       5.796  11.843   2.522  1.00 51.21    -0.308 N 
HETATM    2  N2    D T1390       2.489  12.917   1.306  1.00 51.21    -0.149 NA
HETATM    3  C3    D T1390       3.920  13.698  -0.089  1.00 51.21     0.186 A 
HETATM    4  N4    D T1390       2.593  13.629   0.206  1.00 51.21    -0.129 NA
HETATM    5  C13   D T1390       3.660  12.518   1.755  1.00 51.21     0.104 A 
HETATM    6  C14   D T1390       4.610  12.976   0.923  1.00 51.21     0.055 A 
HETATM    7  C15   D T1390       5.998  12.610   1.299  1.00 51.21     0.136 A 
HETATM    8  C16   D T1390       4.358  11.752   2.836  1.00 51.21     0.152 A 
HETATM    9  C25   D T1390       6.778  11.244   3.369  1.00 51.21     0.266 C 
HETATM   10  O26   D T1390       6.460  10.629   4.381  1.00 51.21    -0.269 OA
ENDROOT
BRANCH   3  11
HETATM   11  N5    D T1390       4.288  14.394  -1.201  1.00 51.21    -0.187 NA
HETATM   12  C6    D T1390       5.065  13.973  -2.266  1.00 51.21     0.281 C 
HETATM   13  O8    D T1390       5.528  12.850  -2.356  1.00 51.21    -0.265 OA
BRANCH  12  14
HETATM   14  C7    D T1390       5.338  14.979  -3.372  1.00 51.21     0.058 A 
HETATM   15  C9    D T1390       4.712  16.247  -3.447  1.00 51.21     0.006 A 
HETATM   16  C10   D T1390       5.001  17.151  -4.506  1.00 51.21     0.011 A 
HETATM   17  C24   D T1390       5.947  16.834  -5.557  1.00 51.21     0.037 A 
HETATM   18  C11   D T1390       6.575  15.531  -5.453  1.00 51.21     0.011 A 
HETATM   19  C12   D T1390       6.282  14.639  -4.400  1.00 51.21     0.006 A 
BRANCH  17  20
HETATM   20  N17   D T1390       6.281  17.721  -6.680  1.00 51.21    -0.248 NA
HETATM   21  C18   D T1390       7.596  17.374  -7.360  1.00 51.21     0.112 C 
HETATM   22  C19   D T1390       8.797  18.369  -7.263  1.00 51.21     0.268 C 
HETATM   23  N20   D T1390       8.395  19.785  -7.339  1.00 51.21     0.142 N 
HETATM   24  C21   D T1390       7.417  20.083  -6.287  1.00 51.21     0.268 C 
HETATM   25  C23   D T1390       9.557  20.674  -7.244  1.00 51.21     0.285 C 
HETATM   26  C22   D T1390       6.147  19.184  -6.361  1.00 51.21     0.112 C 
ENDBRANCH  17  20
ENDBRANCH  12  14
ENDBRANCH   3  11
BRANCH   9  27
HETATM   27  C20   D T1390       8.327  11.436   2.985  1.00 51.21     0.216 C 
BRANCH  27  28
HETATM   28  C27   D T1390       9.208  10.948   4.160  1.00 51.21     0.014 A 
HETATM   29  C28   D T1390       9.072   9.640   4.695  1.00 51.21    -0.001 A 
HETATM   30  C31   D T1390       9.900   9.204   5.755  1.00 51.21    -0.000 A 
HETATM   31  C35   D T1390      10.887  10.071   6.301  1.00 51.21    -0.000 A 
HETATM   32  C33   D T1390      11.031  11.379   5.776  1.00 51.21    -0.000 A 
HETATM   33  C29   D T1390      10.204  11.810   4.721  1.00 51.21    -0.001 A 
ENDBRANCH  27  28
BRANCH  27  34
HETATM   34  O34   D T1390       8.561  10.658   1.774  1.00 51.21    -0.340 OA
HETATM   35  C36   D T1390       9.902  10.665   1.297  1.00 51.21     0.175 C 
ENDBRANCH  27  34
ENDBRANCH   9  27
TORSDOF 6
ENDMDL
MODEL 6
REMARK VINA RESULT:    -9.111      3.467     10.786
REMARK INTER + INTRA:         -12.083
REMARK INTER:                 -11.024
REMARK INTRA:                  -1.059
REMARK UNBOUND:                 0.223
REMARK  6 active torsions:
REMARK  status: ('A' for Active; 'I' for Inactive)
REMARK       I    between atoms: N1_1  and  C25_25 
REMARK    1  A    between atoms: C3_3  and  N5_5 
REMARK       I    between atoms: N5_5  and  C6_6 
REMARK    2  A    between atoms: C6_6  and  C7_7 
REMARK    3  A    between atoms: N17_17  and  C24_24 
REMARK    4  A    between atoms: C25_25  and  C20_32 
REMARK    5  A    between atoms: C27_27  and  C20_32 
REMARK    6  A    between atoms: C20_32  and  O34_35 
ROOT
HETATM    1  N1    D T1390       8.039  11.193   3.766  1.00 51.21    -0.308 N 
HETATM    2  N2    D T1390       4.408  11.364   3.171  1.00 51.21    -0.149 NA
HETATM    3  C3    D T1390       5.326  12.475   1.581  1.00 51.21     0.186 A 
HETATM    4  N4    D T1390       4.133  12.067   2.095  1.00 51.21    -0.129 NA
HETATM    5  C13   D T1390       5.701  11.285   3.399  1.00 51.21     0.104 A 
HETATM    6  C14   D T1390       6.343  11.965   2.434  1.00 51.21     0.055 A 
HETATM    7  C15   D T1390       7.822  11.973   2.555  1.00 51.21     0.136 A 
HETATM    8  C16   D T1390       6.749  10.735   4.317  1.00 51.21     0.152 A 
HETATM    9  C25   D T1390       9.273  10.876   4.411  1.00 51.21     0.266 C 
HETATM   10  O26   D T1390       9.304  10.209   5.441  1.00 51.21    -0.269 OA
ENDROOT
BRANCH   3  11
HETATM   11  N5    D T1390       5.305  13.232   0.447  1.00 51.21    -0.187 NA
HETATM   12  C6    D T1390       5.820  14.499   0.246  1.00 51.21     0.281 C 
HETATM   13  O8    D T1390       6.412  15.129   1.106  1.00 51.21    -0.265 OA
BRANCH  12  14
HETATM   14  C7    D T1390       5.630  15.120  -1.129  1.00 51.21     0.058 A 
HETATM   15  C9    D T1390       5.486  16.512  -1.344  1.00 51.21     0.006 A 
HETATM   16  C10   D T1390       5.308  17.042  -2.652  1.00 51.21     0.011 A 
HETATM   17  C24   D T1390       5.269  16.198  -3.829  1.00 51.21     0.037 A 
HETATM   18  C11   D T1390       5.421  14.778  -3.579  1.00 51.21     0.011 A 
HETATM   19  C12   D T1390       5.596  14.259  -2.278  1.00 51.21     0.006 A 
BRANCH  17  20
HETATM   20  N17   D T1390       5.079  16.684  -5.203  1.00 51.21    -0.248 NA
HETATM   21  C18   D T1390       5.915  15.940  -6.233  1.00 51.21     0.112 C 
HETATM   22  C19   D T1390       7.062  16.694  -6.979  1.00 51.21     0.268 C 
HETATM   23  N20   D T1390       6.726  18.089  -7.318  1.00 51.21     0.142 N 
HETATM   24  C21   D T1390       6.359  18.822  -6.102  1.00 51.21     0.268 C 
HETATM   25  C23   D T1390       7.834  18.748  -8.017  1.00 51.21     0.285 C 
HETATM   26  C22   D T1390       5.165  18.178  -5.338  1.00 51.21     0.112 C 
ENDBRANCH  17  20
ENDBRANCH  12  14
ENDBRANCH   3  11
BRANCH   9  27
HETATM   27  C20   D T1390      10.630  11.458   3.776  1.00 51.21     0.216 C 
BRANCH  27  28
HETATM   28  C27   D T1390      11.593  11.867   4.916  1.00 51.21     0.014 A 
HETATM   29  C28   D T1390      12.723  11.075   5.253  1.00 51.21    -0.001 A 
HETATM   30  C31   D T1390      13.604  11.475   6.284  1.00 51.21    -0.000 A 
HETATM   31  C35   D T1390      13.372  12.682   7.001  1.00 51.21    -0.000 A 
HETATM   32  C33   D T1390      12.246  13.479   6.675  1.00 51.21    -0.000 A 
HETATM   33  C29   D T1390      11.371  13.076   5.648  1.00 51.21    -0.001 A 
ENDBRANCH  27  28
BRANCH  27  34
HETATM   34  O34   D T1390      11.194  10.400   2.946  1.00 51.21    -0.340 OA
HETATM   35  C36   D T1390      11.336  10.721   1.566  1.00 51.21     0.175 C 
ENDBRANCH  27  34
ENDBRANCH   9  27
TORSDOF 6
ENDMDL
MODEL 7
REMARK VINA RESULT:    -9.057      3.383      4.562
REMARK INTER + INTRA:         -12.010
REMARK INTER:                 -11.095
REMARK INTRA:                  -0.916
REMARK UNBOUND:                 0.223
REMARK  6 active torsions:
REMARK  status: ('A' for Active; 'I' for Inactive)
REMARK       I    between atoms: N1_1  and  C25_25 
REMARK    1  A    between atoms: C3_3  and  N5_5 
REMARK       I    between atoms: N5_5  and  C6_6 
REMARK    2  A    between atoms: C6_6  and  C7_7 
REMARK    3  A    between atoms: N17_17  and  C24_24 
REMARK    4  A    between atoms: C25_25  and  C20_32 
REMARK    5  A    between atoms: C27_27  and  C20_32 
REMARK    6  A    between atoms: C20_32  and  O34_35 
ROOT
HETATM    1  N1    D T1390       5.741  14.868  -3.113  1.00 51.21    -0.308 N 
HETATM    2  N2    D T1390       3.284  13.031  -1.074  1.00 51.21    -0.149 NA
HETATM    3  C3    D T1390       5.184  12.745  -0.120  1.00 51.21     0.186 A 
HETATM    4  N4    D T1390       3.859  12.442  -0.050  1.00 51.21    -0.129 NA
HETATM    5  C13   D T1390       4.144  13.699  -1.813  1.00 51.21     0.104 A 
HETATM    6  C14   D T1390       5.365  13.562  -1.270  1.00 51.21     0.055 A 
HETATM    7  C15   D T1390       6.454  14.259  -1.998  1.00 51.21     0.136 A 
HETATM    8  C16   D T1390       4.301  14.556  -3.032  1.00 51.21     0.152 A 
HETATM    9  C25   D T1390       6.267  15.653  -4.183  1.00 51.21     0.266 C 
HETATM   10  O26   D T1390       5.543  16.099  -5.067  1.00 51.21    -0.269 OA
ENDROOT
BRANCH   3  11
HETATM   11  N5    D T1390       6.004  12.241   0.846  1.00 51.21    -0.187 NA
HETATM   12  C6    D T1390       6.650  12.914   1.867  1.00 51.21     0.281 C 
HETATM   13  O8    D T1390       6.543  14.113   2.055  1.00 51.21    -0.265 OA
BRANCH  12  14
HETATM   14  C7    D T1390       7.531  12.093   2.796  1.00 51.21     0.058 A 
HETATM   15  C9    D T1390       7.034  11.077   3.648  1.00 51.21     0.006 A 
HETATM   16  C10   D T1390       7.901  10.340   4.501  1.00 51.21     0.011 A 
HETATM   17  C24   D T1390       9.329  10.580   4.545  1.00 51.21     0.037 A 
HETATM   18  C11   D T1390       9.810  11.624   3.661  1.00 51.21     0.011 A 
HETATM   19  C12   D T1390       8.943  12.352   2.818  1.00 51.21     0.006 A 
BRANCH  17  20
HETATM   20  N17   D T1390      10.274   9.859   5.410  1.00 51.21    -0.248 NA
HETATM   21  C18   D T1390      10.818  10.702   6.553  1.00 51.21     0.112 C 
HETATM   22  C19   D T1390      12.333  11.082   6.572  1.00 51.21     0.268 C 
HETATM   23  N20   D T1390      13.218  10.001   6.102  1.00 51.21     0.142 N 
HETATM   24  C21   D T1390      12.826   9.591   4.749  1.00 51.21     0.268 C 
HETATM   25  C23   D T1390      14.625  10.410   6.142  1.00 51.21     0.285 C 
HETATM   26  C22   D T1390      11.345   9.119   4.658  1.00 51.21     0.112 C 
ENDBRANCH  17  20
ENDBRANCH  12  14
ENDBRANCH   3  11
BRANCH   9  27
HETATM   27  C20   D T1390       7.855  15.904  -4.228  1.00 51.21     0.216 C 
BRANCH  27  28
HETATM   28  C27   D T1390       8.253  16.409  -5.636  1.00 51.21     0.014 A 
HETATM   29  C28   D T1390       8.329  17.795  -5.932  1.00 51.21    -0.001 A 
HETATM   30  C31   D T1390       8.715  18.239  -7.219  1.00 51.21    -0.000 A 
HETATM   31  C35   D T1390       9.034  17.299  -8.238  1.00 51.21    -0.000 A 
HETATM   32  C33   D T1390       8.959  15.913  -7.954  1.00 51.21    -0.000 A 
HETATM   33  C29   D T1390       8.574  15.476  -6.672  1.00 51.21    -0.001 A 
ENDBRANCH  27  28
BRANCH  27  34
HETATM   34  O34   D T1390       8.156  16.888  -3.196  1.00 51.21    -0.340 OA
HETATM   35  C36   D T1390       9.354  16.654  -2.463  1.00 51.21     0.175 C 
ENDBRANCH  27  34
ENDBRANCH   9  27
TORSDOF 6
ENDMDL
MODEL 8
REMARK VINA RESULT:    -8.423      6.267      8.351
REMARK INTER + INTRA:         -11.154
REMARK INTER:                 -10.950
REMARK INTRA:                  -0.204
REMARK UNBOUND:                 0.223
REMARK  6 active torsions:
REMARK  status: ('A' for Active; 'I' for Inactive)
REMARK       I    between atoms: N1_1  and  C25_25 
REMARK    1  A    between atoms: C3_3  and  N5_5 
REMARK       I    between atoms: N5_5  and  C6_6 
REMARK    2  A    between atoms: C6_6  and  C7_7 
REMARK    3  A    between atoms: N17_17  and  C24_24 
REMARK    4  A    between atoms: C25_25  and  C20_32 
REMARK    5  A    between atoms: C27_27  and  C20_32 
REMARK    6  A    between atoms: C20_32  and  O34_35 
ROOT
HETATM    1  N1    D T1390       4.772  17.421  -4.463  1.00 51.21    -0.308 N 
HETATM    2  N2    D T1390       6.602  17.476  -7.659  1.00 51.21    -0.149 NA
HETATM    3  C3    D T1390       7.923  16.572  -6.231  1.00 51.21     0.186 A 
HETATM    4  N4    D T1390       7.802  16.957  -7.531  1.00 51.21    -0.129 NA
HETATM    5  C13   D T1390       5.928  17.461  -6.529  1.00 51.21     0.104 A 
HETATM    6  C14   D T1390       6.702  16.904  -5.583  1.00 51.21     0.055 A 
HETATM    7  C15   D T1390       6.079  16.818  -4.238  1.00 51.21     0.136 A 
HETATM    8  C16   D T1390       4.631  17.824  -5.875  1.00 51.21     0.152 A 
HETATM    9  C25   D T1390       3.723  17.646  -3.521  1.00 51.21     0.266 C 
HETATM   10  O26   D T1390       2.668  18.177  -3.852  1.00 51.21    -0.269 OA
ENDROOT
BRANCH   3  11
HETATM   11  N5    D T1390       9.097  15.997  -5.845  1.00 51.21    -0.187 NA
HETATM   12  C6    D T1390      10.077  16.510  -5.013  1.00 51.21     0.281 C 
HETATM   13  O8    D T1390       9.997  17.599  -4.473  1.00 51.21    -0.265 OA
BRANCH  12  14
HETATM   14  C7    D T1390      11.307  15.650  -4.771  1.00 51.21     0.058 A 
HETATM   15  C9    D T1390      12.067  15.063  -5.812  1.00 51.21     0.006 A 
HETATM   16  C10   D T1390      13.209  14.263  -5.532  1.00 51.21     0.011 A 
HETATM   17  C24   D T1390      13.661  14.009  -4.178  1.00 51.21     0.037 A 
HETATM   18  C11   D T1390      12.866  14.624  -3.133  1.00 51.21     0.011 A 
HETATM   19  C12   D T1390      11.733  15.415  -3.420  1.00 51.21     0.006 A 
BRANCH  17  20
HETATM   20  N17   D T1390      14.826  13.185  -3.824  1.00 51.21    -0.248 NA
HETATM   21  C18   D T1390      14.873  12.798  -2.355  1.00 51.21     0.112 C 
HETATM   22  C19   D T1390      16.009  13.368  -1.447  1.00 51.21     0.268 C 
HETATM   23  N20   D T1390      17.315  13.459  -2.124  1.00 51.21     0.142 N 
HETATM   24  C21   D T1390      17.192  14.275  -3.337  1.00 51.21     0.268 C 
HETATM   25  C23   D T1390      18.343  13.998  -1.228  1.00 51.21     0.285 C 
HETATM   26  C22   D T1390      16.131  13.726  -4.337  1.00 51.21     0.112 C 
ENDBRANCH  17  20
ENDBRANCH  12  14
ENDBRANCH   3  11
BRANCH   9  27
HETATM   27  C20   D T1390       3.977  17.225  -1.989  1.00 51.21     0.216 C 
BRANCH  27  28
HETATM   28  C27   D T1390       3.334  15.842  -1.726  1.00 51.21     0.014 A 
HETATM   29  C28   D T1390       1.971  15.719  -1.348  1.00 51.21    -0.001 A 
HETATM   30  C31   D T1390       1.394  14.446  -1.132  1.00 51.21    -0.000 A 
HETATM   31  C35   D T1390       2.172  13.266  -1.293  1.00 51.21    -0.000 A 
HETATM   32  C33   D T1390       3.534  13.377  -1.669  1.00 51.21    -0.000 A 
HETATM   33  C29   D T1390       4.105  14.647  -1.882  1.00 51.21    -0.001 A 
ENDBRANCH  27  28
BRANCH  27  34
HETATM   34  O34   D T1390       5.421  17.195  -1.795  1.00 51.21    -0.340 OA
HETATM   35  C36   D T1390       5.857  17.361  -0.450  1.00 51.21     0.175 C 
ENDBRANCH  27  34
ENDBRANCH   9  27
TORSDOF 6
ENDMDL
MODEL 9
REMARK VINA RESULT:    -8.371      5.386      8.308
REMARK INTER + INTRA:         -11.084
REMARK INTER:                 -10.971
REMARK INTRA:                  -0.113
REMARK UNBOUND:                 0.223
REMARK  6 active torsions:
REMARK  status: ('A' for Active; 'I' for Inactive)
REMARK       I    between atoms: N1_1  and  C25_25 
REMARK    1  A    between atoms: C3_3  and  N5_5 
REMARK       I    between atoms: N5_5  and  C6_6 
REMARK    2  A    between atoms: C6_6  and  C7_7 
REMARK    3  A    between atoms: N17_17  and  C24_24 
REMARK    4  A    between atoms: C25_25  and  C20_32 
REMARK    5  A    between atoms: C27_27  and  C20_32 
REMARK    6  A    between atoms: C20_32  and  O34_35 
ROOT
HETATM    1  N1    D T1390       2.620  14.555  -1.289  1.00 51.21    -0.308 N 
HETATM    2  N2    D T1390       3.146  17.742  -3.060  1.00 51.21    -0.149 NA
HETATM    3  C3    D T1390       4.935  16.595  -3.353  1.00 51.21     0.186 A 
HETATM    4  N4    D T1390       4.330  17.782  -3.630  1.00 51.21    -0.129 NA
HETATM    5  C13   D T1390       2.935  16.608  -2.426  1.00 51.21     0.104 A 
HETATM    6  C14   D T1390       4.024  15.835  -2.569  1.00 51.21     0.055 A 
HETATM    7  C15   D T1390       3.943  14.513  -1.900  1.00 51.21     0.136 A 
HETATM    8  C16   D T1390       1.955  15.834  -1.600  1.00 51.21     0.152 A 
HETATM    9  C25   D T1390       1.982  13.566  -0.481  1.00 51.21     0.266 C 
HETATM   10  O26   D T1390       0.858  13.743  -0.022  1.00 51.21    -0.269 OA
ENDROOT
BRANCH   3  11
HETATM   11  N5    D T1390       6.192  16.393  -3.841  1.00 51.21    -0.187 NA
HETATM   12  C6    D T1390       6.569  15.868  -5.064  1.00 51.21     0.281 C 
HETATM   13  O8    D T1390       5.775  15.518  -5.919  1.00 51.21    -0.265 OA
BRANCH  12  14
HETATM   14  C7    D T1390       8.059  15.734  -5.337  1.00 51.21     0.058 A 
HETATM   15  C9    D T1390       8.637  15.902  -6.619  1.00 51.21     0.006 A 
HETATM   16  C10   D T1390      10.037  15.763  -6.821  1.00 51.21     0.011 A 
HETATM   17  C24   D T1390      10.947  15.448  -5.738  1.00 51.21     0.037 A 
HETATM   18  C11   D T1390      10.329  15.283  -4.437  1.00 51.21     0.011 A 
HETATM   19  C12   D T1390       8.937  15.422  -4.244  1.00 51.21     0.006 A 
BRANCH  17  20
HETATM   20  N17   D T1390      12.400  15.282  -5.885  1.00 51.21    -0.248 NA
HETATM   21  C18   D T1390      12.896  13.896  -5.504  1.00 51.21     0.112 C 
HETATM   22  C19   D T1390      13.813  13.727  -4.250  1.00 51.21     0.268 C 
HETATM   23  N20   D T1390      14.786  14.821  -4.080  1.00 51.21     0.142 N 
HETATM   24  C21   D T1390      14.083  16.107  -4.012  1.00 51.21     0.268 C 
HETATM   25  C23   D T1390      15.619  14.612  -2.892  1.00 51.21     0.285 C 
HETATM   26  C22   D T1390      13.205  16.390  -5.266  1.00 51.21     0.112 C 
ENDBRANCH  17  20
ENDBRANCH  12  14
ENDBRANCH   3  11
BRANCH   9  27
HETATM   27  C20   D T1390       2.797  12.222  -0.144  1.00 51.21     0.216 C 
BRANCH  27  28
HETATM   28  C27   D T1390       4.245  12.591   0.261  1.00 51.21     0.014 A 
HETATM   29  C28   D T1390       4.515  13.366   1.420  1.00 51.21    -0.001 A 
HETATM   30  C31   D T1390       5.845  13.676   1.787  1.00 51.21    -0.000 A 
HETATM   31  C35   D T1390       6.936  13.212   1.000  1.00 51.21    -0.000 A 
HETATM   32  C33   D T1390       6.678  12.440  -0.160  1.00 51.21    -0.000 A 
HETATM   33  C29   D T1390       5.352  12.134  -0.522  1.00 51.21    -0.001 A 
ENDBRANCH  27  28
BRANCH  27  34
HETATM   34  O34   D T1390       2.085  11.557   0.940  1.00 51.21    -0.340 OA
HETATM   35  C36   D T1390       2.702  10.374   1.438  1.00 51.21     0.175 C 
ENDBRANCH  27  34
ENDBRANCH   9  27
TORSDOF 6
ENDMDL
