MODEL 1
REMARK VINA RESULT:    -8.536      0.000      0.000
REMARK INTER + INTRA:         -11.855
REMARK INTER:                 -11.530
REMARK INTRA:                  -0.325
REMARK UNBOUND:                -0.325
REMARK  6 active torsions:
REMARK  status: ('A' for Active; 'I' for Inactive)
REMARK       I    between atoms: N1_1  and  C25_25 
REMARK    1  A    between atoms: C3_3  and  N5_5 
REMARK       I    between atoms: N5_5  and  C6_6 
REMARK    2  A    between atoms: C6_6  and  C7_7 
REMARK    3  A    between atoms: N17_17  and  C24_24 
REMARK    4  A    between atoms: C25_25  and  C20_32 
REMARK    5  A    between atoms: C27_27  and  C20_32 
REMARK    6  A    between atoms: C20_32  and  O34_35 
ROOT
HETATM    1  N1    D T1390       8.376   5.190  -5.595  1.00 51.21    -0.308 N 
HETATM    2  N2    D T1390      10.717   6.560  -3.103  1.00 51.21    -0.149 NA
HETATM    3  C3    D T1390      10.237   4.576  -2.443  1.00 51.21     0.186 A 
HETATM    4  N4    D T1390      10.956   5.693  -2.145  1.00 51.21    -0.129 NA
HETATM    5  C13   D T1390       9.885   6.088  -4.009  1.00 51.21     0.104 A 
HETATM    6  C14   D T1390       9.542   4.838  -3.656  1.00 51.21     0.055 A 
HETATM    7  C15   D T1390       8.596   4.166  -4.581  1.00 51.21     0.136 A 
HETATM    8  C16   D T1390       9.166   6.396  -5.285  1.00 51.21     0.152 A 
HETATM    9  C25   D T1390       7.529   5.135  -6.743  1.00 51.21     0.266 C 
HETATM   10  O26   D T1390       7.433   6.085  -7.514  1.00 51.21    -0.269 OA
ENDROOT
BRANCH   3  11
HETATM   11  N5    D T1390      10.321   3.518  -1.586  1.00 51.21    -0.187 NA
HETATM   12  C6    D T1390       9.808   3.402  -0.307  1.00 51.21     0.281 C 
HETATM   13  O8    D T1390       9.160   4.276   0.240  1.00 51.21    -0.265 OA
BRANCH  12  14
HETATM   14  C7    D T1390      10.077   2.102   0.437  1.00 51.21     0.058 A 
HETATM   15  C9    D T1390      11.301   1.813   1.087  1.00 51.21     0.006 A 
HETATM   16  C10   D T1390      11.503   0.581   1.766  1.00 51.21     0.011 A 
HETATM   17  C24   D T1390      10.476  -0.440   1.836  1.00 51.21     0.037 A 
HETATM   18  C11   D T1390       9.234  -0.116   1.164  1.00 51.21     0.011 A 
HETATM   19  C12   D T1390       9.040   1.109   0.491  1.00 51.21     0.006 A 
BRANCH  17  20
HETATM   20  N17   D T1390      10.627  -1.735   2.514  1.00 51.21    -0.248 NA
HETATM   21  C18   D T1390      12.074  -2.114   2.788  1.00 51.21     0.112 C 
HETATM   22  C19   D T1390      12.700  -3.337   2.044  1.00 51.21     0.268 C 
HETATM   23  N20   D T1390      11.767  -4.466   1.877  1.00 51.21     0.142 N 
HETATM   24  C21   D T1390      10.566  -4.016   1.168  1.00 51.21     0.268 C 
HETATM   25  C23   D T1390      12.405  -5.585   1.177  1.00 51.21     0.285 C 
HETATM   26  C22   D T1390       9.832  -2.847   1.889  1.00 51.21     0.112 C 
ENDBRANCH  17  20
ENDBRANCH  12  14
ENDBRANCH   3  11
BRANCH   9  27
HETATM   27  C20   D T1390       6.661   3.803  -6.981  1.00 51.21     0.216 C 
BRANCH  27  28
HETATM   28  C27   D T1390       5.673   4.040  -8.149  1.00 51.21     0.014 A 
HETATM   29  C28   D T1390       5.680   3.215  -9.304  1.00 51.21    -0.001 A 
HETATM   30  C31   D T1390       4.755   3.433 -10.353  1.00 51.21    -0.000 A 
HETATM   31  C35   D T1390       3.802   4.484 -10.265  1.00 51.21    -0.000 A 
HETATM   32  C33   D T1390       3.787   5.316  -9.117  1.00 51.21    -0.000 A 
HETATM   33  C29   D T1390       4.709   5.095  -8.077  1.00 51.21    -0.001 A 
ENDBRANCH  27  28
BRANCH  27  34
HETATM   34  O34   D T1390       7.604   2.732  -7.281  1.00 51.21    -0.340 OA
HETATM   35  C36   D T1390       7.311   1.477  -6.677  1.00 51.21     0.175 C 
ENDBRANCH  27  34
ENDBRANCH   9  27
TORSDOF 6
ENDMDL
MODEL 2
REMARK VINA RESULT:    -8.361      7.135     12.136
REMARK INTER + INTRA:         -11.618
REMARK INTER:                 -10.730
REMARK INTRA:                  -0.888
REMARK UNBOUND:                -0.325
REMARK  6 active torsions:
REMARK  status: ('A' for Active; 'I' for Inactive)
REMARK       I    between atoms: N1_1  and  C25_25 
REMARK    1  A    between atoms: C3_3  and  N5_5 
REMARK       I    between atoms: N5_5  and  C6_6 
REMARK    2  A    between atoms: C6_6  and  C7_7 
REMARK    3  A    between atoms: N17_17  and  C24_24 
REMARK    4  A    between atoms: C25_25  and  C20_32 
REMARK    5  A    between atoms: C27_27  and  C20_32 
REMARK    6  A    between atoms: C20_32  and  O34_35 
ROOT
HETATM    1  N1    D T1390      10.486   5.890  -1.460  1.00 51.21    -0.308 N 
HETATM    2  N2    D T1390      12.830   8.669  -0.873  1.00 51.21    -0.149 NA
HETATM    3  C3    D T1390      10.864   9.526  -0.819  1.00 51.21     0.186 A 
HETATM    4  N4    D T1390      12.192   9.807  -0.714  1.00 51.21    -0.129 NA
HETATM    5  C13   D T1390      12.010   7.660  -1.079  1.00 51.21     0.104 A 
HETATM    6  C14   D T1390      10.751   8.129  -1.057  1.00 51.21     0.055 A 
HETATM    7  C15   D T1390       9.701   7.105  -1.282  1.00 51.21     0.136 A 
HETATM    8  C16   D T1390      11.925   6.187  -1.330  1.00 51.21     0.152 A 
HETATM    9  C25   D T1390      10.026   4.567  -1.738  1.00 51.21     0.266 C 
HETATM   10  O26   D T1390      10.809   3.632  -1.873  1.00 51.21    -0.269 OA
ENDROOT
BRANCH   3  11
HETATM   11  N5    D T1390       9.983  10.559  -0.688  1.00 51.21    -0.187 NA
HETATM   12  C6    D T1390       8.946  10.920  -1.529  1.00 51.21     0.281 C 
HETATM   13  O8    D T1390       8.660  10.310  -2.544  1.00 51.21    -0.265 OA
BRANCH  12  14
HETATM   14  C7    D T1390       8.130  12.145  -1.144  1.00 51.21     0.058 A 
HETATM   15  C9    D T1390       6.839  12.417  -1.658  1.00 51.21     0.006 A 
HETATM   16  C10   D T1390       6.119  13.579  -1.268  1.00 51.21     0.011 A 
HETATM   17  C24   D T1390       6.658  14.542  -0.329  1.00 51.21     0.037 A 
HETATM   18  C11   D T1390       7.979  14.238   0.182  1.00 51.21     0.011 A 
HETATM   19  C12   D T1390       8.688  13.082  -0.210  1.00 51.21     0.006 A 
BRANCH  17  20
HETATM   20  N17   D T1390       5.968  15.765   0.105  1.00 51.21    -0.248 NA
HETATM   21  C18   D T1390       5.569  16.680  -1.043  1.00 51.21     0.112 C 
HETATM   22  C19   D T1390       6.255  18.077  -1.183  1.00 51.21     0.268 C 
HETATM   23  N20   D T1390       6.501  18.745   0.108  1.00 51.21     0.142 N 
HETATM   24  C21   D T1390       7.311  17.879   0.969  1.00 51.21     0.268 C 
HETATM   25  C23   D T1390       7.142  20.049  -0.082  1.00 51.21     0.285 C 
HETATM   26  C22   D T1390       6.658  16.489   1.227  1.00 51.21     0.112 C 
ENDBRANCH  17  20
ENDBRANCH  12  14
ENDBRANCH   3  11
BRANCH   9  27
HETATM   27  C20   D T1390       8.445   4.337  -1.916  1.00 51.21     0.216 C 
BRANCH  27  28
HETATM   28  C27   D T1390       8.151   3.929  -3.380  1.00 51.21     0.014 A 
HETATM   29  C28   D T1390       8.928   4.427  -4.458  1.00 51.21    -0.001 A 
HETATM   30  C31   D T1390       8.658   4.026  -5.788  1.00 51.21    -0.000 A 
HETATM   31  C35   D T1390       7.603   3.115  -6.065  1.00 51.21    -0.000 A 
HETATM   32  C33   D T1390       6.819   2.612  -4.997  1.00 51.21    -0.000 A 
HETATM   33  C29   D T1390       7.090   3.014  -3.676  1.00 51.21    -0.001 A 
ENDBRANCH  27  28
BRANCH  27  34
HETATM   34  O34   D T1390       8.063   3.290  -0.976  1.00 51.21    -0.340 OA
HETATM   35  C36   D T1390       8.461   3.510   0.373  1.00 51.21     0.175 C 
ENDBRANCH  27  34
ENDBRANCH   9  27
TORSDOF 6
ENDMDL
MODEL 3
REMARK VINA RESULT:    -8.359      6.348      9.852
REMARK INTER + INTRA:         -11.616
REMARK INTER:                 -10.555
REMARK INTRA:                  -1.061
REMARK UNBOUND:                -0.325
REMARK  6 active torsions:
REMARK  status: ('A' for Active; 'I' for Inactive)
REMARK       I    between atoms: N1_1  and  C25_25 
REMARK    1  A    between atoms: C3_3  and  N5_5 
REMARK       I    between atoms: N5_5  and  C6_6 
REMARK    2  A    between atoms: C6_6  and  C7_7 
REMARK    3  A    between atoms: N17_17  and  C24_24 
REMARK    4  A    between atoms: C25_25  and  C20_32 
REMARK    5  A    between atoms: C27_27  and  C20_32 
REMARK    6  A    between atoms: C20_32  and  O34_35 
ROOT
HETATM    1  N1    D T1390       9.825  11.400   2.033  1.00 51.21    -0.308 N 
HETATM    2  N2    D T1390       9.697   8.012   3.471  1.00 51.21    -0.149 NA
HETATM    3  C3    D T1390       9.744   7.754   1.342  1.00 51.21     0.186 A 
HETATM    4  N4    D T1390       9.690   7.093   2.531  1.00 51.21    -0.129 NA
HETATM    5  C13   D T1390       9.748   9.231   2.979  1.00 51.21     0.104 A 
HETATM    6  C14   D T1390       9.780   9.145   1.639  1.00 51.21     0.055 A 
HETATM    7  C15   D T1390       9.833  10.447   0.930  1.00 51.21     0.136 A 
HETATM    8  C16   D T1390       9.783  10.688   3.324  1.00 51.21     0.152 A 
HETATM    9  C25   D T1390       9.835  12.827   1.976  1.00 51.21     0.266 C 
HETATM   10  O26   D T1390       9.816  13.509   2.995  1.00 51.21    -0.269 OA
ENDROOT
BRANCH   3  11
HETATM   11  N5    D T1390       9.748   7.009   0.199  1.00 51.21    -0.187 NA
HETATM   12  C6    D T1390      10.626   7.069  -0.866  1.00 51.21     0.281 C 
HETATM   13  O8    D T1390      11.578   7.829  -0.912  1.00 51.21    -0.265 OA
BRANCH  12  14
HETATM   14  C7    D T1390      10.374   6.125  -2.033  1.00 51.21     0.058 A 
HETATM   15  C9    D T1390      10.196   6.563  -3.367  1.00 51.21     0.006 A 
HETATM   16  C10   D T1390       9.960   5.639  -4.421  1.00 51.21     0.011 A 
HETATM   17  C24   D T1390       9.892   4.210  -4.195  1.00 51.21     0.037 A 
HETATM   18  C11   D T1390      10.080   3.790  -2.820  1.00 51.21     0.011 A 
HETATM   19  C12   D T1390      10.314   4.713  -1.779  1.00 51.21     0.006 A 
BRANCH  17  20
HETATM   20  N17   D T1390       9.642   3.206  -5.239  1.00 51.21    -0.248 NA
HETATM   21  C18   D T1390       8.167   3.006  -5.551  1.00 51.21     0.112 C 
HETATM   22  C19   D T1390       7.489   1.642  -5.203  1.00 51.21     0.268 C 
HETATM   23  N20   D T1390       8.355   0.474  -5.445  1.00 51.21     0.142 N 
HETATM   24  C21   D T1390       9.602   0.615  -4.688  1.00 51.21     0.268 C 
HETATM   25  C23   D T1390       7.670  -0.776  -5.105  1.00 51.21     0.285 C 
HETATM   26  C22   D T1390      10.385   1.916  -5.036  1.00 51.21     0.112 C 
ENDBRANCH  17  20
ENDBRANCH  12  14
ENDBRANCH   3  11
BRANCH   9  27
HETATM   27  C20   D T1390       9.827  13.526   0.528  1.00 51.21     0.216 C 
BRANCH  27  28
HETATM   28  C27   D T1390       8.365  13.807   0.106  1.00 51.21     0.014 A 
HETATM   29  C28   D T1390       7.612  14.858   0.694  1.00 51.21    -0.001 A 
HETATM   30  C31   D T1390       6.283  15.114   0.280  1.00 51.21    -0.000 A 
HETATM   31  C35   D T1390       5.680  14.321  -0.734  1.00 51.21    -0.000 A 
HETATM   32  C33   D T1390       6.420  13.267  -1.327  1.00 51.21    -0.000 A 
HETATM   33  C29   D T1390       7.741  13.016  -0.912  1.00 51.21    -0.001 A 
ENDBRANCH  27  28
BRANCH  27  34
HETATM   34  O34   D T1390      10.600  14.756   0.650  1.00 51.21    -0.340 OA
HETATM   35  C36   D T1390      11.744  14.842  -0.193  1.00 51.21     0.175 C 
ENDBRANCH  27  34
ENDBRANCH   9  27
TORSDOF 6
ENDMDL
MODEL 4
REMARK VINA RESULT:    -8.131      5.752      7.702
REMARK INTER + INTRA:         -11.308
REMARK INTER:                 -10.269
REMARK INTRA:                  -1.039
REMARK UNBOUND:                -0.325
REMARK  6 active torsions:
REMARK  status: ('A' for Active; 'I' for Inactive)
REMARK       I    between atoms: N1_1  and  C25_25 
REMARK    1  A    between atoms: C3_3  and  N5_5 
REMARK       I    between atoms: N5_5  and  C6_6 
REMARK    2  A    between atoms: C6_6  and  C7_7 
REMARK    3  A    between atoms: N17_17  and  C24_24 
REMARK    4  A    between atoms: C25_25  and  C20_32 
REMARK    5  A    between atoms: C27_27  and  C20_32 
REMARK    6  A    between atoms: C20_32  and  O34_35 
ROOT
HETATM    1  N1    D T1390      11.587   9.697  -0.797  1.00 51.21    -0.308 N 
HETATM    2  N2    D T1390      14.710   7.812  -1.308  1.00 51.21    -0.149 NA
HETATM    3  C3    D T1390      13.284   6.406  -0.539  1.00 51.21     0.186 A 
HETATM    4  N4    D T1390      14.570   6.552  -0.961  1.00 51.21    -0.129 NA
HETATM    5  C13   D T1390      13.603   8.504  -1.139  1.00 51.21     0.104 A 
HETATM    6  C14   D T1390      12.660   7.678  -0.655  1.00 51.21     0.055 A 
HETATM    7  C15   D T1390      11.343   8.315  -0.403  1.00 51.21     0.136 A 
HETATM    8  C16   D T1390      12.975   9.856  -1.271  1.00 51.21     0.152 A 
HETATM    9  C25   D T1390      10.689  10.805  -0.753  1.00 51.21     0.266 C 
HETATM   10  O26   D T1390      11.036  11.926  -1.111  1.00 51.21    -0.269 OA
ENDROOT
BRANCH   3  11
HETATM   11  N5    D T1390      12.889   5.169  -0.120  1.00 51.21    -0.187 NA
HETATM   12  C6    D T1390      11.822   4.410  -0.563  1.00 51.21     0.281 C 
HETATM   13  O8    D T1390      11.066   4.763  -1.451  1.00 51.21    -0.265 OA
BRANCH  12  14
HETATM   14  C7    D T1390      11.599   3.062   0.108  1.00 51.21     0.058 A 
HETATM   15  C9    D T1390      11.160   1.908  -0.585  1.00 51.21     0.006 A 
HETATM   16  C10   D T1390      10.964   0.672   0.090  1.00 51.21     0.011 A 
HETATM   17  C24   D T1390      11.204   0.522   1.510  1.00 51.21     0.037 A 
HETATM   18  C11   D T1390      11.655   1.718   2.194  1.00 51.21     0.011 A 
HETATM   19  C12   D T1390      11.847   2.941   1.517  1.00 51.21     0.006 A 
BRANCH  17  20
HETATM   20  N17   D T1390      11.012  -0.725   2.265  1.00 51.21    -0.248 NA
HETATM   21  C18   D T1390      12.293  -1.271   2.876  1.00 51.21     0.112 C 
HETATM   22  C19   D T1390      12.878  -2.621   2.351  1.00 51.21     0.268 C 
HETATM   23  N20   D T1390      11.847  -3.625   2.031  1.00 51.21     0.142 N 
HETATM   24  C21   D T1390      10.907  -3.076   1.049  1.00 51.21     0.268 C 
HETATM   25  C23   D T1390      12.449  -4.870   1.547  1.00 51.21     0.285 C 
HETATM   26  C22   D T1390      10.216  -1.766   1.530  1.00 51.21     0.112 C 
ENDBRANCH  17  20
ENDBRANCH  12  14
ENDBRANCH   3  11
BRANCH   9  27
HETATM   27  C20   D T1390       9.209  10.559  -0.173  1.00 51.21     0.216 C 
BRANCH  27  28
HETATM   28  C27   D T1390       9.276  10.464   1.370  1.00 51.21     0.014 A 
HETATM   29  C28   D T1390       9.852  11.500   2.152  1.00 51.21    -0.001 A 
HETATM   30  C31   D T1390       9.885  11.406   3.563  1.00 51.21    -0.000 A 
HETATM   31  C35   D T1390       9.339  10.271   4.222  1.00 51.21    -0.000 A 
HETATM   32  C33   D T1390       8.763   9.230   3.453  1.00 51.21    -0.000 A 
HETATM   33  C29   D T1390       8.732   9.327   2.049  1.00 51.21    -0.001 A 
ENDBRANCH  27  28
BRANCH  27  34
HETATM   34  O34   D T1390       8.392  11.684  -0.611  1.00 51.21    -0.340 OA
HETATM   35  C36   D T1390       7.653  11.468  -1.809  1.00 51.21     0.175 C 
ENDBRANCH  27  34
ENDBRANCH   9  27
TORSDOF 6
ENDMDL
MODEL 5
REMARK VINA RESULT:    -8.018      7.105     12.451
REMARK INTER + INTRA:         -11.156
REMARK INTER:                 -10.086
REMARK INTRA:                  -1.070
REMARK UNBOUND:                -0.325
REMARK  6 active torsions:
REMARK  status: ('A' for Active; 'I' for Inactive)
REMARK       I    between atoms: N1_1  and  C25_25 
REMARK    1  A    between atoms: C3_3  and  N5_5 
REMARK       I    between atoms: N5_5  and  C6_6 
REMARK    2  A    between atoms: C6_6  and  C7_7 
REMARK    3  A    between atoms: N17_17  and  C24_24 
REMARK    4  A    between atoms: C25_25  and  C20_32 
REMARK    5  A    between atoms: C27_27  and  C20_32 
REMARK    6  A    between atoms: C20_32  and  O34_35 
ROOT
HETATM    1  N1    D T1390      12.129   6.249  -0.614  1.00 51.21    -0.308 N 
HETATM    2  N2    D T1390      14.083   9.345  -0.206  1.00 51.21    -0.149 NA
HETATM    3  C3    D T1390      12.055   9.960  -0.538  1.00 51.21     0.186 A 
HETATM    4  N4    D T1390      13.321  10.409  -0.317  1.00 51.21    -0.129 NA
HETATM    5  C13   D T1390      13.403   8.226  -0.344  1.00 51.21     0.104 A 
HETATM    6  C14   D T1390      12.114   8.539  -0.556  1.00 51.21     0.055 A 
HETATM    7  C15   D T1390      11.211   7.375  -0.738  1.00 51.21     0.136 A 
HETATM    8  C16   D T1390      13.499   6.732  -0.358  1.00 51.21     0.152 A 
HETATM    9  C25   D T1390      11.844   4.855  -0.726  1.00 51.21     0.266 C 
HETATM   10  O26   D T1390      12.726   4.010  -0.607  1.00 51.21    -0.269 OA
ENDROOT
BRANCH   3  11
HETATM   11  N5    D T1390      11.067  10.888  -0.690  1.00 51.21    -0.187 NA
HETATM   12  C6    D T1390       9.869  10.992  -0.007  1.00 51.21     0.281 C 
HETATM   13  O8    D T1390       9.535  10.233   0.885  1.00 51.21    -0.265 OA
BRANCH  12  14
HETATM   14  C7    D T1390       8.936  12.126  -0.405  1.00 51.21     0.058 A 
HETATM   15  C9    D T1390       7.895  11.984  -1.354  1.00 51.21     0.006 A 
HETATM   16  C10   D T1390       7.051  13.077  -1.693  1.00 51.21     0.011 A 
HETATM   17  C24   D T1390       7.204  14.385  -1.091  1.00 51.21     0.037 A 
HETATM   18  C11   D T1390       8.275  14.502  -0.122  1.00 51.21     0.011 A 
HETATM   19  C12   D T1390       9.109  13.413   0.210  1.00 51.21     0.006 A 
BRANCH  17  20
HETATM   20  N17   D T1390       6.371  15.555  -1.406  1.00 51.21    -0.248 NA
HETATM   21  C18   D T1390       7.107  16.636  -2.182  1.00 51.21     0.112 C 
HETATM   22  C19   D T1390       7.379  18.016  -1.504  1.00 51.21     0.268 C 
HETATM   23  N20   D T1390       6.267  18.486  -0.657  1.00 51.21     0.142 N 
HETATM   24  C21   D T1390       5.964  17.482   0.367  1.00 51.21     0.268 C 
HETATM   25  C23   D T1390       6.574  19.784  -0.048  1.00 51.21     0.285 C 
HETATM   26  C22   D T1390       5.602  16.090  -0.231  1.00 51.21     0.112 C 
ENDBRANCH  17  20
ENDBRANCH  12  14
ENDBRANCH   3  11
BRANCH   9  27
HETATM   27  C20   D T1390      10.334   4.414  -1.059  1.00 51.21     0.216 C 
BRANCH  27  28
HETATM   28  C27   D T1390      10.175   4.257  -2.590  1.00 51.21     0.014 A 
HETATM   29  C28   D T1390       9.835   5.361  -3.416  1.00 51.21    -0.001 A 
HETATM   30  C31   D T1390       9.715   5.203  -4.818  1.00 51.21    -0.000 A 
HETATM   31  C35   D T1390       9.933   3.935  -5.421  1.00 51.21    -0.000 A 
HETATM   32  C33   D T1390      10.271   2.825  -4.606  1.00 51.21    -0.000 A 
HETATM   33  C29   D T1390      10.389   2.986  -3.213  1.00 51.21    -0.001 A 
ENDBRANCH  27  28
BRANCH  27  34
HETATM   34  O34   D T1390      10.098   3.157  -0.360  1.00 51.21    -0.340 OA
HETATM   35  C36   D T1390       8.908   3.109   0.420  1.00 51.21     0.175 C 
ENDBRANCH  27  34
ENDBRANCH   9  27
TORSDOF 6
ENDMDL
MODEL 6
REMARK VINA RESULT:    -7.861      4.273      7.709
REMARK INTER + INTRA:         -10.943
REMARK INTER:                 -11.221
REMARK INTRA:                   0.278
REMARK UNBOUND:                -0.325
REMARK  6 active torsions:
REMARK  status: ('A' for Active; 'I' for Inactive)
REMARK       I    between atoms: N1_1  and  C25_25 
REMARK    1  A    between atoms: C3_3  and  N5_5 
REMARK       I    between atoms: N5_5  and  C6_6 
REMARK    2  A    between atoms: C6_6  and  C7_7 
REMARK    3  A    between atoms: N17_17  and  C24_24 
REMARK    4  A    between atoms: C25_25  and  C20_32 
REMARK    5  A    between atoms: C27_27  and  C20_32 
REMARK    6  A    between atoms: C20_32  and  O34_35 
ROOT
HETATM    1  N1    D T1390       7.454   2.865  -5.303  1.00 51.21    -0.308 N 
HETATM    2  N2    D T1390       8.666   1.669  -2.038  1.00 51.21    -0.149 NA
HETATM    3  C3    D T1390       9.330   3.702  -2.212  1.00 51.21     0.186 A 
HETATM    4  N4    D T1390       9.339   2.605  -1.406  1.00 51.21    -0.129 NA
HETATM    5  C13   D T1390       8.219   2.078  -3.206  1.00 51.21     0.104 A 
HETATM    6  C14   D T1390       8.601   3.354  -3.382  1.00 51.21     0.055 A 
HETATM    7  C15   D T1390       8.174   3.961  -4.667  1.00 51.21     0.136 A 
HETATM    8  C16   D T1390       7.448   1.679  -4.426  1.00 51.21     0.152 A 
HETATM    9  C25   D T1390       6.829   2.839  -6.587  1.00 51.21     0.266 C 
HETATM   10  O26   D T1390       6.261   1.834  -7.002  1.00 51.21    -0.269 OA
ENDROOT
BRANCH   3  11
HETATM   11  N5    D T1390       9.973   4.822  -1.771  1.00 51.21    -0.187 NA
HETATM   12  C6    D T1390       9.431   5.960  -1.203  1.00 51.21     0.281 C 
HETATM   13  O8    D T1390       8.240   6.105  -0.994  1.00 51.21    -0.265 OA
BRANCH  12  14
HETATM   14  C7    D T1390      10.393   7.076  -0.823  1.00 51.21     0.058 A 
HETATM   15  C9    D T1390      11.788   6.887  -0.672  1.00 51.21     0.006 A 
HETATM   16  C10   D T1390      12.643   7.963  -0.312  1.00 51.21     0.011 A 
HETATM   17  C24   D T1390      12.144   9.304  -0.086  1.00 51.21     0.037 A 
HETATM   18  C11   D T1390      10.714   9.469  -0.250  1.00 51.21     0.011 A 
HETATM   19  C12   D T1390       9.870   8.396  -0.607  1.00 51.21     0.006 A 
BRANCH  17  20
HETATM   20  N17   D T1390      12.975  10.455   0.296  1.00 51.21    -0.248 NA
HETATM   21  C18   D T1390      13.993  10.849  -0.763  1.00 51.21     0.112 C 
HETATM   22  C19   D T1390      15.517  10.670  -0.465  1.00 51.21     0.268 C 
HETATM   23  N20   D T1390      15.887  10.992   0.925  1.00 51.21     0.142 N 
HETATM   24  C21   D T1390      15.101  10.170   1.851  1.00 51.21     0.268 C 
HETATM   25  C23   D T1390      17.324  10.810   1.148  1.00 51.21     0.285 C 
HETATM   26  C22   D T1390      13.564  10.350   1.674  1.00 51.21     0.112 C 
ENDBRANCH  17  20
ENDBRANCH  12  14
ENDBRANCH   3  11
BRANCH   9  27
HETATM   27  C20   D T1390       6.926   4.157  -7.504  1.00 51.21     0.216 C 
BRANCH  27  28
HETATM   28  C27   D T1390       5.747   4.170  -8.505  1.00 51.21     0.014 A 
HETATM   29  C28   D T1390       4.661   5.073  -8.360  1.00 51.21    -0.001 A 
HETATM   30  C31   D T1390       3.602   5.085  -9.298  1.00 51.21    -0.000 A 
HETATM   31  C35   D T1390       3.608   4.191 -10.403  1.00 51.21    -0.000 A 
HETATM   32  C33   D T1390       4.685   3.282 -10.557  1.00 51.21    -0.000 A 
HETATM   33  C29   D T1390       5.737   3.273  -9.621  1.00 51.21    -0.001 A 
ENDBRANCH  27  28
BRANCH  27  34
HETATM   34  O34   D T1390       6.882   5.302  -6.602  1.00 51.21    -0.340 OA
HETATM   35  C36   D T1390       7.295   6.540  -7.170  1.00 51.21     0.175 C 
ENDBRANCH  27  34
ENDBRANCH   9  27
TORSDOF 6
ENDMDL
MODEL 7
REMARK VINA RESULT:    -7.790      4.142      7.997
REMARK INTER + INTRA:         -10.848
REMARK INTER:                 -11.355
REMARK INTRA:                   0.506
REMARK UNBOUND:                -0.325
REMARK  6 active torsions:
REMARK  status: ('A' for Active; 'I' for Inactive)
REMARK       I    between atoms: N1_1  and  C25_25 
REMARK    1  A    between atoms: C3_3  and  N5_5 
REMARK       I    between atoms: N5_5  and  C6_6 
REMARK    2  A    between atoms: C6_6  and  C7_7 
REMARK    3  A    between atoms: N17_17  and  C24_24 
REMARK    4  A    between atoms: C25_25  and  C20_32 
REMARK    5  A    between atoms: C27_27  and  C20_32 
REMARK    6  A    between atoms: C20_32  and  O34_35 
ROOT
HETATM    1  N1    D T1390       7.346   2.717  -4.881  1.00 51.21    -0.308 N 
HETATM    2  N2    D T1390       8.505   1.689  -1.539  1.00 51.21    -0.149 NA
HETATM    3  C3    D T1390       9.419   3.590  -1.929  1.00 51.21     0.186 A 
HETATM    4  N4    D T1390       9.314   2.584  -1.018  1.00 51.21    -0.129 NA
HETATM    5  C13   D T1390       8.074   2.039  -2.733  1.00 51.21     0.104 A 
HETATM    6  C14   D T1390       8.611   3.231  -3.043  1.00 51.21     0.055 A 
HETATM    7  C15   D T1390       8.223   3.764  -4.373  1.00 51.21     0.136 A 
HETATM    8  C16   D T1390       7.216   1.632  -3.890  1.00 51.21     0.152 A 
HETATM    9  C25   D T1390       6.679   2.651  -6.142  1.00 51.21     0.266 C 
HETATM   10  O26   D T1390       5.972   1.694  -6.443  1.00 51.21    -0.269 OA
ENDROOT
BRANCH   3  11
HETATM   11  N5    D T1390      10.216   4.652  -1.615  1.00 51.21    -0.187 NA
HETATM   12  C6    D T1390      11.522   4.646  -1.162  1.00 51.21     0.281 C 
HETATM   13  O8    D T1390      12.172   3.628  -0.995  1.00 51.21    -0.265 OA
BRANCH  12  14
HETATM   14  C7    D T1390      12.164   5.993  -0.865  1.00 51.21     0.058 A 
HETATM   15  C9    D T1390      13.439   6.136  -0.265  1.00 51.21     0.006 A 
HETATM   16  C10   D T1390      13.993   7.419  -0.006  1.00 51.21     0.011 A 
HETATM   17  C24   D T1390      13.294   8.643  -0.340  1.00 51.21     0.037 A 
HETATM   18  C11   D T1390      11.994   8.468  -0.954  1.00 51.21     0.011 A 
HETATM   19  C12   D T1390      11.450   7.191  -1.209  1.00 51.21     0.006 A 
BRANCH  17  20
HETATM   20  N17   D T1390      13.809   9.997  -0.089  1.00 51.21    -0.248 NA
HETATM   21  C18   D T1390      13.316  10.604   1.216  1.00 51.21     0.112 C 
HETATM   22  C19   D T1390      12.364  11.842   1.173  1.00 51.21     0.268 C 
HETATM   23  N20   D T1390      12.696  12.805   0.108  1.00 51.21     0.142 N 
HETATM   24  C21   D T1390      12.690  12.129  -1.193  1.00 51.21     0.268 C 
HETATM   25  C23   D T1390      11.775  13.945   0.115  1.00 51.21     0.285 C 
HETATM   26  C22   D T1390      13.677  10.927  -1.262  1.00 51.21     0.112 C 
ENDBRANCH  17  20
ENDBRANCH  12  14
ENDBRANCH   3  11
BRANCH   9  27
HETATM   27  C20   D T1390       6.915   3.850  -7.187  1.00 51.21     0.216 C 
BRANCH  27  28
HETATM   28  C27   D T1390       5.843   3.774  -8.301  1.00 51.21     0.014 A 
HETATM   29  C28   D T1390       5.691   2.614  -9.105  1.00 51.21    -0.001 A 
HETATM   30  C31   D T1390       4.690   2.554 -10.104  1.00 51.21    -0.000 A 
HETATM   31  C35   D T1390       3.820   3.657 -10.318  1.00 51.21    -0.000 A 
HETATM   32  C33   D T1390       3.964   4.822  -9.523  1.00 51.21    -0.000 A 
HETATM   33  C29   D T1390       4.961   4.877  -8.531  1.00 51.21    -0.001 A 
ENDBRANCH  27  28
BRANCH  27  34
HETATM   34  O34   D T1390       6.821   5.093  -6.431  1.00 51.21    -0.340 OA
HETATM   35  C36   D T1390       7.609   6.169  -6.930  1.00 51.21     0.175 C 
ENDBRANCH  27  34
ENDBRANCH   9  27
TORSDOF 6
ENDMDL
MODEL 8
REMARK VINA RESULT:    -7.774      5.541      7.302
REMARK INTER + INTRA:         -10.826
REMARK INTER:                 -10.596
REMARK INTRA:                  -0.231
REMARK UNBOUND:                -0.325
REMARK  6 active torsions:
REMARK  status: ('A' for Active; 'I' for Inactive)
REMARK       I    between atoms: N1_1  and  C25_25 
REMARK    1  A    between atoms: C3_3  and  N5_5 
REMARK       I    between atoms: N5_5  and  C6_6 
REMARK    2  A    between atoms: C6_6  and  C7_7 
REMARK    3  A    between atoms: N17_17  and  C24_24 
REMARK    4  A    between atoms: C25_25  and  C20_32 
REMARK    5  A    between atoms: C27_27  and  C20_32 
REMARK    6  A    between atoms: C20_32  and  O34_35 
ROOT
HETATM    1  N1    D T1390      12.281  10.739  -0.719  1.00 51.21    -0.308 N 
HETATM    2  N2    D T1390      14.960   8.393  -1.661  1.00 51.21    -0.149 NA
HETATM    3  C3    D T1390      13.453   7.218  -0.687  1.00 51.21     0.186 A 
HETATM    4  N4    D T1390      14.672   7.166  -1.290  1.00 51.21    -0.129 NA
HETATM    5  C13   D T1390      14.012   9.248  -1.338  1.00 51.21     0.104 A 
HETATM    6  C14   D T1390      13.028   8.575  -0.720  1.00 51.21     0.055 A 
HETATM    7  C15   D T1390      11.879   9.407  -0.285  1.00 51.21     0.136 A 
HETATM    8  C16   D T1390      13.595  10.685  -1.388  1.00 51.21     0.152 A 
HETATM    9  C25   D T1390      11.586  11.975  -0.553  1.00 51.21     0.266 C 
HETATM   10  O26   D T1390      12.053  13.033  -0.965  1.00 51.21    -0.269 OA
ENDROOT
BRANCH   3  11
HETATM   11  N5    D T1390      12.929   6.052  -0.208  1.00 51.21    -0.187 NA
HETATM   12  C6    D T1390      11.776   5.399  -0.602  1.00 51.21     0.281 C 
HETATM   13  O8    D T1390      11.049   5.797  -1.495  1.00 51.21    -0.265 OA
BRANCH  12  14
HETATM   14  C7    D T1390      11.417   4.115   0.131  1.00 51.21     0.058 A 
HETATM   15  C9    D T1390      10.158   3.477   0.018  1.00 51.21     0.006 A 
HETATM   16  C10   D T1390       9.871   2.279   0.727  1.00 51.21     0.011 A 
HETATM   17  C24   D T1390      10.842   1.644   1.595  1.00 51.21     0.037 A 
HETATM   18  C11   D T1390      12.122   2.317   1.690  1.00 51.21     0.011 A 
HETATM   19  C12   D T1390      12.400   3.506   0.983  1.00 51.21     0.006 A 
BRANCH  17  20
HETATM   20  N17   D T1390      10.603   0.413   2.360  1.00 51.21    -0.248 NA
HETATM   21  C18   D T1390      11.820  -0.069   3.135  1.00 51.21     0.112 C 
HETATM   22  C19   D T1390      12.509  -1.410   2.725  1.00 51.21     0.268 C 
HETATM   23  N20   D T1390      11.557  -2.460   2.317  1.00 51.21     0.142 N 
HETATM   24  C21   D T1390      10.723  -1.973   1.214  1.00 51.21     0.268 C 
HETATM   25  C23   D T1390      12.255  -3.695   1.946  1.00 51.21     0.285 C 
HETATM   26  C22   D T1390       9.936  -0.677   1.569  1.00 51.21     0.112 C 
ENDBRANCH  17  20
ENDBRANCH  12  14
ENDBRANCH   3  11
BRANCH   9  27
HETATM   27  C20   D T1390      10.183  11.956   0.234  1.00 51.21     0.216 C 
BRANCH  27  28
HETATM   28  C27   D T1390       9.024  11.969  -0.790  1.00 51.21     0.014 A 
HETATM   29  C28   D T1390       7.962  12.906  -0.696  1.00 51.21    -0.001 A 
HETATM   30  C31   D T1390       6.921  12.917  -1.655  1.00 51.21    -0.000 A 
HETATM   31  C35   D T1390       6.922  11.987  -2.729  1.00 51.21    -0.000 A 
HETATM   32  C33   D T1390       7.976  11.045  -2.833  1.00 51.21    -0.000 A 
HETATM   33  C29   D T1390       9.009  11.037  -1.878  1.00 51.21    -0.001 A 
ENDBRANCH  27  28
BRANCH  27  34
HETATM   34  O34   D T1390      10.173  10.745   1.046  1.00 51.21    -0.340 OA
HETATM   35  C36   D T1390       9.834  10.936   2.416  1.00 51.21     0.175 C 
ENDBRANCH  27  34
ENDBRANCH   9  27
TORSDOF 6
ENDMDL
MODEL 9
REMARK VINA RESULT:    -7.617     10.455     16.573
REMARK INTER + INTRA:         -10.614
REMARK INTER:                  -9.540
REMARK INTRA:                  -1.074
REMARK UNBOUND:                -0.325
REMARK  6 active torsions:
REMARK  status: ('A' for Active; 'I' for Inactive)
REMARK       I    between atoms: N1_1  and  C25_25 
REMARK    1  A    between atoms: C3_3  and  N5_5 
REMARK       I    between atoms: N5_5  and  C6_6 
REMARK    2  A    between atoms: C6_6  and  C7_7 
REMARK    3  A    between atoms: N17_17  and  C24_24 
REMARK    4  A    between atoms: C25_25  and  C20_32 
REMARK    5  A    between atoms: C27_27  and  C20_32 
REMARK    6  A    between atoms: C20_32  and  O34_35 
ROOT
HETATM    1  N1    D T1390       9.846  11.936   1.392  1.00 51.21    -0.308 N 
HETATM    2  N2    D T1390       9.017  15.163   2.963  1.00 51.21    -0.149 NA
HETATM    3  C3    D T1390       8.640  15.406   0.865  1.00 51.21     0.186 A 
HETATM    4  N4    D T1390       8.611  16.038   2.071  1.00 51.21    -0.129 NA
HETATM    5  C13   D T1390       9.314  13.999   2.423  1.00 51.21     0.104 A 
HETATM    6  C14   D T1390       9.099  14.081   1.099  1.00 51.21     0.055 A 
HETATM    7  C15   D T1390       9.396  12.840   0.341  1.00 51.21     0.136 A 
HETATM    8  C16   D T1390       9.801  12.611   2.703  1.00 51.21     0.152 A 
HETATM    9  C25   D T1390      10.300  10.588   1.270  1.00 51.21     0.266 C 
HETATM   10  O26   D T1390      10.662   9.943   2.249  1.00 51.21    -0.269 OA
ENDROOT
BRANCH   3  11
HETATM   11  N5    D T1390       8.257  16.117  -0.235  1.00 51.21    -0.187 NA
HETATM   12  C6    D T1390       7.003  16.204  -0.811  1.00 51.21     0.281 C 
HETATM   13  O8    D T1390       6.019  15.640  -0.369  1.00 51.21    -0.265 OA
BRANCH  12  14
HETATM   14  C7    D T1390       6.869  17.060  -2.062  1.00 51.21     0.058 A 
HETATM   15  C9    D T1390       6.000  18.174  -2.156  1.00 51.21     0.006 A 
HETATM   16  C10   D T1390       5.909  18.940  -3.350  1.00 51.21     0.011 A 
HETATM   17  C24   D T1390       6.695  18.631  -4.527  1.00 51.21     0.037 A 
HETATM   18  C11   D T1390       7.577  17.487  -4.402  1.00 51.21     0.011 A 
HETATM   19  C12   D T1390       7.661  16.731  -3.213  1.00 51.21     0.006 A 
BRANCH  17  20
HETATM   20  N17   D T1390       6.639  19.377  -5.792  1.00 51.21    -0.248 NA
HETATM   21  C18   D T1390       6.077  20.783  -5.646  1.00 51.21     0.112 C 
HETATM   22  C19   D T1390       4.706  21.133  -6.307  1.00 51.21     0.268 C 
HETATM   23  N20   D T1390       4.509  20.503  -7.626  1.00 51.21     0.142 N 
HETATM   24  C21   D T1390       4.646  19.048  -7.506  1.00 51.21     0.268 C 
HETATM   25  C23   D T1390       3.211  20.866  -8.200  1.00 51.21     0.285 C 
HETATM   26  C22   D T1390       6.023  18.609  -6.927  1.00 51.21     0.112 C 
ENDBRANCH  17  20
ENDBRANCH  12  14
ENDBRANCH   3  11
BRANCH   9  27
HETATM   27  C20   D T1390      10.369   9.942  -0.201  1.00 51.21     0.216 C 
BRANCH  27  28
HETATM   28  C27   D T1390      11.844   9.883  -0.663  1.00 51.21     0.014 A 
HETATM   29  C28   D T1390      12.596  11.065  -0.896  1.00 51.21    -0.001 A 
HETATM   30  C31   D T1390      13.951  10.992  -1.298  1.00 51.21    -0.000 A 
HETATM   31  C35   D T1390      14.582   9.731  -1.474  1.00 51.21    -0.000 A 
HETATM   32  C33   D T1390      13.842   8.544  -1.247  1.00 51.21    -0.000 A 
HETATM   33  C29   D T1390      12.494   8.621  -0.848  1.00 51.21    -0.001 A 
ENDBRANCH  27  28
BRANCH  27  34
HETATM   34  O34   D T1390       9.779   8.612  -0.105  1.00 51.21    -0.340 OA
HETATM   35  C36   D T1390       8.367   8.584   0.072  1.00 51.21     0.175 C 
ENDBRANCH  27  34
ENDBRANCH   9  27
TORSDOF 6
ENDMDL
