MODEL 1
REMARK VINA RESULT:      -6.7      0.000      0.000
REMARK  6 active torsions:
REMARK  status: ('A' for Active; 'I' for Inactive)
REMARK       I    between atoms: N1_1  and  C25_25 
REMARK    1  A    between atoms: C3_3  and  N5_5 
REMARK       I    between atoms: N5_5  and  C6_6 
REMARK    2  A    between atoms: C6_6  and  C7_7 
REMARK    3  A    between atoms: N17_17  and  C24_24 
REMARK    4  A    between atoms: C25_25  and  C20_32 
REMARK    5  A    between atoms: C27_27  and  C20_32 
REMARK    6  A    between atoms: C20_32  and  O34_35 
ROOT
HETATM    1  N1    D T1390      21.971  39.274  28.819  1.00 51.21    -0.308 N 
HETATM    2  N2    D T1390      22.062  39.588  32.488  1.00 51.21    -0.149 NA
HETATM    3  C3    D T1390      24.026  40.107  31.796  1.00 51.21     0.186 A 
HETATM    4  N4    D T1390      23.250  39.962  32.906  1.00 51.21    -0.129 NA
HETATM    5  C13   D T1390      22.006  39.475  31.178  1.00 51.21     0.104 A 
HETATM    6  C14   D T1390      23.211  39.788  30.675  1.00 51.21     0.055 A 
HETATM    7  C15   D T1390      23.312  39.702  29.196  1.00 51.21     0.136 A 
HETATM    8  C16   D T1390      21.124  39.131  30.018  1.00 51.21     0.152 A 
HETATM    9  C25   D T1390      21.462  38.992  27.515  1.00 51.21     0.266 C 
HETATM   10  O26   D T1390      20.302  38.628  27.345  1.00 51.21    -0.269 OA
ENDROOT
BRANCH   3  11
HETATM   11  N5    D T1390      25.322  40.495  31.971  1.00 51.21    -0.187 NA
HETATM   12  C6    D T1390      26.346  39.818  32.608  1.00 51.21     0.281 C 
HETATM   13  O8    D T1390      26.215  38.714  33.105  1.00 51.21    -0.265 OA
BRANCH  12  14
HETATM   14  C7    D T1390      27.700  40.507  32.676  1.00 51.21     0.058 A 
HETATM   15  C9    D T1390      27.970  41.761  32.075  1.00 51.21     0.006 A 
HETATM   16  C10   D T1390      29.256  42.361  32.166  1.00 51.21     0.011 A 
HETATM   17  C24   D T1390      30.353  41.734  32.874  1.00 51.21     0.037 A 
HETATM   18  C11   D T1390      30.048  40.453  33.481  1.00 51.21     0.011 A 
HETATM   19  C12   D T1390      28.769  39.863  33.386  1.00 51.21     0.006 A 
BRANCH  17  20
HETATM   20  N17   D T1390      31.705  42.298  32.995  1.00 51.21    -0.248 NA
HETATM   21  C18   D T1390      32.240  42.881  31.697  1.00 51.21     0.112 C 
HETATM   22  C19   D T1390      33.457  42.198  30.993  1.00 51.21     0.268 C 
HETATM   23  N20   D T1390      34.475  41.695  31.933  1.00 51.21     0.142 N 
HETATM   24  C21   D T1390      33.859  40.759  32.880  1.00 51.21     0.268 C 
HETATM   25  C23   D T1390      35.592  41.067  31.221  1.00 51.21     0.285 C 
HETATM   26  C22   D T1390      32.683  41.388  33.684  1.00 51.21     0.112 C 
ENDBRANCH  17  20
ENDBRANCH  12  14
ENDBRANCH   3  11
BRANCH   9  27
HETATM   27  C20   D T1390      22.466  39.121  26.265  1.00 51.21     0.216 C 
BRANCH  27  28
HETATM   28  C27   D T1390      23.075  37.732  25.956  1.00 51.21     0.014 A 
HETATM   29  C28   D T1390      24.334  37.341  26.485  1.00 51.21    -0.001 A 
HETATM   30  C31   D T1390      24.866  36.060  26.209  1.00 51.21    -0.000 A 
HETATM   31  C35   D T1390      24.146  35.141  25.397  1.00 51.21    -0.000 A 
HETATM   32  C33   D T1390      22.890  35.521  24.862  1.00 51.21    -0.000 A 
HETATM   33  C29   D T1390      22.365  36.797  25.138  1.00 51.21    -0.001 A 
ENDBRANCH  27  28
BRANCH  27  34
HETATM   34  O34   D T1390      21.683  39.629  25.145  1.00 51.21    -0.340 OA
HETATM   35  C36   D T1390      22.441  40.161  24.066  1.00 51.21     0.175 C 
ENDBRANCH  27  34
ENDBRANCH   9  27
TORSDOF 6
ENDMDL
MODEL 2
REMARK VINA RESULT:      -6.7      2.025      2.840
REMARK  6 active torsions:
REMARK  status: ('A' for Active; 'I' for Inactive)
REMARK       I    between atoms: N1_1  and  C25_25 
REMARK    1  A    between atoms: C3_3  and  N5_5 
REMARK       I    between atoms: N5_5  and  C6_6 
REMARK    2  A    between atoms: C6_6  and  C7_7 
REMARK    3  A    between atoms: N17_17  and  C24_24 
REMARK    4  A    between atoms: C25_25  and  C20_32 
REMARK    5  A    between atoms: C27_27  and  C20_32 
REMARK    6  A    between atoms: C20_32  and  O34_35 
ROOT
HETATM    1  N1    D T1390      21.867  38.330  26.630  1.00 51.21    -0.308 N 
HETATM    2  N2    D T1390      20.867  38.628  30.162  1.00 51.21    -0.149 NA
HETATM    3  C3    D T1390      22.912  39.268  30.065  1.00 51.21     0.186 A 
HETATM    4  N4    D T1390      21.857  39.070  30.903  1.00 51.21    -0.129 NA
HETATM    5  C13   D T1390      21.201  38.519  28.894  1.00 51.21     0.104 A 
HETATM    6  C14   D T1390      22.480  38.907  28.760  1.00 51.21     0.055 A 
HETATM    7  C15   D T1390      23.012  38.836  27.375  1.00 51.21     0.136 A 
HETATM    8  C16   D T1390      20.717  38.130  27.531  1.00 51.21     0.152 A 
HETATM    9  C25   D T1390      21.777  38.026  25.237  1.00 51.21     0.266 C 
HETATM   10  O26   D T1390      20.741  37.595  24.742  1.00 51.21    -0.269 OA
ENDROOT
BRANCH   3  11
HETATM   11  N5    D T1390      24.076  39.731  30.605  1.00 51.21    -0.187 NA
HETATM   12  C6    D T1390      24.879  40.767  30.165  1.00 51.21     0.281 C 
HETATM   13  O8    D T1390      24.620  41.451  29.191  1.00 51.21    -0.265 OA
BRANCH  12  14
HETATM   14  C7    D T1390      26.146  41.052  30.956  1.00 51.21     0.058 A 
HETATM   15  C9    D T1390      26.740  40.121  31.842  1.00 51.21     0.006 A 
HETATM   16  C10   D T1390      27.925  40.439  32.562  1.00 51.21     0.011 A 
HETATM   17  C24   D T1390      28.589  41.719  32.429  1.00 51.21     0.037 A 
HETATM   18  C11   D T1390      27.960  42.652  31.514  1.00 51.21     0.011 A 
HETATM   19  C12   D T1390      26.784  42.330  30.804  1.00 51.21     0.006 A 
BRANCH  17  20
HETATM   20  N17   D T1390      29.808  42.111  33.151  1.00 51.21    -0.248 NA
HETATM   21  C18   D T1390      30.742  42.991  32.335  1.00 51.21     0.112 C 
HETATM   22  C19   D T1390      32.138  42.437  31.905  1.00 51.21     0.268 C 
HETATM   23  N20   D T1390      32.785  41.605  32.936  1.00 51.21     0.142 N 
HETATM   24  C21   D T1390      31.902  40.494  33.305  1.00 51.21     0.268 C 
HETATM   25  C23   D T1390      34.089  41.114  32.482  1.00 51.21     0.285 C 
HETATM   26  C22   D T1390      30.511  40.965  33.823  1.00 51.21     0.112 C 
ENDBRANCH  17  20
ENDBRANCH  12  14
ENDBRANCH   3  11
BRANCH   9  27
HETATM   27  C20   D T1390      23.092  38.222  24.333  1.00 51.21     0.216 C 
BRANCH  27  28
HETATM   28  C27   D T1390      23.077  37.188  23.181  1.00 51.21     0.014 A 
HETATM   29  C28   D T1390      22.695  37.552  21.863  1.00 51.21    -0.001 A 
HETATM   30  C31   D T1390      22.709  36.599  20.818  1.00 51.21    -0.000 A 
HETATM   31  C35   D T1390      23.107  35.258  21.072  1.00 51.21    -0.000 A 
HETATM   32  C33   D T1390      23.488  34.882  22.384  1.00 51.21    -0.000 A 
HETATM   33  C29   D T1390      23.473  35.834  23.421  1.00 51.21    -0.001 A 
ENDBRANCH  27  28
BRANCH  27  34
HETATM   34  O34   D T1390      23.059  39.590  23.831  1.00 51.21    -0.340 OA
HETATM   35  C36   D T1390      21.801  40.247  23.937  1.00 51.21     0.175 C 
ENDBRANCH  27  34
ENDBRANCH   9  27
TORSDOF 6
ENDMDL
MODEL 3
REMARK VINA RESULT:      -6.6      3.063     10.645
REMARK  6 active torsions:
REMARK  status: ('A' for Active; 'I' for Inactive)
REMARK       I    between atoms: N1_1  and  C25_25 
REMARK    1  A    between atoms: C3_3  and  N5_5 
REMARK       I    between atoms: N5_5  and  C6_6 
REMARK    2  A    between atoms: C6_6  and  C7_7 
REMARK    3  A    between atoms: N17_17  and  C24_24 
REMARK    4  A    between atoms: C25_25  and  C20_32 
REMARK    5  A    between atoms: C27_27  and  C20_32 
REMARK    6  A    between atoms: C20_32  and  O34_35 
ROOT
HETATM    1  N1    D T1390      27.579  43.522  31.500  1.00 51.21    -0.308 N 
HETATM    2  N2    D T1390      24.757  44.879  29.560  1.00 51.21    -0.149 NA
HETATM    3  C3    D T1390      24.853  42.788  29.090  1.00 51.21     0.186 A 
HETATM    4  N4    D T1390      24.180  43.945  28.839  1.00 51.21    -0.129 NA
HETATM    5  C13   D T1390      25.766  44.414  30.266  1.00 51.21     0.104 A 
HETATM    6  C14   D T1390      25.884  43.099  30.018  1.00 51.21     0.055 A 
HETATM    7  C15   D T1390      26.990  42.425  30.742  1.00 51.21     0.136 A 
HETATM    8  C16   D T1390      26.842  44.774  31.243  1.00 51.21     0.152 A 
HETATM    9  C25   D T1390      28.709  43.494  32.373  1.00 51.21     0.266 C 
HETATM   10  O26   D T1390      29.102  44.506  32.943  1.00 51.21    -0.269 OA
ENDROOT
BRANCH   3  11
HETATM   11  N5    D T1390      24.438  41.658  28.449  1.00 51.21    -0.187 NA
HETATM   12  C6    D T1390      24.376  40.364  28.934  1.00 51.21     0.281 C 
HETATM   13  O8    D T1390      24.685  40.058  30.071  1.00 51.21    -0.265 OA
BRANCH  12  14
HETATM   14  C7    D T1390      23.890  39.284  27.979  1.00 51.21     0.058 A 
HETATM   15  C9    D T1390      24.711  38.232  27.507  1.00 51.21     0.006 A 
HETATM   16  C10   D T1390      24.208  37.248  26.613  1.00 51.21     0.011 A 
HETATM   17  C24   D T1390      22.839  37.262  26.139  1.00 51.21     0.037 A 
HETATM   18  C11   D T1390      22.021  38.349  26.640  1.00 51.21     0.011 A 
HETATM   19  C12   D T1390      22.527  39.322  27.528  1.00 51.21     0.006 A 
BRANCH  17  20
HETATM   20  N17   D T1390      22.263  36.281  25.209  1.00 51.21    -0.248 NA
HETATM   21  C18   D T1390      23.237  35.189  24.795  1.00 51.21     0.112 C 
HETATM   22  C19   D T1390      23.721  35.116  23.311  1.00 51.21     0.268 C 
HETATM   23  N20   D T1390      22.667  35.434  22.331  1.00 51.21     0.142 N 
HETATM   24  C21   D T1390      22.116  36.765  22.608  1.00 51.21     0.268 C 
HETATM   25  C23   D T1390      23.174  35.348  20.958  1.00 51.21     0.285 C 
HETATM   26  C22   D T1390      21.537  36.899  24.047  1.00 51.21     0.112 C 
ENDBRANCH  17  20
ENDBRANCH  12  14
ENDBRANCH   3  11
BRANCH   9  27
HETATM   27  C20   D T1390      29.489  42.100  32.557  1.00 51.21     0.216 C 
BRANCH  27  28
HETATM   28  C27   D T1390      30.943  42.259  32.054  1.00 51.21     0.014 A 
HETATM   29  C28   D T1390      32.036  41.680  32.751  1.00 51.21    -0.001 A 
HETATM   30  C31   D T1390      33.358  41.818  32.265  1.00 51.21    -0.000 A 
HETATM   31  C35   D T1390      33.612  42.539  31.066  1.00 51.21    -0.000 A 
HETATM   32  C33   D T1390      32.529  43.123  30.363  1.00 51.21    -0.000 A 
HETATM   33  C29   D T1390      31.216  42.984  30.850  1.00 51.21    -0.001 A 
ENDBRANCH  27  28
BRANCH  27  34
HETATM   34  O34   D T1390      29.441  41.774  33.978  1.00 51.21    -0.340 OA
HETATM   35  C36   D T1390      28.826  40.531  34.296  1.00 51.21     0.175 C 
ENDBRANCH  27  34
ENDBRANCH   9  27
TORSDOF 6
ENDMDL
MODEL 4
REMARK VINA RESULT:      -6.2      7.239      8.915
REMARK  6 active torsions:
REMARK  status: ('A' for Active; 'I' for Inactive)
REMARK       I    between atoms: N1_1  and  C25_25 
REMARK    1  A    between atoms: C3_3  and  N5_5 
REMARK       I    between atoms: N5_5  and  C6_6 
REMARK    2  A    between atoms: C6_6  and  C7_7 
REMARK    3  A    between atoms: N17_17  and  C24_24 
REMARK    4  A    between atoms: C25_25  and  C20_32 
REMARK    5  A    between atoms: C27_27  and  C20_32 
REMARK    6  A    between atoms: C20_32  and  O34_35 
ROOT
HETATM    1  N1    D T1390      20.044  38.213  24.369  1.00 51.21    -0.308 N 
HETATM    2  N2    D T1390      17.001  39.389  26.080  1.00 51.21    -0.149 NA
HETATM    3  C3    D T1390      18.403  41.010  26.176  1.00 51.21     0.186 A 
HETATM    4  N4    D T1390      17.149  40.615  26.528  1.00 51.21    -0.129 NA
HETATM    5  C13   D T1390      18.076  38.950  25.460  1.00 51.21     0.104 A 
HETATM    6  C14   D T1390      19.002  39.923  25.482  1.00 51.21     0.055 A 
HETATM    7  C15   D T1390      20.286  39.578  24.821  1.00 51.21     0.136 A 
HETATM    8  C16   D T1390      18.680  37.788  24.734  1.00 51.21     0.152 A 
HETATM    9  C25   D T1390      20.935  37.333  23.683  1.00 51.21     0.266 C 
HETATM   10  O26   D T1390      20.596  36.197  23.369  1.00 51.21    -0.269 OA
ENDROOT
BRANCH   3  11
HETATM   11  N5    D T1390      18.799  42.265  26.534  1.00 51.21    -0.187 NA
HETATM   12  C6    D T1390      19.831  42.636  27.377  1.00 51.21     0.281 C 
HETATM   13  O8    D T1390      20.573  41.839  27.922  1.00 51.21    -0.265 OA
BRANCH  12  14
HETATM   14  C7    D T1390      20.033  44.124  27.618  1.00 51.21     0.058 A 
HETATM   15  C9    D T1390      18.966  45.038  27.797  1.00 51.21     0.006 A 
HETATM   16  C10   D T1390      19.210  46.422  28.017  1.00 51.21     0.011 A 
HETATM   17  C24   D T1390      20.549  46.971  28.074  1.00 51.21     0.037 A 
HETATM   18  C11   D T1390      21.621  46.012  27.891  1.00 51.21     0.011 A 
HETATM   19  C12   D T1390      21.372  44.641  27.672  1.00 51.21     0.006 A 
BRANCH  17  20
HETATM   20  N17   D T1390      20.865  48.390  28.289  1.00 51.21    -0.248 NA
HETATM   21  C18   D T1390      21.842  48.957  27.271  1.00 51.21     0.112 C 
HETATM   22  C19   D T1390      23.267  49.397  27.737  1.00 51.21     0.268 C 
HETATM   23  N20   D T1390      23.280  50.045  29.061  1.00 51.21     0.142 N 
HETATM   24  C21   D T1390      22.685  49.149  30.059  1.00 51.21     0.268 C 
HETATM   25  C23   D T1390      24.638  50.437  29.448  1.00 51.21     0.285 C 
HETATM   26  C22   D T1390      21.229  48.725  29.708  1.00 51.21     0.112 C 
ENDBRANCH  17  20
ENDBRANCH  12  14
ENDBRANCH   3  11
BRANCH   9  27
HETATM   27  C20   D T1390      22.423  37.855  23.369  1.00 51.21     0.216 C 
BRANCH  27  28
HETATM   28  C27   D T1390      23.291  37.720  24.643  1.00 51.21     0.014 A 
HETATM   29  C28   D T1390      23.664  38.856  25.409  1.00 51.21    -0.001 A 
HETATM   30  C31   D T1390      24.439  38.711  26.583  1.00 51.21    -0.000 A 
HETATM   31  C35   D T1390      24.857  37.423  27.015  1.00 51.21    -0.000 A 
HETATM   32  C33   D T1390      24.493  36.282  26.257  1.00 51.21    -0.000 A 
HETATM   33  C29   D T1390      23.721  36.431  25.090  1.00 51.21    -0.001 A 
ENDBRANCH  27  28
BRANCH  27  34
HETATM   34  O34   D T1390      22.935  37.037  22.276  1.00 51.21    -0.340 OA
HETATM   35  C36   D T1390      22.646  37.518  20.969  1.00 51.21     0.175 C 
ENDBRANCH  27  34
ENDBRANCH   9  27
TORSDOF 6
ENDMDL
MODEL 5
REMARK VINA RESULT:      -6.2      4.762     10.215
REMARK  6 active torsions:
REMARK  status: ('A' for Active; 'I' for Inactive)
REMARK       I    between atoms: N1_1  and  C25_25 
REMARK    1  A    between atoms: C3_3  and  N5_5 
REMARK       I    between atoms: N5_5  and  C6_6 
REMARK    2  A    between atoms: C6_6  and  C7_7 
REMARK    3  A    between atoms: N17_17  and  C24_24 
REMARK    4  A    between atoms: C25_25  and  C20_32 
REMARK    5  A    between atoms: C27_27  and  C20_32 
REMARK    6  A    between atoms: C20_32  and  O34_35 
ROOT
HETATM    1  N1    D T1390      25.054  44.268  30.291  1.00 51.21    -0.308 N 
HETATM    2  N2    D T1390      26.103  41.089  31.827  1.00 51.21    -0.149 NA
HETATM    3  C3    D T1390      25.196  40.575  29.953  1.00 51.21     0.186 A 
HETATM    4  N4    D T1390      25.796  40.065  31.064  1.00 51.21    -0.129 NA
HETATM    5  C13   D T1390      25.742  42.237  31.295  1.00 51.21     0.104 A 
HETATM    6  C14   D T1390      25.162  41.988  30.109  1.00 51.21     0.055 A 
HETATM    7  C15   D T1390      24.691  43.192  29.379  1.00 51.21     0.136 A 
HETATM    8  C16   D T1390      25.720  43.722  31.489  1.00 51.21     0.152 A 
HETATM    9  C25   D T1390      24.828  45.671  30.146  1.00 51.21     0.266 C 
HETATM   10  O26   D T1390      25.185  46.469  31.007  1.00 51.21    -0.269 OA
ENDROOT
BRANCH   3  11
HETATM   11  N5    D T1390      24.779  39.697  28.995  1.00 51.21    -0.187 NA
HETATM   12  C6    D T1390      23.580  39.677  28.307  1.00 51.21     0.281 C 
HETATM   13  O8    D T1390      22.700  40.504  28.465  1.00 51.21    -0.265 OA
BRANCH  12  14
HETATM   14  C7    D T1390      23.372  38.555  27.301  1.00 51.21     0.058 A 
HETATM   15  C9    D T1390      24.378  37.620  26.955  1.00 51.21     0.006 A 
HETATM   16  C10   D T1390      24.133  36.591  26.005  1.00 51.21     0.011 A 
HETATM   17  C24   D T1390      22.852  36.438  25.344  1.00 51.21     0.037 A 
HETATM   18  C11   D T1390      21.842  37.407  25.719  1.00 51.21     0.011 A 
HETATM   19  C12   D T1390      22.092  38.427  26.663  1.00 51.21     0.006 A 
BRANCH  17  20
HETATM   20  N17   D T1390      22.540  35.403  24.348  1.00 51.21    -0.248 NA
HETATM   21  C18   D T1390      23.752  34.933  23.559  1.00 51.21     0.112 C 
HETATM   22  C19   D T1390      23.839  35.243  22.030  1.00 51.21     0.268 C 
HETATM   23  N20   D T1390      22.545  35.138  21.333  1.00 51.21     0.142 N 
HETATM   24  C21   D T1390      21.565  36.028  21.965  1.00 51.21     0.268 C 
HETATM   25  C23   D T1390      22.684  35.437  19.904  1.00 51.21     0.285 C 
HETATM   26  C22   D T1390      21.359  35.732  23.480  1.00 51.21     0.112 C 
ENDBRANCH  17  20
ENDBRANCH  12  14
ENDBRANCH   3  11
BRANCH   9  27
HETATM   27  C20   D T1390      24.049  46.181  28.835  1.00 51.21     0.216 C 
BRANCH  27  28
HETATM   28  C27   D T1390      22.530  45.956  29.026  1.00 51.21     0.014 A 
HETATM   29  C28   D T1390      21.825  46.539  30.113  1.00 51.21    -0.001 A 
HETATM   30  C31   D T1390      20.432  46.341  30.260  1.00 51.21    -0.000 A 
HETATM   31  C35   D T1390      19.714  45.554  29.318  1.00 51.21    -0.000 A 
HETATM   32  C33   D T1390      20.407  44.965  28.231  1.00 51.21    -0.000 A 
HETATM   33  C29   D T1390      21.793  45.164  28.089  1.00 51.21    -0.001 A 
ENDBRANCH  27  28
BRANCH  27  34
HETATM   34  O34   D T1390      24.370  47.594  28.676  1.00 51.21    -0.340 OA
HETATM   35  C36   D T1390      23.874  48.199  27.487  1.00 51.21     0.175 C 
ENDBRANCH  27  34
ENDBRANCH   9  27
TORSDOF 6
ENDMDL
MODEL 6
REMARK VINA RESULT:      -6.1      4.522      8.044
REMARK  6 active torsions:
REMARK  status: ('A' for Active; 'I' for Inactive)
REMARK       I    between atoms: N1_1  and  C25_25 
REMARK    1  A    between atoms: C3_3  and  N5_5 
REMARK       I    between atoms: N5_5  and  C6_6 
REMARK    2  A    between atoms: C6_6  and  C7_7 
REMARK    3  A    between atoms: N17_17  and  C24_24 
REMARK    4  A    between atoms: C25_25  and  C20_32 
REMARK    5  A    between atoms: C27_27  and  C20_32 
REMARK    6  A    between atoms: C20_32  and  O34_35 
ROOT
HETATM    1  N1    D T1390      19.786  35.301  22.411  1.00 51.21    -0.308 N 
HETATM    2  N2    D T1390      23.082  36.745  21.627  1.00 51.21    -0.149 NA
HETATM    3  C3    D T1390      22.699  37.216  23.684  1.00 51.21     0.186 A 
HETATM    4  N4    D T1390      23.596  37.356  22.670  1.00 51.21    -0.129 NA
HETATM    5  C13   D T1390      21.905  36.216  21.887  1.00 51.21     0.104 A 
HETATM    6  C14   D T1390      21.601  36.475  23.170  1.00 51.21     0.055 A 
HETATM    7  C15   D T1390      20.289  35.944  23.618  1.00 51.21     0.136 A 
HETATM    8  C16   D T1390      20.763  35.435  21.315  1.00 51.21     0.152 A 
HETATM    9  C25   D T1390      18.541  34.629  22.215  1.00 51.21     0.266 C 
HETATM   10  O26   D T1390      18.243  34.137  21.131  1.00 51.21    -0.269 OA
ENDROOT
BRANCH   3  11
HETATM   11  N5    D T1390      23.009  37.774  24.890  1.00 51.21    -0.187 NA
HETATM   12  C6    D T1390      23.710  37.216  25.944  1.00 51.21     0.281 C 
HETATM   13  O8    D T1390      24.185  36.094  25.916  1.00 51.21    -0.265 OA
BRANCH  12  14
HETATM   14  C7    D T1390      23.888  38.067  27.191  1.00 51.21     0.058 A 
HETATM   15  C9    D T1390      22.814  38.478  28.016  1.00 51.21     0.006 A 
HETATM   16  C10   D T1390      23.034  39.277  29.172  1.00 51.21     0.011 A 
HETATM   17  C24   D T1390      24.358  39.710  29.571  1.00 51.21     0.037 A 
HETATM   18  C11   D T1390      25.439  39.272  28.709  1.00 51.21     0.011 A 
HETATM   19  C12   D T1390      25.213  38.480  27.564  1.00 51.21     0.006 A 
BRANCH  17  20
HETATM   20  N17   D T1390      24.650  40.543  30.746  1.00 51.21    -0.248 NA
HETATM   21  C18   D T1390      25.964  41.301  30.644  1.00 51.21     0.112 C 
HETATM   22  C19   D T1390      27.137  40.937  31.610  1.00 51.21     0.268 C 
HETATM   23  N20   D T1390      26.694  40.611  32.978  1.00 51.21     0.142 N 
HETATM   24  C21   D T1390      25.724  39.512  32.938  1.00 51.21     0.268 C 
HETATM   25  C23   D T1390      27.832  40.279  33.840  1.00 51.21     0.285 C 
HETATM   26  C22   D T1390      24.480  39.826  32.056  1.00 51.21     0.112 C 
ENDBRANCH  17  20
ENDBRANCH  12  14
ENDBRANCH   3  11
BRANCH   9  27
HETATM   27  C20   D T1390      17.509  34.572  23.446  1.00 51.21     0.216 C 
BRANCH  27  28
HETATM   28  C27   D T1390      17.048  36.008  23.793  1.00 51.21     0.014 A 
HETATM   29  C28   D T1390      17.004  36.469  25.135  1.00 51.21    -0.001 A 
HETATM   30  C31   D T1390      16.600  37.792  25.431  1.00 51.21    -0.000 A 
HETATM   31  C35   D T1390      16.233  38.683  24.386  1.00 51.21    -0.000 A 
HETATM   32  C33   D T1390      16.271  38.234  23.043  1.00 51.21    -0.000 A 
HETATM   33  C29   D T1390      16.672  36.916  22.752  1.00 51.21    -0.001 A 
ENDBRANCH  27  28
BRANCH  27  34
HETATM   34  O34   D T1390      16.393  33.734  23.024  1.00 51.21    -0.340 OA
HETATM   35  C36   D T1390      15.384  33.524  24.005  1.00 51.21     0.175 C 
ENDBRANCH  27  34
ENDBRANCH   9  27
TORSDOF 6
ENDMDL
MODEL 7
REMARK VINA RESULT:      -6.0      5.358     10.374
REMARK  6 active torsions:
REMARK  status: ('A' for Active; 'I' for Inactive)
REMARK       I    between atoms: N1_1  and  C25_25 
REMARK    1  A    between atoms: C3_3  and  N5_5 
REMARK       I    between atoms: N5_5  and  C6_6 
REMARK    2  A    between atoms: C6_6  and  C7_7 
REMARK    3  A    between atoms: N17_17  and  C24_24 
REMARK    4  A    between atoms: C25_25  and  C20_32 
REMARK    5  A    between atoms: C27_27  and  C20_32 
REMARK    6  A    between atoms: C20_32  and  O34_35 
ROOT
HETATM    1  N1    D T1390      25.477  45.280  30.480  1.00 51.21    -0.308 N 
HETATM    2  N2    D T1390      24.991  42.128  32.322  1.00 51.21    -0.149 NA
HETATM    3  C3    D T1390      24.515  41.701  30.275  1.00 51.21     0.186 A 
HETATM    4  N4    D T1390      24.593  41.164  31.523  1.00 51.21    -0.129 NA
HETATM    5  C13   D T1390      25.176  43.263  31.683  1.00 51.21     0.104 A 
HETATM    6  C14   D T1390      24.895  43.067  30.384  1.00 51.21     0.055 A 
HETATM    7  C15   D T1390      25.052  44.266  29.524  1.00 51.21     0.136 A 
HETATM    8  C16   D T1390      25.578  44.698  31.832  1.00 51.21     0.152 A 
HETATM    9  C25   D T1390      25.761  46.660  30.246  1.00 51.21     0.266 C 
HETATM   10  O26   D T1390      26.104  47.406  31.157  1.00 51.21    -0.269 OA
ENDROOT
BRANCH   3  11
HETATM   11  N5    D T1390      24.118  40.886  29.255  1.00 51.21    -0.187 NA
HETATM   12  C6    D T1390      24.798  39.826  28.683  1.00 51.21     0.281 C 
HETATM   13  O8    D T1390      25.895  39.452  29.056  1.00 51.21    -0.265 OA
BRANCH  12  14
HETATM   14  C7    D T1390      24.118  39.102  27.531  1.00 51.21     0.058 A 
HETATM   15  C9    D T1390      23.162  39.710  26.682  1.00 51.21     0.006 A 
HETATM   16  C10   D T1390      22.553  38.987  25.620  1.00 51.21     0.011 A 
HETATM   17  C24   D T1390      22.874  37.601  25.345  1.00 51.21     0.037 A 
HETATM   18  C11   D T1390      23.857  37.006  26.228  1.00 51.21     0.011 A 
HETATM   19  C12   D T1390      24.457  37.729  27.281  1.00 51.21     0.006 A 
BRANCH  17  20
HETATM   20  N17   D T1390      22.274  36.798  24.270  1.00 51.21    -0.248 NA
HETATM   21  C18   D T1390      22.733  35.349  24.264  1.00 51.21     0.112 C 
HETATM   22  C19   D T1390      23.602  34.825  23.076  1.00 51.21     0.268 C 
HETATM   23  N20   D T1390      23.203  35.371  21.767  1.00 51.21     0.142 N 
HETATM   24  C21   D T1390      23.247  36.837  21.806  1.00 51.21     0.268 C 
HETATM   25  C23   D T1390      24.049  34.847  20.691  1.00 51.21     0.285 C 
HETATM   26  C22   D T1390      22.341  37.447  22.916  1.00 51.21     0.112 C 
ENDBRANCH  17  20
ENDBRANCH  12  14
ENDBRANCH   3  11
BRANCH   9  27
HETATM   27  C20   D T1390      25.575  47.228  28.753  1.00 51.21     0.216 C 
BRANCH  27  28
HETATM   28  C27   D T1390      24.090  47.605  28.533  1.00 51.21     0.014 A 
HETATM   29  C28   D T1390      23.115  47.397  29.543  1.00 51.21    -0.001 A 
HETATM   30  C31   D T1390      21.766  47.767  29.332  1.00 51.21    -0.000 A 
HETATM   31  C35   D T1390      21.366  48.356  28.101  1.00 51.21    -0.000 A 
HETATM   32  C33   D T1390      22.330  48.566  27.084  1.00 51.21    -0.000 A 
HETATM   33  C29   D T1390      23.671  48.196  27.298  1.00 51.21    -0.001 A 
ENDBRANCH  27  28
BRANCH  27  34
HETATM   34  O34   D T1390      26.450  48.388  28.631  1.00 51.21    -0.340 OA
HETATM   35  C36   D T1390      27.748  48.118  28.112  1.00 51.21     0.175 C 
ENDBRANCH  27  34
ENDBRANCH   9  27
TORSDOF 6
ENDMDL
MODEL 8
REMARK VINA RESULT:      -6.0      1.848      2.392
REMARK  6 active torsions:
REMARK  status: ('A' for Active; 'I' for Inactive)
REMARK       I    between atoms: N1_1  and  C25_25 
REMARK    1  A    between atoms: C3_3  and  N5_5 
REMARK       I    between atoms: N5_5  and  C6_6 
REMARK    2  A    between atoms: C6_6  and  C7_7 
REMARK    3  A    between atoms: N17_17  and  C24_24 
REMARK    4  A    between atoms: C25_25  and  C20_32 
REMARK    5  A    between atoms: C27_27  and  C20_32 
REMARK    6  A    between atoms: C20_32  and  O34_35 
ROOT
HETATM    1  N1    D T1390      21.752  38.434  27.536  1.00 51.21    -0.308 N 
HETATM    2  N2    D T1390      21.331  38.634  31.189  1.00 51.21    -0.149 NA
HETATM    3  C3    D T1390      23.272  39.443  30.768  1.00 51.21     0.186 A 
HETATM    4  N4    D T1390      22.391  39.154  31.765  1.00 51.21    -0.129 NA
HETATM    5  C13   D T1390      21.458  38.558  29.882  1.00 51.21     0.104 A 
HETATM    6  C14   D T1390      22.661  39.053  29.546  1.00 51.21     0.055 A 
HETATM    7  C15   D T1390      22.960  39.032  28.091  1.00 51.21     0.136 A 
HETATM    8  C16   D T1390      20.788  38.135  28.611  1.00 51.21     0.152 A 
HETATM    9  C25   D T1390      21.458  38.129  26.172  1.00 51.21     0.266 C 
HETATM   10  O26   D T1390      20.393  37.614  25.847  1.00 51.21    -0.269 OA
ENDROOT
BRANCH   3  11
HETATM   11  N5    D T1390      24.467  40.000  31.117  1.00 51.21    -0.187 NA
HETATM   12  C6    D T1390      25.086  41.118  30.587  1.00 51.21     0.281 C 
HETATM   13  O8    D T1390      24.600  41.798  29.700  1.00 51.21    -0.265 OA
BRANCH  12  14
HETATM   14  C7    D T1390      26.442  41.501  31.158  1.00 51.21     0.058 A 
HETATM   15  C9    D T1390      27.178  42.633  30.730  1.00 51.21     0.006 A 
HETATM   16  C10   D T1390      28.445  42.946  31.295  1.00 51.21     0.011 A 
HETATM   17  C24   D T1390      29.049  42.136  32.333  1.00 51.21     0.037 A 
HETATM   18  C11   D T1390      28.273  40.985  32.753  1.00 51.21     0.011 A 
HETATM   19  C12   D T1390      27.017  40.680  32.187  1.00 51.21     0.006 A 
BRANCH  17  20
HETATM   20  N17   D T1390      30.357  42.401  32.950  1.00 51.21    -0.248 NA
HETATM   21  C18   D T1390      30.394  43.678  33.773  1.00 51.21     0.112 C 
HETATM   22  C19   D T1390      31.277  44.875  33.292  1.00 51.21     0.268 C 
HETATM   23  N20   D T1390      32.562  44.460  32.702  1.00 51.21     0.142 N 
HETATM   24  C21   D T1390      32.322  43.540  31.585  1.00 51.21     0.268 C 
HETATM   25  C23   D T1390      33.348  45.620  32.270  1.00 51.21     0.285 C 
HETATM   26  C22   D T1390      31.514  42.275  31.998  1.00 51.21     0.112 C 
ENDBRANCH  17  20
ENDBRANCH  12  14
ENDBRANCH   3  11
BRANCH   9  27
HETATM   27  C20   D T1390      22.584  38.438  25.067  1.00 51.21     0.216 C 
BRANCH  27  28
HETATM   28  C27   D T1390      22.981  37.119  24.361  1.00 51.21     0.014 A 
HETATM   29  C28   D T1390      23.302  35.950  25.101  1.00 51.21    -0.001 A 
HETATM   30  C31   D T1390      23.642  34.747  24.438  1.00 51.21    -0.000 A 
HETATM   31  C35   D T1390      23.666  34.690  23.018  1.00 51.21    -0.000 A 
HETATM   32  C33   D T1390      23.351  35.851  22.269  1.00 51.21    -0.000 A 
HETATM   33  C29   D T1390      23.013  37.046  22.932  1.00 51.21    -0.001 A 
ENDBRANCH  27  28
BRANCH  27  34
HETATM   34  O34   D T1390      22.008  39.398  24.133  1.00 51.21    -0.340 OA
HETATM   35  C36   D T1390      21.396  40.535  24.732  1.00 51.21     0.175 C 
ENDBRANCH  27  34
ENDBRANCH   9  27
TORSDOF 6
ENDMDL
MODEL 9
REMARK VINA RESULT:      -5.9      2.125      2.894
REMARK  6 active torsions:
REMARK  status: ('A' for Active; 'I' for Inactive)
REMARK       I    between atoms: N1_1  and  C25_25 
REMARK    1  A    between atoms: C3_3  and  N5_5 
REMARK       I    between atoms: N5_5  and  C6_6 
REMARK    2  A    between atoms: C6_6  and  C7_7 
REMARK    3  A    between atoms: N17_17  and  C24_24 
REMARK    4  A    between atoms: C25_25  and  C20_32 
REMARK    5  A    between atoms: C27_27  and  C20_32 
REMARK    6  A    between atoms: C20_32  and  O34_35 
ROOT
HETATM    1  N1    D T1390      22.241  40.335  26.923  1.00 51.21    -0.308 N 
HETATM    2  N2    D T1390      22.167  43.535  28.745  1.00 51.21    -0.149 NA
HETATM    3  C3    D T1390      24.037  42.609  29.242  1.00 51.21     0.186 A 
HETATM    4  N4    D T1390      23.258  43.705  29.456  1.00 51.21    -0.129 NA
HETATM    5  C13   D T1390      22.175  42.399  28.080  1.00 51.21     0.104 A 
HETATM    6  C14   D T1390      23.327  41.762  28.347  1.00 51.21     0.055 A 
HETATM    7  C15   D T1390      23.486  40.451  27.670  1.00 51.21     0.136 A 
HETATM    8  C16   D T1390      21.402  41.528  27.139  1.00 51.21     0.152 A 
HETATM    9  C25   D T1390      21.800  39.261  26.091  1.00 51.21     0.266 C 
HETATM   10  O26   D T1390      20.713  39.296  25.523  1.00 51.21    -0.269 OA
ENDROOT
BRANCH   3  11
HETATM   11  N5    D T1390      25.241  42.549  29.880  1.00 51.21    -0.187 NA
HETATM   12  C6    D T1390      25.752  41.532  30.666  1.00 51.21     0.281 C 
HETATM   13  O8    D T1390      25.161  40.489  30.883  1.00 51.21    -0.265 OA
BRANCH  12  14
HETATM   14  C7    D T1390      27.127  41.747  31.279  1.00 51.21     0.058 A 
HETATM   15  C9    D T1390      27.638  40.967  32.344  1.00 51.21     0.006 A 
HETATM   16  C10   D T1390      28.931  41.212  32.883  1.00 51.21     0.011 A 
HETATM   17  C24   D T1390      29.793  42.260  32.378  1.00 51.21     0.037 A 
HETATM   18  C11   D T1390      29.245  43.041  31.286  1.00 51.21     0.011 A 
HETATM   19  C12   D T1390      27.961  42.793  30.756  1.00 51.21     0.006 A 
BRANCH  17  20
HETATM   20  N17   D T1390      31.133  42.569  32.898  1.00 51.21    -0.248 NA
HETATM   21  C18   D T1390      32.110  43.029  31.828  1.00 51.21     0.112 C 
HETATM   22  C19   D T1390      33.334  42.127  31.468  1.00 51.21     0.268 C 
HETATM   23  N20   D T1390      33.937  41.458  32.635  1.00 51.21     0.142 N 
HETATM   24  C21   D T1390      32.920  40.661  33.330  1.00 51.21     0.268 C 
HETATM   25  C23   D T1390      35.079  40.628  32.241  1.00 51.21     0.285 C 
HETATM   26  C22   D T1390      31.696  41.503  33.796  1.00 51.21     0.112 C 
ENDBRANCH  17  20
ENDBRANCH  12  14
ENDBRANCH   3  11
BRANCH   9  27
HETATM   27  C20   D T1390      22.751  37.973  25.949  1.00 51.21     0.216 C 
BRANCH  27  28
HETATM   28  C27   D T1390      22.780  37.520  24.470  1.00 51.21     0.014 A 
HETATM   29  C28   D T1390      22.238  36.272  24.066  1.00 51.21    -0.001 A 
HETATM   30  C31   D T1390      22.253  35.884  22.705  1.00 51.21    -0.000 A 
HETATM   31  C35   D T1390      22.813  36.741  21.719  1.00 51.21    -0.000 A 
HETATM   32  C33   D T1390      23.359  37.989  22.110  1.00 51.21    -0.000 A 
HETATM   33  C29   D T1390      23.342  38.371  23.465  1.00 51.21    -0.001 A 
ENDBRANCH  27  28
BRANCH  27  34
HETATM   34  O34   D T1390      24.073  38.370  26.418  1.00 51.21    -0.340 OA
HETATM   35  C36   D T1390      24.871  37.319  26.951  1.00 51.21     0.175 C 
ENDBRANCH  27  34
ENDBRANCH   9  27
TORSDOF 6
ENDMDL
