MODEL 1
REMARK VINA RESULT:    -8.597      0.000      0.000
REMARK INTER + INTRA:         -12.695
REMARK INTER:                 -11.613
REMARK INTRA:                  -1.082
REMARK UNBOUND:                -1.082
REMARK  6 active torsions:
REMARK  status: ('A' for Active; 'I' for Inactive)
REMARK       I    between atoms: N1_1  and  C25_25 
REMARK    1  A    between atoms: C3_3  and  N5_5 
REMARK       I    between atoms: N5_5  and  C6_6 
REMARK    2  A    between atoms: C6_6  and  C7_7 
REMARK    3  A    between atoms: N17_17  and  C24_24 
REMARK    4  A    between atoms: C25_25  and  C20_32 
REMARK    5  A    between atoms: C27_27  and  C20_32 
REMARK    6  A    between atoms: C20_32  and  O34_35 
ROOT
HETATM    1  N1    D T1390     -16.608   5.367  -0.012  1.00 51.21    -0.308 N 
HETATM    2  N2    D T1390     -12.968   5.276  -0.566  1.00 51.21    -0.149 NA
HETATM    3  C3    D T1390     -13.847   4.194  -2.196  1.00 51.21     0.186 A 
HETATM    4  N4    D T1390     -12.667   4.609  -1.657  1.00 51.21    -0.129 NA
HETATM    5  C13   D T1390     -14.266   5.326  -0.351  1.00 51.21     0.104 A 
HETATM    6  C14   D T1390     -14.883   4.663  -1.343  1.00 51.21     0.055 A 
HETATM    7  C15   D T1390     -16.363   4.623  -1.240  1.00 51.21     0.136 A 
HETATM    8  C16   D T1390     -15.334   5.832   0.568  1.00 51.21     0.152 A 
HETATM    9  C25   D T1390     -17.857   5.644   0.626  1.00 51.21     0.266 C 
HETATM   10  O26   D T1390     -17.912   6.282   1.672  1.00 51.21    -0.269 OA
ENDROOT
BRANCH   3  11
HETATM   11  N5    D T1390     -13.798   3.470  -3.350  1.00 51.21    -0.187 NA
HETATM   12  C6    D T1390     -13.737   2.097  -3.505  1.00 51.21     0.281 C 
HETATM   13  O8    D T1390     -13.739   1.314  -2.572  1.00 51.21    -0.265 OA
BRANCH  12  14
HETATM   14  C7    D T1390     -13.666   1.557  -4.925  1.00 51.21     0.058 A 
HETATM   15  C9    D T1390     -12.982   2.213  -5.977  1.00 51.21     0.006 A 
HETATM   16  C10   D T1390     -12.949   1.668  -7.290  1.00 51.21     0.011 A 
HETATM   17  C24   D T1390     -13.603   0.418  -7.624  1.00 51.21     0.037 A 
HETATM   18  C11   D T1390     -14.294  -0.232  -6.527  1.00 51.21     0.011 A 
HETATM   19  C12   D T1390     -14.323   0.316  -5.227  1.00 51.21     0.006 A 
BRANCH  17  20
HETATM   20  N17   D T1390     -13.614  -0.192  -8.961  1.00 51.21    -0.248 NA
HETATM   21  C18   D T1390     -14.977  -0.717  -9.380  1.00 51.21     0.112 C 
HETATM   22  C19   D T1390     -15.188  -2.255  -9.553  1.00 51.21     0.268 C 
HETATM   23  N20   D T1390     -14.030  -2.945 -10.150  1.00 51.21     0.142 N 
HETATM   24  C21   D T1390     -12.832  -2.696  -9.342  1.00 51.21     0.268 C 
HETATM   25  C23   D T1390     -14.281  -4.382 -10.292  1.00 51.21     0.285 C 
HETATM   26  C22   D T1390     -12.504  -1.181  -9.186  1.00 51.21     0.112 C 
ENDBRANCH  17  20
ENDBRANCH  12  14
ENDBRANCH   3  11
BRANCH   9  27
HETATM   27  C20   D T1390     -19.195   5.056  -0.043  1.00 51.21     0.216 C 
BRANCH  27  28
HETATM   28  C27   D T1390     -19.499   3.665   0.562  1.00 51.21     0.014 A 
HETATM   29  C28   D T1390     -20.021   3.526   1.875  1.00 51.21    -0.001 A 
HETATM   30  C31   D T1390     -20.315   2.247   2.404  1.00 51.21    -0.000 A 
HETATM   31  C35   D T1390     -20.092   1.079   1.626  1.00 51.21    -0.000 A 
HETATM   32  C33   D T1390     -19.569   1.204   0.315  1.00 51.21    -0.000 A 
HETATM   33  C29   D T1390     -19.278   2.479  -0.207  1.00 51.21    -0.001 A 
ENDBRANCH  27  28
BRANCH  27  34
HETATM   34  O34   D T1390     -20.261   6.011   0.237  1.00 51.21    -0.340 OA
HETATM   35  C36   D T1390     -21.194   6.207  -0.820  1.00 51.21     0.175 C 
ENDBRANCH  27  34
ENDBRANCH   9  27
TORSDOF 6
ENDMDL
MODEL 2
REMARK VINA RESULT:    -8.556      1.353      1.487
REMARK INTER + INTRA:         -12.639
REMARK INTER:                 -11.600
REMARK INTRA:                  -1.039
REMARK UNBOUND:                -1.082
REMARK  6 active torsions:
REMARK  status: ('A' for Active; 'I' for Inactive)
REMARK       I    between atoms: N1_1  and  C25_25 
REMARK    1  A    between atoms: C3_3  and  N5_5 
REMARK       I    between atoms: N5_5  and  C6_6 
REMARK    2  A    between atoms: C6_6  and  C7_7 
REMARK    3  A    between atoms: N17_17  and  C24_24 
REMARK    4  A    between atoms: C25_25  and  C20_32 
REMARK    5  A    between atoms: C27_27  and  C20_32 
REMARK    6  A    between atoms: C20_32  and  O34_35 
ROOT
HETATM    1  N1    D T1390     -17.189   6.181  -0.289  1.00 51.21    -0.308 N 
HETATM    2  N2    D T1390     -13.523   6.465  -0.501  1.00 51.21    -0.149 NA
HETATM    3  C3    D T1390     -14.096   5.024  -1.983  1.00 51.21     0.186 A 
HETATM    4  N4    D T1390     -13.034   5.669  -1.425  1.00 51.21    -0.129 NA
HETATM    5  C13   D T1390     -14.834   6.383  -0.411  1.00 51.21     0.104 A 
HETATM    6  C14   D T1390     -15.263   5.492  -1.319  1.00 51.21     0.055 A 
HETATM    7  C15   D T1390     -16.732   5.281  -1.340  1.00 51.21     0.136 A 
HETATM    8  C16   D T1390     -16.044   6.894   0.307  1.00 51.21     0.152 A 
HETATM    9  C25   D T1390     -18.522   6.398   0.178  1.00 51.21     0.266 C 
HETATM   10  O26   D T1390     -18.760   7.188   1.086  1.00 51.21    -0.269 OA
ENDROOT
BRANCH   3  11
HETATM   11  N5    D T1390     -13.843   4.131  -2.981  1.00 51.21    -0.187 NA
HETATM   12  C6    D T1390     -14.053   4.274  -4.341  1.00 51.21     0.281 C 
HETATM   13  O8    D T1390     -14.498   5.288  -4.849  1.00 51.21    -0.265 OA
BRANCH  12  14
HETATM   14  C7    D T1390     -13.699   3.093  -5.230  1.00 51.21     0.058 A 
HETATM   15  C9    D T1390     -13.114   3.228  -6.513  1.00 51.21     0.006 A 
HETATM   16  C10   D T1390     -12.805   2.090  -7.307  1.00 51.21     0.011 A 
HETATM   17  C24   D T1390     -13.063   0.738  -6.854  1.00 51.21     0.037 A 
HETATM   18  C11   D T1390     -13.660   0.630  -5.537  1.00 51.21     0.011 A 
HETATM   19  C12   D T1390     -13.965   1.764  -4.754  1.00 51.21     0.006 A 
BRANCH  17  20
HETATM   20  N17   D T1390     -12.776  -0.476  -7.630  1.00 51.21    -0.248 NA
HETATM   21  C18   D T1390     -13.189  -0.379  -9.089  1.00 51.21     0.112 C 
HETATM   22  C19   D T1390     -14.349  -1.280  -9.620  1.00 51.21     0.268 C 
HETATM   23  N20   D T1390     -14.350  -2.639  -9.048  1.00 51.21     0.142 N 
HETATM   24  C21   D T1390     -14.410  -2.562  -7.585  1.00 51.21     0.268 C 
HETATM   25  C23   D T1390     -15.455  -3.441  -9.580  1.00 51.21     0.285 C 
HETATM   26  C22   D T1390     -13.238  -1.743  -6.967  1.00 51.21     0.112 C 
ENDBRANCH  17  20
ENDBRANCH  12  14
ENDBRANCH   3  11
BRANCH   9  27
HETATM   27  C20   D T1390     -19.707   5.541  -0.489  1.00 51.21     0.216 C 
BRANCH  27  28
HETATM   28  C27   D T1390     -19.736   4.130   0.144  1.00 51.21     0.014 A 
HETATM   29  C28   D T1390     -20.115   3.933   1.498  1.00 51.21    -0.001 A 
HETATM   30  C31   D T1390     -20.159   2.633   2.054  1.00 51.21    -0.000 A 
HETATM   31  C35   D T1390     -19.821   1.501   1.263  1.00 51.21    -0.000 A 
HETATM   32  C33   D T1390     -19.439   1.685  -0.089  1.00 51.21    -0.000 A 
HETATM   33  C29   D T1390     -19.398   2.980  -0.638  1.00 51.21    -0.001 A 
ENDBRANCH  27  28
BRANCH  27  34
HETATM   34  O34   D T1390     -20.945   6.270  -0.240  1.00 51.21    -0.340 OA
HETATM   35  C36   D T1390     -21.733   6.541  -1.394  1.00 51.21     0.175 C 
ENDBRANCH  27  34
ENDBRANCH   9  27
TORSDOF 6
ENDMDL
MODEL 3
REMARK VINA RESULT:    -8.157      2.883      4.240
REMARK INTER + INTRA:         -12.101
REMARK INTER:                 -11.371
REMARK INTRA:                  -0.730
REMARK UNBOUND:                -1.082
REMARK  6 active torsions:
REMARK  status: ('A' for Active; 'I' for Inactive)
REMARK       I    between atoms: N1_1  and  C25_25 
REMARK    1  A    between atoms: C3_3  and  N5_5 
REMARK       I    between atoms: N5_5  and  C6_6 
REMARK    2  A    between atoms: C6_6  and  C7_7 
REMARK    3  A    between atoms: N17_17  and  C24_24 
REMARK    4  A    between atoms: C25_25  and  C20_32 
REMARK    5  A    between atoms: C27_27  and  C20_32 
REMARK    6  A    between atoms: C20_32  and  O34_35 
ROOT
HETATM    1  N1    D T1390     -12.937   5.291  -2.637  1.00 51.21    -0.308 N 
HETATM    2  N2    D T1390      -9.815   5.213  -4.590  1.00 51.21    -0.149 NA
HETATM    3  C3    D T1390     -11.051   3.648  -5.378  1.00 51.21     0.186 A 
HETATM    4  N4    D T1390      -9.842   4.262  -5.496  1.00 51.21    -0.129 NA
HETATM    5  C13   D T1390     -10.924   5.262  -3.883  1.00 51.21     0.104 A 
HETATM    6  C14   D T1390     -11.751   4.301  -4.328  1.00 51.21     0.055 A 
HETATM    7  C15   D T1390     -13.054   4.224  -3.621  1.00 51.21     0.136 A 
HETATM    8  C16   D T1390     -11.634   5.970  -2.770  1.00 51.21     0.152 A 
HETATM    9  C25   D T1390     -13.879   5.687  -1.638  1.00 51.21     0.266 C 
HETATM   10  O26   D T1390     -13.640   6.608  -0.863  1.00 51.21    -0.269 OA
ENDROOT
BRANCH   3  11
HETATM   11  N5    D T1390     -11.322   2.611  -6.223  1.00 51.21    -0.187 NA
HETATM   12  C6    D T1390     -12.479   2.363  -6.940  1.00 51.21     0.281 C 
HETATM   13  O8    D T1390     -13.452   3.095  -6.921  1.00 51.21    -0.265 OA
BRANCH  12  14
HETATM   14  C7    D T1390     -12.514   1.104  -7.793  1.00 51.21     0.058 A 
HETATM   15  C9    D T1390     -11.377   0.573  -8.447  1.00 51.21     0.006 A 
HETATM   16  C10   D T1390     -11.463  -0.607  -9.237  1.00 51.21     0.011 A 
HETATM   17  C24   D T1390     -12.707  -1.329  -9.414  1.00 51.21     0.037 A 
HETATM   18  C11   D T1390     -13.855  -0.762  -8.731  1.00 51.21     0.011 A 
HETATM   19  C12   D T1390     -13.761   0.409  -7.949  1.00 51.21     0.006 A 
BRANCH  17  20
HETATM   20  N17   D T1390     -12.864  -2.545 -10.223  1.00 51.21    -0.248 NA
HETATM   21  C18   D T1390     -11.923  -2.609 -11.415  1.00 51.21     0.112 C 
HETATM   22  C19   D T1390     -12.510  -2.536 -12.861  1.00 51.21     0.268 C 
HETATM   23  N20   D T1390     -13.785  -3.259 -13.018  1.00 51.21     0.142 N 
HETATM   24  C21   D T1390     -14.767  -2.747 -12.056  1.00 51.21     0.268 C 
HETATM   25  C23   D T1390     -14.289  -3.159 -14.390  1.00 51.21     0.285 C 
HETATM   26  C22   D T1390     -14.291  -2.858 -10.577  1.00 51.21     0.112 C 
ENDBRANCH  17  20
ENDBRANCH  12  14
ENDBRANCH   3  11
BRANCH   9  27
HETATM   27  C20   D T1390     -15.253   4.861  -1.524  1.00 51.21     0.216 C 
BRANCH  27  28
HETATM   28  C27   D T1390     -16.011   5.305  -0.250  1.00 51.21     0.014 A 
HETATM   29  C28   D T1390     -16.815   6.475  -0.236  1.00 51.21    -0.001 A 
HETATM   30  C31   D T1390     -17.520   6.853   0.931  1.00 51.21    -0.000 A 
HETATM   31  C35   D T1390     -17.433   6.065   2.110  1.00 51.21    -0.000 A 
HETATM   32  C33   D T1390     -16.633   4.896   2.110  1.00 51.21    -0.000 A 
HETATM   33  C29   D T1390     -15.933   4.523   0.946  1.00 51.21    -0.001 A 
ENDBRANCH  27  28
BRANCH  27  34
HETATM   34  O34   D T1390     -16.017   5.145  -2.733  1.00 51.21    -0.340 OA
HETATM   35  C36   D T1390     -16.761   4.048  -3.253  1.00 51.21     0.175 C 
ENDBRANCH  27  34
ENDBRANCH   9  27
TORSDOF 6
ENDMDL
MODEL 4
REMARK VINA RESULT:    -8.150      2.692     10.798
REMARK INTER + INTRA:         -12.091
REMARK INTER:                 -11.144
REMARK INTRA:                  -0.947
REMARK UNBOUND:                -1.082
REMARK  6 active torsions:
REMARK  status: ('A' for Active; 'I' for Inactive)
REMARK       I    between atoms: N1_1  and  C25_25 
REMARK    1  A    between atoms: C3_3  and  N5_5 
REMARK       I    between atoms: N5_5  and  C6_6 
REMARK    2  A    between atoms: C6_6  and  C7_7 
REMARK    3  A    between atoms: N17_17  and  C24_24 
REMARK    4  A    between atoms: C25_25  and  C20_32 
REMARK    5  A    between atoms: C27_27  and  C20_32 
REMARK    6  A    between atoms: C20_32  and  O34_35 
ROOT
HETATM    1  N1    D T1390     -12.477   0.950  -7.218  1.00 51.21    -0.308 N 
HETATM    2  N2    D T1390     -10.877   3.862  -5.630  1.00 51.21    -0.149 NA
HETATM    3  C3    D T1390     -12.700   3.524  -4.554  1.00 51.21     0.186 A 
HETATM    4  N4    D T1390     -11.601   4.323  -4.636  1.00 51.21    -0.129 NA
HETATM    5  C13   D T1390     -11.428   2.817  -6.210  1.00 51.21     0.104 A 
HETATM    6  C14   D T1390     -12.584   2.547  -5.580  1.00 51.21     0.055 A 
HETATM    7  C15   D T1390     -13.334   1.388  -6.124  1.00 51.21     0.136 A 
HETATM    8  C16   D T1390     -11.276   1.802  -7.301  1.00 51.21     0.152 A 
HETATM    9  C25   D T1390     -12.690  -0.122  -8.139  1.00 51.21     0.266 C 
HETATM   10  O26   D T1390     -11.879  -0.373  -9.025  1.00 51.21    -0.269 OA
ENDROOT
BRANCH   3  11
HETATM   11  N5    D T1390     -13.618   3.803  -3.585  1.00 51.21    -0.187 NA
HETATM   12  C6    D T1390     -14.126   2.964  -2.609  1.00 51.21     0.281 C 
HETATM   13  O8    D T1390     -13.779   1.804  -2.474  1.00 51.21    -0.265 OA
BRANCH  12  14
HETATM   14  C7    D T1390     -15.168   3.542  -1.665  1.00 51.21     0.058 A 
HETATM   15  C9    D T1390     -16.032   2.745  -0.874  1.00 51.21     0.006 A 
HETATM   16  C10   D T1390     -16.993   3.335  -0.008  1.00 51.21     0.011 A 
HETATM   17  C24   D T1390     -17.141   4.771   0.119  1.00 51.21     0.037 A 
HETATM   18  C11   D T1390     -16.242   5.561  -0.701  1.00 51.21     0.011 A 
HETATM   19  C12   D T1390     -15.291   4.969  -1.559  1.00 51.21     0.006 A 
BRANCH  17  20
HETATM   20  N17   D T1390     -18.119   5.441   0.986  1.00 51.21    -0.248 NA
HETATM   21  C18   D T1390     -19.533   4.904   0.839  1.00 51.21     0.112 C 
HETATM   22  C19   D T1390     -20.644   5.820   0.232  1.00 51.21     0.268 C 
HETATM   23  N20   D T1390     -20.540   7.229   0.652  1.00 51.21     0.142 N 
HETATM   24  C21   D T1390     -19.216   7.755   0.302  1.00 51.21     0.268 C 
HETATM   25  C23   D T1390     -21.604   8.042   0.056  1.00 51.21     0.285 C 
HETATM   26  C22   D T1390     -18.048   6.942   0.936  1.00 51.21     0.112 C 
ENDBRANCH  17  20
ENDBRANCH  12  14
ENDBRANCH   3  11
BRANCH   9  27
HETATM   27  C20   D T1390     -14.050  -0.969  -8.014  1.00 51.21     0.216 C 
BRANCH  27  28
HETATM   28  C27   D T1390     -14.396  -1.585  -9.391  1.00 51.21     0.014 A 
HETATM   29  C28   D T1390     -13.900  -2.857  -9.780  1.00 51.21    -0.001 A 
HETATM   30  C31   D T1390     -14.246  -3.414 -11.034  1.00 51.21    -0.000 A 
HETATM   31  C35   D T1390     -15.097  -2.706 -11.925  1.00 51.21    -0.000 A 
HETATM   32  C33   D T1390     -15.597  -1.435 -11.549  1.00 51.21    -0.000 A 
HETATM   33  C29   D T1390     -15.251  -0.884 -10.301  1.00 51.21    -0.001 A 
ENDBRANCH  27  28
BRANCH  27  34
HETATM   34  O34   D T1390     -13.814  -1.997  -7.008  1.00 51.21    -0.340 OA
HETATM   35  C36   D T1390     -14.814  -2.100  -5.999  1.00 51.21     0.175 C 
ENDBRANCH  27  34
ENDBRANCH   9  27
TORSDOF 6
ENDMDL
MODEL 5
REMARK VINA RESULT:    -7.869      3.171     11.016
REMARK INTER + INTRA:         -11.711
REMARK INTER:                 -11.007
REMARK INTRA:                  -0.704
REMARK UNBOUND:                -1.082
REMARK  6 active torsions:
REMARK  status: ('A' for Active; 'I' for Inactive)
REMARK       I    between atoms: N1_1  and  C25_25 
REMARK    1  A    between atoms: C3_3  and  N5_5 
REMARK       I    between atoms: N5_5  and  C6_6 
REMARK    2  A    between atoms: C6_6  and  C7_7 
REMARK    3  A    between atoms: N17_17  and  C24_24 
REMARK    4  A    between atoms: C25_25  and  C20_32 
REMARK    5  A    between atoms: C27_27  and  C20_32 
REMARK    6  A    between atoms: C20_32  and  O34_35 
ROOT
HETATM    1  N1    D T1390     -11.937   0.416  -8.260  1.00 51.21    -0.308 N 
HETATM    2  N2    D T1390      -9.700   3.003  -6.894  1.00 51.21    -0.149 NA
HETATM    3  C3    D T1390     -11.477   3.059  -5.695  1.00 51.21     0.186 A 
HETATM    4  N4    D T1390     -10.252   3.624  -5.877  1.00 51.21    -0.129 NA
HETATM    5  C13   D T1390     -10.481   2.070  -7.395  1.00 51.21     0.104 A 
HETATM    6  C14   D T1390     -11.621   2.049  -6.685  1.00 51.21     0.055 A 
HETATM    7  C15   D T1390     -12.617   1.044  -7.134  1.00 51.21     0.136 A 
HETATM    8  C16   D T1390     -10.602   1.014  -8.450  1.00 51.21     0.152 A 
HETATM    9  C25   D T1390     -12.414  -0.620  -9.121  1.00 51.21     0.266 C 
HETATM   10  O26   D T1390     -11.729  -1.050 -10.043  1.00 51.21    -0.269 OA
ENDROOT
BRANCH   3  11
HETATM   11  N5    D T1390     -12.256   3.540  -4.684  1.00 51.21    -0.187 NA
HETATM   12  C6    D T1390     -13.467   4.203  -4.768  1.00 51.21     0.281 C 
HETATM   13  O8    D T1390     -14.033   4.437  -5.821  1.00 51.21    -0.265 OA
BRANCH  12  14
HETATM   14  C7    D T1390     -14.108   4.652  -3.465  1.00 51.21     0.058 A 
HETATM   15  C9    D T1390     -13.367   5.057  -2.328  1.00 51.21     0.006 A 
HETATM   16  C10   D T1390     -14.016   5.466  -1.131  1.00 51.21     0.011 A 
HETATM   17  C24   D T1390     -15.459   5.495  -1.005  1.00 51.21     0.037 A 
HETATM   18  C11   D T1390     -16.192   5.077  -2.185  1.00 51.21     0.011 A 
HETATM   19  C12   D T1390     -15.541   4.672  -3.370  1.00 51.21     0.006 A 
BRANCH  17  20
HETATM   20  N17   D T1390     -16.189   5.897   0.205  1.00 51.21    -0.248 NA
HETATM   21  C18   D T1390     -17.322   4.953   0.575  1.00 51.21     0.112 C 
HETATM   22  C19   D T1390     -18.798   5.456   0.488  1.00 51.21     0.268 C 
HETATM   23  N20   D T1390     -18.971   6.856   0.916  1.00 51.21     0.142 N 
HETATM   24  C21   D T1390     -18.101   7.729   0.121  1.00 51.21     0.268 C 
HETATM   25  C23   D T1390     -20.372   7.274   0.816  1.00 51.21     0.285 C 
HETATM   26  C22   D T1390     -16.595   7.344   0.217  1.00 51.21     0.112 C 
ENDBRANCH  17  20
ENDBRANCH  12  14
ENDBRANCH   3  11
BRANCH   9  27
HETATM   27  C20   D T1390     -13.900  -1.181  -8.879  1.00 51.21     0.216 C 
BRANCH  27  28
HETATM   28  C27   D T1390     -14.570  -1.460 -10.246  1.00 51.21     0.014 A 
HETATM   29  C28   D T1390     -15.641  -0.660 -10.723  1.00 51.21    -0.001 A 
HETATM   30  C31   D T1390     -16.226  -0.915 -11.985  1.00 51.21    -0.000 A 
HETATM   31  C35   D T1390     -15.749  -1.981 -12.797  1.00 51.21    -0.000 A 
HETATM   32  C33   D T1390     -14.682  -2.788 -12.331  1.00 51.21    -0.000 A 
HETATM   33  C29   D T1390     -14.102  -2.530 -11.074  1.00 51.21    -0.001 A 
ENDBRANCH  27  28
BRANCH  27  34
HETATM   34  O34   D T1390     -13.767  -2.397  -8.085  1.00 51.21    -0.340 OA
HETATM   35  C36   D T1390     -14.449  -2.385  -6.836  1.00 51.21     0.175 C 
ENDBRANCH  27  34
ENDBRANCH   9  27
TORSDOF 6
ENDMDL
MODEL 6
REMARK VINA RESULT:    -7.774      2.863     10.985
REMARK INTER + INTRA:         -11.583
REMARK INTER:                 -10.684
REMARK INTRA:                  -0.899
REMARK UNBOUND:                -1.082
REMARK  6 active torsions:
REMARK  status: ('A' for Active; 'I' for Inactive)
REMARK       I    between atoms: N1_1  and  C25_25 
REMARK    1  A    between atoms: C3_3  and  N5_5 
REMARK       I    between atoms: N5_5  and  C6_6 
REMARK    2  A    between atoms: C6_6  and  C7_7 
REMARK    3  A    between atoms: N17_17  and  C24_24 
REMARK    4  A    between atoms: C25_25  and  C20_32 
REMARK    5  A    between atoms: C27_27  and  C20_32 
REMARK    6  A    between atoms: C20_32  and  O34_35 
ROOT
HETATM    1  N1    D T1390     -12.306  -0.098  -8.492  1.00 51.21    -0.308 N 
HETATM    2  N2    D T1390     -10.419   2.652  -6.929  1.00 51.21    -0.149 NA
HETATM    3  C3    D T1390     -12.293   2.549  -5.890  1.00 51.21     0.186 A 
HETATM    4  N4    D T1390     -11.108   3.216  -5.962  1.00 51.21    -0.129 NA
HETATM    5  C13   D T1390     -11.073   1.662  -7.499  1.00 51.21     0.104 A 
HETATM    6  C14   D T1390     -12.265   1.540  -6.892  1.00 51.21     0.055 A 
HETATM    7  C15   D T1390     -13.131   0.461  -7.429  1.00 51.21     0.136 A 
HETATM    8  C16   D T1390     -11.014   0.611  -8.563  1.00 51.21     0.152 A 
HETATM    9  C25   D T1390     -12.618  -1.160  -9.395  1.00 51.21     0.266 C 
HETATM   10  O26   D T1390     -11.822  -1.523 -10.254  1.00 51.21    -0.269 OA
ENDROOT
BRANCH   3  11
HETATM   11  N5    D T1390     -13.194   2.954  -4.950  1.00 51.21    -0.187 NA
HETATM   12  C6    D T1390     -13.693   2.246  -3.872  1.00 51.21     0.281 C 
HETATM   13  O8    D T1390     -13.352   1.108  -3.599  1.00 51.21    -0.265 OA
BRANCH  12  14
HETATM   14  C7    D T1390     -14.717   2.945  -2.991  1.00 51.21     0.058 A 
HETATM   15  C9    D T1390     -15.448   4.087  -3.399  1.00 51.21     0.006 A 
HETATM   16  C10   D T1390     -16.393   4.706  -2.536  1.00 51.21     0.011 A 
HETATM   17  C24   D T1390     -16.663   4.207  -1.202  1.00 51.21     0.037 A 
HETATM   18  C11   D T1390     -15.901   3.037  -0.812  1.00 51.21     0.011 A 
HETATM   19  C12   D T1390     -14.965   2.428  -1.674  1.00 51.21     0.006 A 
BRANCH  17  20
HETATM   20  N17   D T1390     -17.618   4.807  -0.260  1.00 51.21    -0.248 NA
HETATM   21  C18   D T1390     -17.145   4.784   1.185  1.00 51.21     0.112 C 
HETATM   22  C19   D T1390     -17.901   3.898   2.226  1.00 51.21     0.268 C 
HETATM   23  N20   D T1390     -19.362   3.882   2.036  1.00 51.21     0.142 N 
HETATM   24  C21   D T1390     -19.681   3.432   0.677  1.00 51.21     0.268 C 
HETATM   25  C23   D T1390     -20.021   3.040   3.038  1.00 51.21     0.285 C 
HETATM   26  C22   D T1390     -19.028   4.314  -0.428  1.00 51.21     0.112 C 
ENDBRANCH  17  20
ENDBRANCH  12  14
ENDBRANCH   3  11
BRANCH   9  27
HETATM   27  C20   D T1390     -14.068  -1.845  -9.285  1.00 51.21     0.216 C 
BRANCH  27  28
HETATM   28  C27   D T1390     -14.832  -1.639 -10.615  1.00 51.21     0.014 A 
HETATM   29  C28   D T1390     -14.545  -2.422 -11.763  1.00 51.21    -0.001 A 
HETATM   30  C31   D T1390     -15.269  -2.235 -12.964  1.00 51.21    -0.000 A 
HETATM   31  C35   D T1390     -16.299  -1.258 -13.038  1.00 51.21    -0.000 A 
HETATM   32  C33   D T1390     -16.594  -0.469 -11.899  1.00 51.21    -0.000 A 
HETATM   33  C29   D T1390     -15.870  -0.658 -10.706  1.00 51.21    -0.001 A 
ENDBRANCH  27  28
BRANCH  27  34
HETATM   34  O34   D T1390     -13.847  -3.258  -9.004  1.00 51.21    -0.340 OA
HETATM   35  C36   D T1390     -14.904  -3.913  -8.311  1.00 51.21     0.175 C 
ENDBRANCH  27  34
ENDBRANCH   9  27
TORSDOF 6
ENDMDL
MODEL 7
REMARK VINA RESULT:    -7.764      3.222      5.267
REMARK INTER + INTRA:         -11.570
REMARK INTER:                 -11.007
REMARK INTRA:                  -0.563
REMARK UNBOUND:                -1.082
REMARK  6 active torsions:
REMARK  status: ('A' for Active; 'I' for Inactive)
REMARK       I    between atoms: N1_1  and  C25_25 
REMARK    1  A    between atoms: C3_3  and  N5_5 
REMARK       I    between atoms: N5_5  and  C6_6 
REMARK    2  A    between atoms: C6_6  and  C7_7 
REMARK    3  A    between atoms: N17_17  and  C24_24 
REMARK    4  A    between atoms: C25_25  and  C20_32 
REMARK    5  A    between atoms: C27_27  and  C20_32 
REMARK    6  A    between atoms: C20_32  and  O34_35 
ROOT
HETATM    1  N1    D T1390     -12.513   4.290  -3.953  1.00 51.21    -0.308 N 
HETATM    2  N2    D T1390      -9.558   3.701  -6.070  1.00 51.21    -0.149 NA
HETATM    3  C3    D T1390     -11.108   2.440  -6.847  1.00 51.21     0.186 A 
HETATM    4  N4    D T1390      -9.809   2.814  -7.006  1.00 51.21    -0.129 NA
HETATM    5  C13   D T1390     -10.603   3.931  -5.303  1.00 51.21     0.104 A 
HETATM    6  C14   D T1390     -11.620   3.168  -5.738  1.00 51.21     0.055 A 
HETATM    7  C15   D T1390     -12.880   3.310  -4.967  1.00 51.21     0.136 A 
HETATM    8  C16   D T1390     -11.111   4.711  -4.131  1.00 51.21     0.152 A 
HETATM    9  C25   D T1390     -13.315   4.814  -2.892  1.00 51.21     0.266 C 
HETATM   10  O26   D T1390     -12.867   5.636  -2.099  1.00 51.21    -0.269 OA
ENDROOT
BRANCH   3  11
HETATM   11  N5    D T1390     -11.613   1.514  -7.711  1.00 51.21    -0.187 NA
HETATM   12  C6    D T1390     -12.645   0.615  -7.507  1.00 51.21     0.281 C 
HETATM   13  O8    D T1390     -13.283   0.548  -6.472  1.00 51.21    -0.265 OA
BRANCH  12  14
HETATM   14  C7    D T1390     -12.985  -0.329  -8.650  1.00 51.21     0.058 A 
HETATM   15  C9    D T1390     -12.010  -0.919  -9.492  1.00 51.21     0.006 A 
HETATM   16  C10   D T1390     -12.381  -1.793 -10.550  1.00 51.21     0.011 A 
HETATM   17  C24   D T1390     -13.763  -2.131 -10.825  1.00 51.21     0.037 A 
HETATM   18  C11   D T1390     -14.739  -1.514  -9.947  1.00 51.21     0.011 A 
HETATM   19  C12   D T1390     -14.363  -0.647  -8.899  1.00 51.21     0.006 A 
BRANCH  17  20
HETATM   20  N17   D T1390     -14.211  -3.018 -11.908  1.00 51.21    -0.248 NA
HETATM   21  C18   D T1390     -13.571  -4.396 -11.871  1.00 51.21     0.112 C 
HETATM   22  C19   D T1390     -12.593  -4.819 -13.013  1.00 51.21     0.268 C 
HETATM   23  N20   D T1390     -13.004  -4.344 -14.347  1.00 51.21     0.142 N 
HETATM   24  C21   D T1390     -13.149  -2.884 -14.332  1.00 51.21     0.268 C 
HETATM   25  C23   D T1390     -12.054  -4.768 -15.380  1.00 51.21     0.285 C 
HETATM   26  C22   D T1390     -14.171  -2.382 -13.269  1.00 51.21     0.112 C 
ENDBRANCH  17  20
ENDBRANCH  12  14
ENDBRANCH   3  11
BRANCH   9  27
HETATM   27  C20   D T1390     -14.817   4.264  -2.735  1.00 51.21     0.216 C 
BRANCH  27  28
HETATM   28  C27   D T1390     -15.366   4.668  -1.346  1.00 51.21     0.014 A 
HETATM   29  C28   D T1390     -15.119   3.878  -0.193  1.00 51.21    -0.001 A 
HETATM   30  C31   D T1390     -15.609   4.274   1.074  1.00 51.21    -0.000 A 
HETATM   31  C35   D T1390     -16.360   5.475   1.210  1.00 51.21    -0.000 A 
HETATM   32  C33   D T1390     -16.614   6.271   0.066  1.00 51.21    -0.000 A 
HETATM   33  C29   D T1390     -16.124   5.872  -1.192  1.00 51.21    -0.001 A 
ENDBRANCH  27  28
BRANCH  27  34
HETATM   34  O34   D T1390     -15.597   4.853  -3.816  1.00 51.21    -0.340 OA
HETATM   35  C36   D T1390     -16.636   4.030  -4.334  1.00 51.21     0.175 C 
ENDBRANCH  27  34
ENDBRANCH   9  27
TORSDOF 6
ENDMDL
MODEL 8
REMARK VINA RESULT:    -7.670      8.421     13.669
REMARK INTER + INTRA:         -11.443
REMARK INTER:                 -10.547
REMARK INTRA:                  -0.896
REMARK UNBOUND:                -1.082
REMARK  6 active torsions:
REMARK  status: ('A' for Active; 'I' for Inactive)
REMARK       I    between atoms: N1_1  and  C25_25 
REMARK    1  A    between atoms: C3_3  and  N5_5 
REMARK       I    between atoms: N5_5  and  C6_6 
REMARK    2  A    between atoms: C6_6  and  C7_7 
REMARK    3  A    between atoms: N17_17  and  C24_24 
REMARK    4  A    between atoms: C25_25  and  C20_32 
REMARK    5  A    between atoms: C27_27  and  C20_32 
REMARK    6  A    between atoms: C20_32  and  O34_35 
ROOT
HETATM    1  N1    D T1390     -13.304  -2.883 -11.679  1.00 51.21    -0.308 N 
HETATM    2  N2    D T1390     -12.436  -2.800 -15.257  1.00 51.21    -0.149 NA
HETATM    3  C3    D T1390     -10.623  -3.275 -14.215  1.00 51.21     0.186 A 
HETATM    4  N4    D T1390     -11.162  -3.058 -15.447  1.00 51.21    -0.129 NA
HETATM    5  C13   D T1390     -12.770  -2.829 -13.984  1.00 51.21     0.104 A 
HETATM    6  C14   D T1390     -11.672  -3.125 -13.268  1.00 51.21     0.055 A 
HETATM    7  C15   D T1390     -11.885  -3.190 -11.801  1.00 51.21     0.136 A 
HETATM    8  C16   D T1390     -13.896  -2.662 -13.012  1.00 51.21     0.152 A 
HETATM    9  C25   D T1390     -14.090  -2.771 -10.491  1.00 51.21     0.266 C 
HETATM   10  O26   D T1390     -15.284  -2.495 -10.540  1.00 51.21    -0.269 OA
ENDROOT
BRANCH   3  11
HETATM   11  N5    D T1390      -9.292  -3.567 -14.146  1.00 51.21    -0.187 NA
HETATM   12  C6    D T1390      -8.616  -4.647 -14.685  1.00 51.21     0.281 C 
HETATM   13  O8    D T1390      -9.156  -5.516 -15.347  1.00 51.21    -0.265 OA
BRANCH  12  14
HETATM   14  C7    D T1390      -7.120  -4.732 -14.428  1.00 51.21     0.058 A 
HETATM   15  C9    D T1390      -6.220  -5.417 -15.280  1.00 51.21     0.006 A 
HETATM   16  C10   D T1390      -4.828  -5.470 -14.993  1.00 51.21     0.011 A 
HETATM   17  C24   D T1390      -4.255  -4.831 -13.826  1.00 51.21     0.037 A 
HETATM   18  C11   D T1390      -5.200  -4.136 -12.972  1.00 51.21     0.011 A 
HETATM   19  C12   D T1390      -6.580  -4.088 -13.264  1.00 51.21     0.006 A 
BRANCH  17  20
HETATM   20  N17   D T1390      -2.830  -4.857 -13.469  1.00 51.21    -0.248 NA
HETATM   21  C18   D T1390      -2.555  -5.461 -12.101  1.00 51.21     0.112 C 
HETATM   22  C19   D T1390      -2.001  -4.551 -10.958  1.00 51.21     0.268 C 
HETATM   23  N20   D T1390      -1.020  -3.554 -11.422  1.00 51.21     0.142 N 
HETATM   24  C21   D T1390      -1.615  -2.723 -12.473  1.00 51.21     0.268 C 
HETATM   25  C23   D T1390      -0.532  -2.730 -10.312  1.00 51.21     0.285 C 
HETATM   26  C22   D T1390      -2.123  -3.550 -13.692  1.00 51.21     0.112 C 
ENDBRANCH  17  20
ENDBRANCH  12  14
ENDBRANCH   3  11
BRANCH   9  27
HETATM   27  C20   D T1390     -13.357  -2.974  -9.075  1.00 51.21     0.216 C 
BRANCH  27  28
HETATM   28  C27   D T1390     -13.075  -1.590  -8.444  1.00 51.21     0.014 A 
HETATM   29  C28   D T1390     -12.132  -0.694  -9.013  1.00 51.21    -0.001 A 
HETATM   30  C31   D T1390     -11.904   0.577  -8.435  1.00 51.21    -0.000 A 
HETATM   31  C35   D T1390     -12.617   0.977  -7.272  1.00 51.21    -0.000 A 
HETATM   32  C33   D T1390     -13.558   0.090  -6.693  1.00 51.21    -0.000 A 
HETATM   33  C29   D T1390     -13.783  -1.174  -7.272  1.00 51.21    -0.001 A 
ENDBRANCH  27  28
BRANCH  27  34
HETATM   34  O34   D T1390     -14.253  -3.773  -8.248  1.00 51.21    -0.340 OA
HETATM   35  C36   D T1390     -14.457  -5.110  -8.689  1.00 51.21     0.175 C 
ENDBRANCH  27  34
ENDBRANCH   9  27
TORSDOF 6
ENDMDL
MODEL 9
REMARK VINA RESULT:    -7.491      1.827      2.701
REMARK INTER + INTRA:         -11.201
REMARK INTER:                 -10.950
REMARK INTRA:                  -0.251
REMARK UNBOUND:                -1.082
REMARK  6 active torsions:
REMARK  status: ('A' for Active; 'I' for Inactive)
REMARK       I    between atoms: N1_1  and  C25_25 
REMARK    1  A    between atoms: C3_3  and  N5_5 
REMARK       I    between atoms: N5_5  and  C6_6 
REMARK    2  A    between atoms: C6_6  and  C7_7 
REMARK    3  A    between atoms: N17_17  and  C24_24 
REMARK    4  A    between atoms: C25_25  and  C20_32 
REMARK    5  A    between atoms: C27_27  and  C20_32 
REMARK    6  A    between atoms: C20_32  and  O34_35 
ROOT
HETATM    1  N1    D T1390     -16.431   4.690  -2.194  1.00 51.21    -0.308 N 
HETATM    2  N2    D T1390     -12.871   4.965  -3.099  1.00 51.21    -0.149 NA
HETATM    3  C3    D T1390     -13.628   3.265  -4.165  1.00 51.21     0.186 A 
HETATM    4  N4    D T1390     -12.515   4.015  -3.932  1.00 51.21    -0.129 NA
HETATM    5  C13   D T1390     -14.142   4.889  -2.765  1.00 51.21     0.104 A 
HETATM    6  C14   D T1390     -14.683   3.838  -3.403  1.00 51.21     0.055 A 
HETATM    7  C15   D T1390     -16.123   3.612  -3.125  1.00 51.21     0.136 A 
HETATM    8  C16   D T1390     -15.232   5.515  -1.951  1.00 51.21     0.152 A 
HETATM    9  C25   D T1390     -17.671   4.978  -1.545  1.00 51.21     0.266 C 
HETATM   10  O26   D T1390     -17.783   5.923  -0.772  1.00 51.21    -0.269 OA
ENDROOT
BRANCH   3  11
HETATM   11  N5    D T1390     -13.512   2.201  -5.010  1.00 51.21    -0.187 NA
HETATM   12  C6    D T1390     -12.768   2.099  -6.172  1.00 51.21     0.281 C 
HETATM   13  O8    D T1390     -12.062   2.995  -6.599  1.00 51.21    -0.265 OA
BRANCH  12  14
HETATM   14  C7    D T1390     -12.846   0.787  -6.937  1.00 51.21     0.058 A 
HETATM   15  C9    D T1390     -13.516  -0.362  -6.451  1.00 51.21     0.006 A 
HETATM   16  C10   D T1390     -13.558  -1.566  -7.206  1.00 51.21     0.011 A 
HETATM   17  C24   D T1390     -12.927  -1.686  -8.505  1.00 51.21     0.037 A 
HETATM   18  C11   D T1390     -12.250  -0.494  -8.978  1.00 51.21     0.011 A 
HETATM   19  C12   D T1390     -12.213   0.698  -8.223  1.00 51.21     0.006 A 
BRANCH  17  20
HETATM   20  N17   D T1390     -12.926  -2.904  -9.328  1.00 51.21    -0.248 NA
HETATM   21  C18   D T1390     -12.154  -2.758 -10.630  1.00 51.21     0.112 C 
HETATM   22  C19   D T1390     -12.925  -2.804 -11.988  1.00 51.21     0.268 C 
HETATM   23  N20   D T1390     -14.026  -3.783 -12.008  1.00 51.21     0.142 N 
HETATM   24  C21   D T1390     -14.963  -3.500 -10.915  1.00 51.21     0.268 C 
HETATM   25  C23   D T1390     -14.713  -3.786 -13.303  1.00 51.21     0.285 C 
HETATM   26  C22   D T1390     -14.287  -3.514  -9.512  1.00 51.21     0.112 C 
ENDBRANCH  17  20
ENDBRANCH  12  14
ENDBRANCH   3  11
BRANCH   9  27
HETATM   27  C20   D T1390     -18.916   3.999  -1.823  1.00 51.21     0.216 C 
BRANCH  27  28
HETATM   28  C27   D T1390     -19.355   3.342  -0.493  1.00 51.21     0.014 A 
HETATM   29  C28   D T1390     -19.327   1.933  -0.318  1.00 51.21    -0.001 A 
HETATM   30  C31   D T1390     -19.710   1.351   0.913  1.00 51.21    -0.000 A 
HETATM   31  C35   D T1390     -20.130   2.170   1.996  1.00 51.21    -0.000 A 
HETATM   32  C33   D T1390     -20.164   3.577   1.833  1.00 51.21    -0.000 A 
HETATM   33  C29   D T1390     -19.781   4.153   0.607  1.00 51.21    -0.001 A 
ENDBRANCH  27  28
BRANCH  27  34
HETATM   34  O34   D T1390     -19.977   4.819  -2.396  1.00 51.21    -0.340 OA
HETATM   35  C36   D T1390     -20.759   4.184  -3.402  1.00 51.21     0.175 C 
ENDBRANCH  27  34
ENDBRANCH   9  27
TORSDOF 6
ENDMDL
