MODEL 1
REMARK VINA RESULT:    -8.342      0.000      0.000
REMARK INTER + INTRA:         -11.932
REMARK INTER:                 -11.268
REMARK INTRA:                  -0.664
REMARK UNBOUND:                -0.664
REMARK  6 active torsions:
REMARK  status: ('A' for Active; 'I' for Inactive)
REMARK       I    between atoms: N1_1  and  C25_25 
REMARK    1  A    between atoms: C3_3  and  N5_5 
REMARK       I    between atoms: N5_5  and  C6_6 
REMARK    2  A    between atoms: C6_6  and  C7_7 
REMARK    3  A    between atoms: N17_17  and  C24_24 
REMARK    4  A    between atoms: C25_25  and  C20_32 
REMARK    5  A    between atoms: C27_27  and  C20_32 
REMARK    6  A    between atoms: C20_32  and  O34_35 
ROOT
HETATM    1  N1    D T1390      20.523  36.895  25.070  1.00 51.21    -0.308 N 
HETATM    2  N2    D T1390      17.265  35.230  25.491  1.00 51.21    -0.149 NA
HETATM    3  C3    D T1390      17.440  35.677  23.401  1.00 51.21     0.186 A 
HETATM    4  N4    D T1390      16.630  35.124  24.346  1.00 51.21    -0.129 NA
HETATM    5  C13   D T1390      18.435  35.817  25.363  1.00 51.21     0.104 A 
HETATM    6  C14   D T1390      18.612  36.127  24.068  1.00 51.21     0.055 A 
HETATM    7  C15   D T1390      19.895  36.806  23.758  1.00 51.21     0.136 A 
HETATM    8  C16   D T1390      19.656  36.282  26.094  1.00 51.21     0.152 A 
HETATM    9  C25   D T1390      21.778  37.481  25.417  1.00 51.21     0.266 C 
HETATM   10  O26   D T1390      22.181  37.491  26.576  1.00 51.21    -0.269 OA
ENDROOT
BRANCH   3  11
HETATM   11  N5    D T1390      16.996  35.688  22.111  1.00 51.21    -0.187 NA
HETATM   12  C6    D T1390      17.024  34.666  21.180  1.00 51.21     0.281 C 
HETATM   13  O8    D T1390      17.457  33.552  21.417  1.00 51.21    -0.265 OA
BRANCH  12  14
HETATM   14  C7    D T1390      16.478  34.970  19.793  1.00 51.21     0.058 A 
HETATM   15  C9    D T1390      16.324  33.991  18.782  1.00 51.21     0.006 A 
HETATM   16  C10   D T1390      15.810  34.329  17.500  1.00 51.21     0.011 A 
HETATM   17  C24   D T1390      15.415  35.680  17.158  1.00 51.21     0.037 A 
HETATM   18  C11   D T1390      15.581  36.660  18.212  1.00 51.21     0.011 A 
HETATM   19  C12   D T1390      16.092  36.318  19.482  1.00 51.21     0.006 A 
BRANCH  17  20
HETATM   20  N17   D T1390      14.887  36.093  15.850  1.00 51.21    -0.248 NA
HETATM   21  C18   D T1390      15.960  36.259  14.785  1.00 51.21     0.112 C 
HETATM   22  C19   D T1390      16.262  37.682  14.215  1.00 51.21     0.268 C 
HETATM   23  N20   D T1390      15.058  38.515  14.041  1.00 51.21     0.142 N 
HETATM   24  C21   D T1390      14.346  38.632  15.318  1.00 51.21     0.268 C 
HETATM   25  C23   D T1390      15.398  39.836  13.504  1.00 51.21     0.285 C 
HETATM   26  C22   D T1390      13.936  37.255  15.918  1.00 51.21     0.112 C 
ENDBRANCH  17  20
ENDBRANCH  12  14
ENDBRANCH   3  11
BRANCH   9  27
HETATM   27  C20   D T1390      22.638  38.175  24.249  1.00 51.21     0.216 C 
BRANCH  27  28
HETATM   28  C27   D T1390      22.957  37.126  23.158  1.00 51.21     0.014 A 
HETATM   29  C28   D T1390      23.494  35.853  23.488  1.00 51.21    -0.001 A 
HETATM   30  C31   D T1390      23.759  34.897  22.479  1.00 51.21    -0.000 A 
HETATM   31  C35   D T1390      23.489  35.197  21.115  1.00 51.21    -0.000 A 
HETATM   32  C33   D T1390      22.955  36.465  20.774  1.00 51.21    -0.000 A 
HETATM   33  C29   D T1390      22.693  37.413  21.781  1.00 51.21    -0.001 A 
ENDBRANCH  27  28
BRANCH  27  34
HETATM   34  O34   D T1390      21.833  39.272  23.726  1.00 51.21    -0.340 OA
HETATM   35  C36   D T1390      21.508  40.290  24.666  1.00 51.21     0.175 C 
ENDBRANCH  27  34
ENDBRANCH   9  27
TORSDOF 6
ENDMDL
MODEL 2
REMARK VINA RESULT:    -8.060      4.121      6.751
REMARK INTER + INTRA:         -11.550
REMARK INTER:                 -10.606
REMARK INTRA:                  -0.944
REMARK UNBOUND:                -0.664
REMARK  6 active torsions:
REMARK  status: ('A' for Active; 'I' for Inactive)
REMARK       I    between atoms: N1_1  and  C25_25 
REMARK    1  A    between atoms: C3_3  and  N5_5 
REMARK       I    between atoms: N5_5  and  C6_6 
REMARK    2  A    between atoms: C6_6  and  C7_7 
REMARK    3  A    between atoms: N17_17  and  C24_24 
REMARK    4  A    between atoms: C25_25  and  C20_32 
REMARK    5  A    between atoms: C27_27  and  C20_32 
REMARK    6  A    between atoms: C20_32  and  O34_35 
ROOT
HETATM    1  N1    D T1390      16.050  34.974  26.336  1.00 51.21    -0.308 N 
HETATM    2  N2    D T1390      19.212  34.944  24.448  1.00 51.21    -0.149 NA
HETATM    3  C3    D T1390      17.649  35.111  22.989  1.00 51.21     0.186 A 
HETATM    4  N4    D T1390      18.997  35.031  23.155  1.00 51.21    -0.129 NA
HETATM    5  C13   D T1390      18.095  34.958  25.143  1.00 51.21     0.104 A 
HETATM    6  C14   D T1390      17.066  35.063  24.285  1.00 51.21     0.055 A 
HETATM    7  C15   D T1390      15.724  35.087  24.920  1.00 51.21     0.136 A 
HETATM    8  C16   D T1390      17.511  34.903  26.521  1.00 51.21     0.152 A 
HETATM    9  C25   D T1390      15.159  34.916  27.450  1.00 51.21     0.266 C 
HETATM   10  O26   D T1390      15.578  34.812  28.599  1.00 51.21    -0.269 OA
ENDROOT
BRANCH   3  11
HETATM   11  N5    D T1390      17.169  35.210  21.716  1.00 51.21    -0.187 NA
HETATM   12  C6    D T1390      16.952  34.202  20.794  1.00 51.21     0.281 C 
HETATM   13  O8    D T1390      17.156  33.024  21.027  1.00 51.21    -0.265 OA
BRANCH  12  14
HETATM   14  C7    D T1390      16.427  34.608  19.426  1.00 51.21     0.058 A 
HETATM   15  C9    D T1390      16.155  33.685  18.388  1.00 51.21     0.006 A 
HETATM   16  C10   D T1390      15.668  34.118  17.124  1.00 51.21     0.011 A 
HETATM   17  C24   D T1390      15.420  35.515  16.829  1.00 51.21     0.037 A 
HETATM   18  C11   D T1390      15.705  36.437  17.911  1.00 51.21     0.011 A 
HETATM   19  C12   D T1390      16.189  36.000  19.162  1.00 51.21     0.006 A 
BRANCH  17  20
HETATM   20  N17   D T1390      14.927  36.025  15.542  1.00 51.21    -0.248 NA
HETATM   21  C18   D T1390      16.028  36.281  14.526  1.00 51.21     0.112 C 
HETATM   22  C19   D T1390      16.334  37.746  14.078  1.00 51.21     0.268 C 
HETATM   23  N20   D T1390      15.128  38.582  13.933  1.00 51.21     0.142 N 
HETATM   24  C21   D T1390      14.378  38.594  15.194  1.00 51.21     0.268 C 
HETATM   25  C23   D T1390      15.472  39.943  13.511  1.00 51.21     0.285 C 
HETATM   26  C22   D T1390      13.963  37.172  15.672  1.00 51.21     0.112 C 
ENDBRANCH  17  20
ENDBRANCH  12  14
ENDBRANCH   3  11
BRANCH   9  27
HETATM   27  C20   D T1390      13.578  34.945  27.159  1.00 51.21     0.216 C 
BRANCH  27  28
HETATM   28  C27   D T1390      12.844  34.125  28.246  1.00 51.21     0.014 A 
HETATM   29  C28   D T1390      12.010  34.750  29.211  1.00 51.21    -0.001 A 
HETATM   30  C31   D T1390      11.330  33.982  30.184  1.00 51.21    -0.000 A 
HETATM   31  C35   D T1390      11.470  32.567  30.211  1.00 51.21    -0.000 A 
HETATM   32  C33   D T1390      12.301  31.932  29.254  1.00 51.21    -0.000 A 
HETATM   33  C29   D T1390      12.976  32.700  28.288  1.00 51.21    -0.001 A 
ENDBRANCH  27  28
BRANCH  27  34
HETATM   34  O34   D T1390      13.172  36.346  27.173  1.00 51.21    -0.340 OA
HETATM   35  C36   D T1390      12.331  36.746  26.098  1.00 51.21     0.175 C 
ENDBRANCH  27  34
ENDBRANCH   9  27
TORSDOF 6
ENDMDL
MODEL 3
REMARK VINA RESULT:    -7.714      6.245      9.377
REMARK INTER + INTRA:         -11.083
REMARK INTER:                 -10.250
REMARK INTRA:                  -0.833
REMARK UNBOUND:                -0.664
REMARK  6 active torsions:
REMARK  status: ('A' for Active; 'I' for Inactive)
REMARK       I    between atoms: N1_1  and  C25_25 
REMARK    1  A    between atoms: C3_3  and  N5_5 
REMARK       I    between atoms: N5_5  and  C6_6 
REMARK    2  A    between atoms: C6_6  and  C7_7 
REMARK    3  A    between atoms: N17_17  and  C24_24 
REMARK    4  A    between atoms: C25_25  and  C20_32 
REMARK    5  A    between atoms: C27_27  and  C20_32 
REMARK    6  A    between atoms: C20_32  and  O34_35 
ROOT
HETATM    1  N1    D T1390      20.397  39.201  25.121  1.00 51.21    -0.308 N 
HETATM    2  N2    D T1390      16.837  40.118  24.897  1.00 51.21    -0.149 NA
HETATM    3  C3    D T1390      16.929  38.388  26.162  1.00 51.21     0.186 A 
HETATM    4  N4    D T1390      16.087  39.294  25.593  1.00 51.21    -0.129 NA
HETATM    5  C13   D T1390      18.115  39.812  24.968  1.00 51.21     0.104 A 
HETATM    6  C14   D T1390      18.247  38.728  25.751  1.00 51.21     0.055 A 
HETATM    7  C15   D T1390      19.641  38.251  25.927  1.00 51.21     0.136 A 
HETATM    8  C16   D T1390      19.491  40.195  24.517  1.00 51.21     0.152 A 
HETATM    9  C25   D T1390      21.804  39.238  24.878  1.00 51.21     0.266 C 
HETATM   10  O26   D T1390      22.308  40.100  24.164  1.00 51.21    -0.269 OA
ENDROOT
BRANCH   3  11
HETATM   11  N5    D T1390      16.381  37.414  26.944  1.00 51.21    -0.187 NA
HETATM   12  C6    D T1390      16.416  36.043  26.766  1.00 51.21     0.281 C 
HETATM   13  O8    D T1390      16.995  35.499  25.842  1.00 51.21    -0.265 OA
BRANCH  12  14
HETATM   14  C7    D T1390      15.690  35.187  27.793  1.00 51.21     0.058 A 
HETATM   15  C9    D T1390      15.640  35.498  29.173  1.00 51.21     0.006 A 
HETATM   16  C10   D T1390      14.949  34.662  30.093  1.00 51.21     0.011 A 
HETATM   17  C24   D T1390      14.261  33.458  29.676  1.00 51.21     0.037 A 
HETATM   18  C11   D T1390      14.328  33.165  28.258  1.00 51.21     0.011 A 
HETATM   19  C12   D T1390      15.015  33.999  27.350  1.00 51.21     0.006 A 
BRANCH  17  20
HETATM   20  N17   D T1390      13.539  32.549  30.578  1.00 51.21    -0.248 NA
HETATM   21  C18   D T1390      14.309  31.280  30.907  1.00 51.21     0.112 C 
HETATM   22  C19   D T1390      13.774  29.903  30.395  1.00 51.21     0.268 C 
HETATM   23  N20   D T1390      12.305  29.788  30.441  1.00 51.21     0.142 N 
HETATM   24  C21   D T1390      11.696  30.876  29.668  1.00 51.21     0.268 C 
HETATM   25  C23   D T1390      11.859  28.480  29.952  1.00 51.21     0.285 C 
HETATM   26  C22   D T1390      12.116  32.289  30.168  1.00 51.21     0.112 C 
ENDBRANCH  17  20
ENDBRANCH  12  14
ENDBRANCH   3  11
BRANCH   9  27
HETATM   27  C20   D T1390      22.717  38.086  25.531  1.00 51.21     0.216 C 
BRANCH  27  28
HETATM   28  C27   D T1390      22.997  36.995  24.471  1.00 51.21     0.014 A 
HETATM   29  C28   D T1390      23.186  37.322  23.102  1.00 51.21    -0.001 A 
HETATM   30  C31   D T1390      23.463  36.313  22.150  1.00 51.21    -0.000 A 
HETATM   31  C35   D T1390      23.556  34.952  22.550  1.00 51.21    -0.000 A 
HETATM   32  C33   D T1390      23.366  34.613  23.913  1.00 51.21    -0.000 A 
HETATM   33  C29   D T1390      23.091  35.620  24.857  1.00 51.21    -0.001 A 
ENDBRANCH  27  28
BRANCH  27  34
HETATM   34  O34   D T1390      23.945  38.728  25.984  1.00 51.21    -0.340 OA
HETATM   35  C36   D T1390      24.525  38.170  27.158  1.00 51.21     0.175 C 
ENDBRANCH  27  34
ENDBRANCH   9  27
TORSDOF 6
ENDMDL
MODEL 4
REMARK VINA RESULT:    -7.675      4.694      7.259
REMARK INTER + INTRA:         -11.031
REMARK INTER:                 -10.010
REMARK INTRA:                  -1.021
REMARK UNBOUND:                -0.664
REMARK  6 active torsions:
REMARK  status: ('A' for Active; 'I' for Inactive)
REMARK       I    between atoms: N1_1  and  C25_25 
REMARK    1  A    between atoms: C3_3  and  N5_5 
REMARK       I    between atoms: N5_5  and  C6_6 
REMARK    2  A    between atoms: C6_6  and  C7_7 
REMARK    3  A    between atoms: N17_17  and  C24_24 
REMARK    4  A    between atoms: C25_25  and  C20_32 
REMARK    5  A    between atoms: C27_27  and  C20_32 
REMARK    6  A    between atoms: C20_32  and  O34_35 
ROOT
HETATM    1  N1    D T1390      16.055  30.257  24.682  1.00 51.21    -0.308 N 
HETATM    2  N2    D T1390      17.492  33.642  24.886  1.00 51.21    -0.149 NA
HETATM    3  C3    D T1390      16.647  33.470  22.922  1.00 51.21     0.186 A 
HETATM    4  N4    D T1390      17.319  34.302  23.764  1.00 51.21    -0.129 NA
HETATM    5  C13   D T1390      16.980  32.430  24.837  1.00 51.21     0.104 A 
HETATM    6  C14   D T1390      16.429  32.254  23.624  1.00 51.21     0.055 A 
HETATM    7  C15   D T1390      15.810  30.922  23.409  1.00 51.21     0.136 A 
HETATM    8  C16   D T1390      16.769  31.161  25.603  1.00 51.21     0.152 A 
HETATM    9  C25   D T1390      15.709  28.927  25.071  1.00 51.21     0.266 C 
HETATM   10  O26   D T1390      15.988  28.492  26.184  1.00 51.21    -0.269 OA
ENDROOT
BRANCH   3  11
HETATM   11  N5    D T1390      16.345  33.934  21.675  1.00 51.21    -0.187 NA
HETATM   12  C6    D T1390      16.912  33.584  20.463  1.00 51.21     0.281 C 
HETATM   13  O8    D T1390      17.793  32.750  20.350  1.00 51.21    -0.265 OA
BRANCH  12  14
HETATM   14  C7    D T1390      16.391  34.287  19.220  1.00 51.21     0.058 A 
HETATM   15  C9    D T1390      16.246  35.692  19.119  1.00 51.21     0.006 A 
HETATM   16  C10   D T1390      15.750  36.300  17.933  1.00 51.21     0.011 A 
HETATM   17  C24   D T1390      15.371  35.525  16.769  1.00 51.21     0.037 A 
HETATM   18  C11   D T1390      15.531  34.091  16.899  1.00 51.21     0.011 A 
HETATM   19  C12   D T1390      16.024  33.494  18.080  1.00 51.21     0.006 A 
BRANCH  17  20
HETATM   20  N17   D T1390      14.844  36.093  15.520  1.00 51.21    -0.248 NA
HETATM   21  C18   D T1390      15.907  36.311  14.454  1.00 51.21     0.112 C 
HETATM   22  C19   D T1390      16.271  37.768  14.022  1.00 51.21     0.268 C 
HETATM   23  N20   D T1390      15.108  38.672  13.956  1.00 51.21     0.142 N 
HETATM   24  C21   D T1390      14.423  38.695  15.253  1.00 51.21     0.268 C 
HETATM   25  C23   D T1390      15.506  40.021  13.545  1.00 51.21     0.285 C 
HETATM   26  C22   D T1390      13.954  37.287  15.722  1.00 51.21     0.112 C 
ENDBRANCH  17  20
ENDBRANCH  12  14
ENDBRANCH   3  11
BRANCH   9  27
HETATM   27  C20   D T1390      14.979  27.987  23.990  1.00 51.21     0.216 C 
BRANCH  27  28
HETATM   28  C27   D T1390      16.004  27.553  22.915  1.00 51.21     0.014 A 
HETATM   29  C28   D T1390      15.748  27.735  21.530  1.00 51.21    -0.001 A 
HETATM   30  C31   D T1390      16.707  27.352  20.563  1.00 51.21    -0.000 A 
HETATM   31  C35   D T1390      17.945  26.779  20.964  1.00 51.21    -0.000 A 
HETATM   32  C33   D T1390      18.210  26.591  22.343  1.00 51.21    -0.000 A 
HETATM   33  C29   D T1390      17.254  26.973  23.302  1.00 51.21    -0.001 A 
ENDBRANCH  27  28
BRANCH  27  34
HETATM   34  O34   D T1390      14.442  26.843  24.718  1.00 51.21    -0.340 OA
HETATM   35  C36   D T1390      13.830  25.842  23.913  1.00 51.21     0.175 C 
ENDBRANCH  27  34
ENDBRANCH   9  27
TORSDOF 6
ENDMDL
MODEL 5
REMARK VINA RESULT:    -7.565      5.921      9.190
REMARK INTER + INTRA:         -10.883
REMARK INTER:                  -9.931
REMARK INTRA:                  -0.952
REMARK UNBOUND:                -0.664
REMARK  6 active torsions:
REMARK  status: ('A' for Active; 'I' for Inactive)
REMARK       I    between atoms: N1_1  and  C25_25 
REMARK    1  A    between atoms: C3_3  and  N5_5 
REMARK       I    between atoms: N5_5  and  C6_6 
REMARK    2  A    between atoms: C6_6  and  C7_7 
REMARK    3  A    between atoms: N17_17  and  C24_24 
REMARK    4  A    between atoms: C25_25  and  C20_32 
REMARK    5  A    between atoms: C27_27  and  C20_32 
REMARK    6  A    between atoms: C20_32  and  O34_35 
ROOT
HETATM    1  N1    D T1390      20.628  39.052  24.943  1.00 51.21    -0.308 N 
HETATM    2  N2    D T1390      17.078  39.900  24.446  1.00 51.21    -0.149 NA
HETATM    3  C3    D T1390      17.103  38.081  25.583  1.00 51.21     0.186 A 
HETATM    4  N4    D T1390      16.291  39.008  25.004  1.00 51.21    -0.129 NA
HETATM    5  C13   D T1390      18.353  39.619  24.617  1.00 51.21     0.104 A 
HETATM    6  C14   D T1390      18.443  38.482  25.327  1.00 51.21     0.055 A 
HETATM    7  C15   D T1390      19.829  38.026  25.601  1.00 51.21     0.136 A 
HETATM    8  C16   D T1390      19.752  40.067  24.329  1.00 51.21     0.152 A 
HETATM    9  C25   D T1390      22.050  39.141  24.840  1.00 51.21     0.266 C 
HETATM   10  O26   D T1390      22.591  40.066  24.243  1.00 51.21    -0.269 OA
ENDROOT
BRANCH   3  11
HETATM   11  N5    D T1390      16.514  37.038  26.236  1.00 51.21    -0.187 NA
HETATM   12  C6    D T1390      16.444  35.710  25.854  1.00 51.21     0.281 C 
HETATM   13  O8    D T1390      16.950  35.277  24.834  1.00 51.21    -0.265 OA
BRANCH  12  14
HETATM   14  C7    D T1390      15.695  34.758  26.774  1.00 51.21     0.058 A 
HETATM   15  C9    D T1390      15.359  33.430  26.417  1.00 51.21     0.006 A 
HETATM   16  C10   D T1390      14.654  32.581  27.314  1.00 51.21     0.011 A 
HETATM   17  C24   D T1390      14.246  33.020  28.633  1.00 51.21     0.037 A 
HETATM   18  C11   D T1390      14.605  34.383  28.972  1.00 51.21     0.011 A 
HETATM   19  C12   D T1390      15.304  35.220  28.077  1.00 51.21     0.006 A 
BRANCH  17  20
HETATM   20  N17   D T1390      13.508  32.195  29.601  1.00 51.21    -0.248 NA
HETATM   21  C18   D T1390      12.041  32.573  29.730  1.00 51.21     0.112 C 
HETATM   22  C19   D T1390      11.522  33.186  31.070  1.00 51.21     0.268 C 
HETATM   23  N20   D T1390      12.132  32.583  32.269  1.00 51.21     0.142 N 
HETATM   24  C21   D T1390      13.592  32.706  32.199  1.00 51.21     0.268 C 
HETATM   25  C23   D T1390      11.609  33.192  33.496  1.00 51.21     0.285 C 
HETATM   26  C22   D T1390      14.201  32.047  30.926  1.00 51.21     0.112 C 
ENDBRANCH  17  20
ENDBRANCH  12  14
ENDBRANCH   3  11
BRANCH   9  27
HETATM   27  C20   D T1390      22.931  37.965  25.492  1.00 51.21     0.216 C 
BRANCH  27  28
HETATM   28  C27   D T1390      23.186  36.869  24.429  1.00 51.21     0.014 A 
HETATM   29  C28   D T1390      23.309  35.501  24.789  1.00 51.21    -0.001 A 
HETATM   30  C31   D T1390      23.520  34.511  23.801  1.00 51.21    -0.000 A 
HETATM   31  C35   D T1390      23.613  34.871  22.429  1.00 51.21    -0.000 A 
HETATM   32  C33   D T1390      23.494  36.234  22.058  1.00 51.21    -0.000 A 
HETATM   33  C29   D T1390      23.284  37.216  23.044  1.00 51.21    -0.001 A 
ENDBRANCH  27  28
BRANCH  27  34
HETATM   34  O34   D T1390      24.175  38.573  25.949  1.00 51.21    -0.340 OA
HETATM   35  C36   D T1390      24.692  38.055  27.170  1.00 51.21     0.175 C 
ENDBRANCH  27  34
ENDBRANCH   9  27
TORSDOF 6
ENDMDL
MODEL 6
REMARK VINA RESULT:    -7.561      6.361     10.832
REMARK INTER + INTRA:         -10.876
REMARK INTER:                  -9.835
REMARK INTRA:                  -1.041
REMARK UNBOUND:                -0.664
REMARK  6 active torsions:
REMARK  status: ('A' for Active; 'I' for Inactive)
REMARK       I    between atoms: N1_1  and  C25_25 
REMARK    1  A    between atoms: C3_3  and  N5_5 
REMARK       I    between atoms: N5_5  and  C6_6 
REMARK    2  A    between atoms: C6_6  and  C7_7 
REMARK    3  A    between atoms: N17_17  and  C24_24 
REMARK    4  A    between atoms: C25_25  and  C20_32 
REMARK    5  A    between atoms: C27_27  and  C20_32 
REMARK    6  A    between atoms: C20_32  and  O34_35 
ROOT
HETATM    1  N1    D T1390      14.668  35.272  31.391  1.00 51.21    -0.308 N 
HETATM    2  N2    D T1390      17.550  37.068  32.817  1.00 51.21    -0.149 NA
HETATM    3  C3    D T1390      18.037  36.697  30.761  1.00 51.21     0.186 A 
HETATM    4  N4    D T1390      18.492  37.248  31.919  1.00 51.21    -0.129 NA
HETATM    5  C13   D T1390      16.507  36.432  32.326  1.00 51.21     0.104 A 
HETATM    6  C14   D T1390      16.745  36.167  31.031  1.00 51.21     0.055 A 
HETATM    7  C15   D T1390      15.655  35.442  30.332  1.00 51.21     0.136 A 
HETATM    8  C16   D T1390      15.151  35.883  32.643  1.00 51.21     0.152 A 
HETATM    9  C25   D T1390      13.401  34.615  31.328  1.00 51.21     0.266 C 
HETATM   10  O26   D T1390      12.670  34.541  32.310  1.00 51.21    -0.269 OA
ENDROOT
BRANCH   3  11
HETATM   11  N5    D T1390      18.847  36.757  29.665  1.00 51.21    -0.187 NA
HETATM   12  C6    D T1390      18.701  37.526  28.525  1.00 51.21     0.281 C 
HETATM   13  O8    D T1390      17.783  38.309  28.355  1.00 51.21    -0.265 OA
BRANCH  12  14
HETATM   14  C7    D T1390      19.755  37.371  27.439  1.00 51.21     0.058 A 
HETATM   15  C9    D T1390      19.656  36.435  26.382  1.00 51.21     0.006 A 
HETATM   16  C10   D T1390      20.672  36.329  25.393  1.00 51.21     0.011 A 
HETATM   17  C24   D T1390      21.854  37.166  25.407  1.00 51.21     0.037 A 
HETATM   18  C11   D T1390      21.928  38.117  26.499  1.00 51.21     0.011 A 
HETATM   19  C12   D T1390      20.916  38.216  27.478  1.00 51.21     0.006 A 
BRANCH  17  20
HETATM   20  N17   D T1390      22.942  37.098  24.421  1.00 51.21    -0.248 NA
HETATM   21  C18   D T1390      22.636  37.831  23.125  1.00 51.21     0.112 C 
HETATM   22  C19   D T1390      22.467  37.014  21.804  1.00 51.21     0.268 C 
HETATM   23  N20   D T1390      23.402  35.880  21.689  1.00 51.21     0.142 N 
HETATM   24  C21   D T1390      23.249  34.991  22.845  1.00 51.21     0.268 C 
HETATM   25  C23   D T1390      23.201  35.150  20.433  1.00 51.21     0.285 C 
HETATM   26  C22   D T1390      23.481  35.712  24.205  1.00 51.21     0.112 C 
ENDBRANCH  17  20
ENDBRANCH  12  14
ENDBRANCH   3  11
BRANCH   9  27
HETATM   27  C20   D T1390      12.972  33.929  29.939  1.00 51.21     0.216 C 
BRANCH  27  28
HETATM   28  C27   D T1390      12.781  32.409  30.158  1.00 51.21     0.014 A 
HETATM   29  C28   D T1390      11.615  31.736  29.707  1.00 51.21    -0.001 A 
HETATM   30  C31   D T1390      11.467  30.341  29.897  1.00 51.21    -0.000 A 
HETATM   31  C35   D T1390      12.488  29.592  30.544  1.00 51.21    -0.000 A 
HETATM   32  C33   D T1390      13.655  30.253  31.000  1.00 51.21    -0.000 A 
HETATM   33  C29   D T1390      13.798  31.640  30.809  1.00 51.21    -0.001 A 
ENDBRANCH  27  28
BRANCH  27  34
HETATM   34  O34   D T1390      11.735  34.573  29.514  1.00 51.21    -0.340 OA
HETATM   35  C36   D T1390      11.878  35.547  28.486  1.00 51.21     0.175 C 
ENDBRANCH  27  34
ENDBRANCH   9  27
TORSDOF 6
ENDMDL
MODEL 7
REMARK VINA RESULT:    -7.461      6.901     12.592
REMARK INTER + INTRA:         -10.742
REMARK INTER:                  -9.790
REMARK INTRA:                  -0.951
REMARK UNBOUND:                -0.664
REMARK  6 active torsions:
REMARK  status: ('A' for Active; 'I' for Inactive)
REMARK       I    between atoms: N1_1  and  C25_25 
REMARK    1  A    between atoms: C3_3  and  N5_5 
REMARK       I    between atoms: N5_5  and  C6_6 
REMARK    2  A    between atoms: C6_6  and  C7_7 
REMARK    3  A    between atoms: N17_17  and  C24_24 
REMARK    4  A    between atoms: C25_25  and  C20_32 
REMARK    5  A    between atoms: C27_27  and  C20_32 
REMARK    6  A    between atoms: C20_32  and  O34_35 
ROOT
HETATM    1  N1    D T1390      16.172  30.284  19.986  1.00 51.21    -0.308 N 
HETATM    2  N2    D T1390      17.783  32.973  21.919  1.00 51.21    -0.149 NA
HETATM    3  C3    D T1390      16.481  31.953  23.286  1.00 51.21     0.186 A 
HETATM    4  N4    D T1390      17.369  32.978  23.166  1.00 51.21    -0.129 NA
HETATM    5  C13   D T1390      17.223  32.016  21.211  1.00 51.21     0.104 A 
HETATM    6  C14   D T1390      16.389  31.331  22.011  1.00 51.21     0.055 A 
HETATM    7  C15   D T1390      15.671  30.211  21.352  1.00 51.21     0.136 A 
HETATM    8  C16   D T1390      17.147  31.383  19.856  1.00 51.21     0.152 A 
HETATM    9  C25   D T1390      15.820  29.470  18.866  1.00 51.21     0.266 C 
HETATM   10  O26   D T1390      16.321  29.652  17.760  1.00 51.21    -0.269 OA
ENDROOT
BRANCH   3  11
HETATM   11  N5    D T1390      15.904  31.750  24.505  1.00 51.21    -0.187 NA
HETATM   12  C6    D T1390      15.944  30.620  25.301  1.00 51.21     0.281 C 
HETATM   13  O8    D T1390      16.554  29.609  25.002  1.00 51.21    -0.265 OA
BRANCH  12  14
HETATM   14  C7    D T1390      15.181  30.665  26.616  1.00 51.21     0.058 A 
HETATM   15  C9    D T1390      15.083  29.564  27.500  1.00 51.21     0.006 A 
HETATM   16  C10   D T1390      14.354  29.657  28.717  1.00 51.21     0.011 A 
HETATM   17  C24   D T1390      13.678  30.873  29.121  1.00 51.21     0.037 A 
HETATM   18  C11   D T1390      13.796  31.984  28.198  1.00 51.21     0.011 A 
HETATM   19  C12   D T1390      14.521  31.884  26.991  1.00 51.21     0.006 A 
BRANCH  17  20
HETATM   20  N17   D T1390      12.901  31.030  30.359  1.00 51.21    -0.248 NA
HETATM   21  C18   D T1390      11.888  32.162  30.303  1.00 51.21     0.112 C 
HETATM   22  C19   D T1390      12.085  33.414  31.217  1.00 51.21     0.268 C 
HETATM   23  N20   D T1390      12.603  33.089  32.558  1.00 51.21     0.142 N 
HETATM   24  C21   D T1390      13.869  32.358  32.438  1.00 51.21     0.268 C 
HETATM   25  C23   D T1390      12.768  34.297  33.372  1.00 51.21     0.285 C 
HETATM   26  C22   D T1390      13.741  31.048  31.605  1.00 51.21     0.112 C 
ENDBRANCH  17  20
ENDBRANCH  12  14
ENDBRANCH   3  11
BRANCH   9  27
HETATM   27  C20   D T1390      14.710  28.327  19.079  1.00 51.21     0.216 C 
BRANCH  27  28
HETATM   28  C27   D T1390      13.708  28.364  17.900  1.00 51.21     0.014 A 
HETATM   29  C28   D T1390      12.545  29.177  17.940  1.00 51.21    -0.001 A 
HETATM   30  C31   D T1390      11.651  29.215  16.844  1.00 51.21    -0.000 A 
HETATM   31  C35   D T1390      11.906  28.437  15.682  1.00 51.21    -0.000 A 
HETATM   32  C33   D T1390      13.062  27.619  15.631  1.00 51.21    -0.000 A 
HETATM   33  C29   D T1390      13.948  27.585  16.723  1.00 51.21    -0.001 A 
ENDBRANCH  27  28
BRANCH  27  34
HETATM   34  O34   D T1390      15.420  27.056  19.145  1.00 51.21    -0.340 OA
HETATM   35  C36   D T1390      15.032  26.198  20.213  1.00 51.21     0.175 C 
ENDBRANCH  27  34
ENDBRANCH   9  27
TORSDOF 6
ENDMDL
MODEL 8
REMARK VINA RESULT:    -7.408      4.773      6.754
REMARK INTER + INTRA:         -10.670
REMARK INTER:                  -9.721
REMARK INTRA:                  -0.949
REMARK UNBOUND:                -0.664
REMARK  6 active torsions:
REMARK  status: ('A' for Active; 'I' for Inactive)
REMARK       I    between atoms: N1_1  and  C25_25 
REMARK    1  A    between atoms: C3_3  and  N5_5 
REMARK       I    between atoms: N5_5  and  C6_6 
REMARK    2  A    between atoms: C6_6  and  C7_7 
REMARK    3  A    between atoms: N17_17  and  C24_24 
REMARK    4  A    between atoms: C25_25  and  C20_32 
REMARK    5  A    between atoms: C27_27  and  C20_32 
REMARK    6  A    between atoms: C20_32  and  O34_35 
ROOT
HETATM    1  N1    D T1390      20.348  38.457  24.674  1.00 51.21    -0.308 N 
HETATM    2  N2    D T1390      16.906  38.697  23.384  1.00 51.21    -0.149 NA
HETATM    3  C3    D T1390      17.328  36.602  23.570  1.00 51.21     0.186 A 
HETATM    4  N4    D T1390      16.382  37.507  23.198  1.00 51.21    -0.129 NA
HETATM    5  C13   D T1390      18.135  38.634  23.850  1.00 51.21     0.104 A 
HETATM    6  C14   D T1390      18.467  37.340  23.993  1.00 51.21     0.055 A 
HETATM    7  C15   D T1390      19.838  37.101  24.510  1.00 51.21     0.136 A 
HETATM    8  C16   D T1390      19.319  39.440  24.287  1.00 51.21     0.152 A 
HETATM    9  C25   D T1390      21.640  38.873  25.119  1.00 51.21     0.266 C 
HETATM   10  O26   D T1390      21.936  40.060  25.202  1.00 51.21    -0.269 OA
ENDROOT
BRANCH   3  11
HETATM   11  N5    D T1390      17.018  35.277  23.468  1.00 51.21    -0.187 NA
HETATM   12  C6    D T1390      16.870  34.345  24.479  1.00 51.21     0.281 C 
HETATM   13  O8    D T1390      16.984  34.612  25.662  1.00 51.21    -0.265 OA
BRANCH  12  14
HETATM   14  C7    D T1390      16.543  32.918  24.068  1.00 51.21     0.058 A 
HETATM   15  C9    D T1390      16.331  32.520  22.726  1.00 51.21     0.006 A 
HETATM   16  C10   D T1390      16.024  31.171  22.396  1.00 51.21     0.011 A 
HETATM   17  C24   D T1390      15.915  30.135  23.403  1.00 51.21     0.037 A 
HETATM   18  C11   D T1390      16.138  30.571  24.767  1.00 51.21     0.011 A 
HETATM   19  C12   D T1390      16.442  31.911  25.088  1.00 51.21     0.006 A 
BRANCH  17  20
HETATM   20  N17   D T1390      15.592  28.728  23.127  1.00 51.21    -0.248 NA
HETATM   21  C18   D T1390      16.584  27.746  23.730  1.00 51.21     0.112 C 
HETATM   22  C19   D T1390      17.486  26.889  22.785  1.00 51.21     0.268 C 
HETATM   23  N20   D T1390      16.795  26.429  21.568  1.00 51.21     0.142 N 
HETATM   24  C21   D T1390      16.260  27.581  20.834  1.00 51.21     0.268 C 
HETATM   25  C23   D T1390      17.685  25.630  20.720  1.00 51.21     0.285 C 
HETATM   26  C22   D T1390      15.284  28.447  21.683  1.00 51.21     0.112 C 
ENDBRANCH  17  20
ENDBRANCH  12  14
ENDBRANCH   3  11
BRANCH   9  27
HETATM   27  C20   D T1390      22.722  37.737  25.472  1.00 51.21     0.216 C 
BRANCH  27  28
HETATM   28  C27   D T1390      23.081  36.958  24.183  1.00 51.21     0.014 A 
HETATM   29  C28   D T1390      23.261  35.550  24.195  1.00 51.21    -0.001 A 
HETATM   30  C31   D T1390      23.568  34.852  23.003  1.00 51.21    -0.000 A 
HETATM   31  C35   D T1390      23.701  35.552  21.773  1.00 51.21    -0.000 A 
HETATM   32  C33   D T1390      23.526  36.958  21.750  1.00 51.21    -0.000 A 
HETATM   33  C29   D T1390      23.221  37.649  22.938  1.00 51.21    -0.001 A 
ENDBRANCH  27  28
BRANCH  27  34
HETATM   34  O34   D T1390      23.882  38.419  26.033  1.00 51.21    -0.340 OA
HETATM   35  C36   D T1390      24.565  37.710  27.061  1.00 51.21     0.175 C 
ENDBRANCH  27  34
ENDBRANCH   9  27
TORSDOF 6
ENDMDL
MODEL 9
REMARK VINA RESULT:    -7.154      6.710     11.543
REMARK INTER + INTRA:         -10.327
REMARK INTER:                  -9.442
REMARK INTRA:                  -0.885
REMARK UNBOUND:                -0.664
REMARK  6 active torsions:
REMARK  status: ('A' for Active; 'I' for Inactive)
REMARK       I    between atoms: N1_1  and  C25_25 
REMARK    1  A    between atoms: C3_3  and  N5_5 
REMARK       I    between atoms: N5_5  and  C6_6 
REMARK    2  A    between atoms: C6_6  and  C7_7 
REMARK    3  A    between atoms: N17_17  and  C24_24 
REMARK    4  A    between atoms: C25_25  and  C20_32 
REMARK    5  A    between atoms: C27_27  and  C20_32 
REMARK    6  A    between atoms: C20_32  and  O34_35 
ROOT
HETATM    1  N1    D T1390      14.289  34.658  31.918  1.00 51.21    -0.308 N 
HETATM    2  N2    D T1390      16.698  36.681  33.835  1.00 51.21    -0.149 NA
HETATM    3  C3    D T1390      17.347  36.759  31.791  1.00 51.21     0.186 A 
HETATM    4  N4    D T1390      17.631  37.179  33.055  1.00 51.21    -0.129 NA
HETATM    5  C13   D T1390      15.823  35.958  33.169  1.00 51.21     0.104 A 
HETATM    6  C14   D T1390      16.171  35.964  31.871  1.00 51.21     0.055 A 
HETATM    7  C15   D T1390      15.276  35.182  30.982  1.00 51.21     0.136 A 
HETATM    8  C16   D T1390      14.584  35.125  33.286  1.00 51.21     0.152 A 
HETATM    9  C25   D T1390      13.178  33.802  31.652  1.00 51.21     0.266 C 
HETATM   10  O26   D T1390      12.428  33.430  32.549  1.00 51.21    -0.269 OA
ENDROOT
BRANCH   3  11
HETATM   11  N5    D T1390      18.183  37.151  30.787  1.00 51.21    -0.187 NA
HETATM   12  C6    D T1390      19.540  36.920  30.654  1.00 51.21     0.281 C 
HETATM   13  O8    D T1390      20.194  36.279  31.458  1.00 51.21    -0.265 OA
BRANCH  12  14
HETATM   14  C7    D T1390      20.230  37.502  29.431  1.00 51.21     0.058 A 
HETATM   15  C9    D T1390      21.485  38.156  29.479  1.00 51.21     0.006 A 
HETATM   16  C10   D T1390      22.086  38.686  28.304  1.00 51.21     0.011 A 
HETATM   17  C24   D T1390      21.459  38.586  27.003  1.00 51.21     0.037 A 
HETATM   18  C11   D T1390      20.177  37.910  26.983  1.00 51.21     0.011 A 
HETATM   19  C12   D T1390      19.585  37.387  28.152  1.00 51.21     0.006 A 
BRANCH  17  20
HETATM   20  N17   D T1390      22.024  39.121  25.756  1.00 51.21    -0.248 NA
HETATM   21  C18   D T1390      21.000  39.280  24.643  1.00 51.21     0.112 C 
HETATM   22  C19   D T1390      21.110  38.384  23.366  1.00 51.21     0.268 C 
HETATM   23  N20   D T1390      22.497  38.152  22.927  1.00 51.21     0.142 N 
HETATM   24  C21   D T1390      23.271  37.554  24.020  1.00 51.21     0.268 C 
HETATM   25  C23   D T1390      22.541  37.309  21.728  1.00 51.21     0.285 C 
HETATM   26  C22   D T1390      23.280  38.426  25.310  1.00 51.21     0.112 C 
ENDBRANCH  17  20
ENDBRANCH  12  14
ENDBRANCH   3  11
BRANCH   9  27
HETATM   27  C20   D T1390      12.957  33.295  30.142  1.00 51.21     0.216 C 
BRANCH  27  28
HETATM   28  C27   D T1390      12.820  31.753  30.137  1.00 51.21     0.014 A 
HETATM   29  C28   D T1390      13.930  30.910  30.408  1.00 51.21    -0.001 A 
HETATM   30  C31   D T1390      13.782  29.503  30.420  1.00 51.21    -0.000 A 
HETATM   31  C35   D T1390      12.515  28.911  30.162  1.00 51.21    -0.000 A 
HETATM   32  C33   D T1390      11.400  29.742  29.888  1.00 51.21    -0.000 A 
HETATM   33  C29   D T1390      11.553  31.142  29.877  1.00 51.21    -0.001 A 
ENDBRANCH  27  28
BRANCH  27  34
HETATM   34  O34   D T1390      11.749  33.946  29.651  1.00 51.21    -0.340 OA
HETATM   35  C36   D T1390      11.963  35.136  28.901  1.00 51.21     0.175 C 
ENDBRANCH  27  34
ENDBRANCH   9  27
TORSDOF 6
ENDMDL
