MODEL 1
REMARK VINA RESULT:      -8.7      0.000      0.000
REMARK  6 active torsions:
REMARK  status: ('A' for Active; 'I' for Inactive)
REMARK       I    between atoms: N1_1  and  C25_25 
REMARK    1  A    between atoms: C3_3  and  N5_5 
REMARK       I    between atoms: N5_5  and  C6_6 
REMARK    2  A    between atoms: C6_6  and  C7_7 
REMARK    3  A    between atoms: N17_17  and  C24_24 
REMARK    4  A    between atoms: C25_25  and  C20_32 
REMARK    5  A    between atoms: C27_27  and  C20_32 
REMARK    6  A    between atoms: C20_32  and  O34_35 
ROOT
HETATM    1  N1    D T1390      19.000  41.164  28.192  1.00 51.21    -0.308 N 
HETATM    2  N2    D T1390      18.806  40.817  24.531  1.00 51.21    -0.149 NA
HETATM    3  C3    D T1390      20.763  40.140  25.090  1.00 51.21     0.186 A 
HETATM    4  N4    D T1390      19.926  40.342  24.036  1.00 51.21    -0.129 NA
HETATM    5  C13   D T1390      18.851  40.944  25.840  1.00 51.21     0.104 A 
HETATM    6  C14   D T1390      20.059  40.534  26.261  1.00 51.21     0.055 A 
HETATM    7  C15   D T1390      20.271  40.621  27.728  1.00 51.21     0.136 A 
HETATM    8  C16   D T1390      18.085  41.369  27.054  1.00 51.21     0.152 A 
HETATM    9  C25   D T1390      18.610  41.497  29.525  1.00 51.21     0.266 C 
HETATM   10  O26   D T1390      17.500  41.958  29.770  1.00 51.21    -0.269 OA
ENDROOT
BRANCH   3  11
HETATM   11  N5    D T1390      22.006  39.643  24.830  1.00 51.21    -0.187 NA
HETATM   12  C6    D T1390      22.870  39.974  23.802  1.00 51.21     0.281 C 
HETATM   13  O8    D T1390      22.620  40.818  22.960  1.00 51.21    -0.265 OA
BRANCH  12  14
HETATM   14  C7    D T1390      24.198  39.235  23.742  1.00 51.21     0.058 A 
HETATM   15  C9    D T1390      25.312  39.564  24.550  1.00 51.21     0.006 A 
HETATM   16  C10   D T1390      26.534  38.842  24.452  1.00 51.21     0.011 A 
HETATM   17  C24   D T1390      26.706  37.738  23.531  1.00 51.21     0.037 A 
HETATM   18  C11   D T1390      25.549  37.422  22.717  1.00 51.21     0.011 A 
HETATM   19  C12   D T1390      24.340  38.143  22.820  1.00 51.21     0.006 A 
BRANCH  17  20
HETATM   20  N17   D T1390      27.944  36.960  23.376  1.00 51.21    -0.248 NA
HETATM   21  C18   D T1390      28.972  37.625  22.474  1.00 51.21     0.112 C 
HETATM   22  C19   D T1390      29.333  36.963  21.105  1.00 51.21     0.268 C 
HETATM   23  N20   D T1390      29.391  35.491  21.160  1.00 51.21     0.142 N 
HETATM   24  C21   D T1390      28.113  34.961  21.646  1.00 51.21     0.268 C 
HETATM   25  C23   D T1390      29.735  34.923  19.853  1.00 51.21     0.285 C 
HETATM   26  C22   D T1390      27.715  35.512  23.047  1.00 51.21     0.112 C 
ENDBRANCH  17  20
ENDBRANCH  12  14
ENDBRANCH   3  11
BRANCH   9  27
HETATM   27  C20   D T1390      19.685  41.293  30.703  1.00 51.21     0.216 C 
BRANCH  27  28
HETATM   28  C27   D T1390      20.055  42.671  31.300  1.00 51.21     0.014 A 
HETATM   29  C28   D T1390      20.848  43.603  30.579  1.00 51.21    -0.001 A 
HETATM   30  C31   D T1390      21.159  44.868  31.132  1.00 51.21    -0.000 A 
HETATM   31  C35   D T1390      20.679  45.226  32.421  1.00 51.21    -0.000 A 
HETATM   32  C33   D T1390      19.888  44.304  33.151  1.00 51.21    -0.000 A 
HETATM   33  C29   D T1390      19.582  43.047  32.598  1.00 51.21    -0.001 A 
ENDBRANCH  27  28
BRANCH  27  34
HETATM   34  O34   D T1390      19.065  40.423  31.695  1.00 51.21    -0.340 OA
HETATM   35  C36   D T1390      19.905  39.399  32.216  1.00 51.21     0.175 C 
ENDBRANCH  27  34
ENDBRANCH   9  27
TORSDOF 6
ENDMDL
MODEL 2
REMARK VINA RESULT:      -8.5      2.359     11.637
REMARK  6 active torsions:
REMARK  status: ('A' for Active; 'I' for Inactive)
REMARK       I    between atoms: N1_1  and  C25_25 
REMARK    1  A    between atoms: C3_3  and  N5_5 
REMARK       I    between atoms: N5_5  and  C6_6 
REMARK    2  A    between atoms: C6_6  and  C7_7 
REMARK    3  A    between atoms: N17_17  and  C24_24 
REMARK    4  A    between atoms: C25_25  and  C20_32 
REMARK    5  A    between atoms: C27_27  and  C20_32 
REMARK    6  A    between atoms: C20_32  and  O34_35 
ROOT
HETATM    1  N1    D T1390      23.465  38.611  22.962  1.00 51.21    -0.308 N 
HETATM    2  N2    D T1390      19.933  39.654  23.007  1.00 51.21    -0.149 NA
HETATM    3  C3    D T1390      20.686  40.012  24.984  1.00 51.21     0.186 A 
HETATM    4  N4    D T1390      19.581  40.097  24.193  1.00 51.21    -0.129 NA
HETATM    5  C13   D T1390      21.194  39.281  22.967  1.00 51.21     0.104 A 
HETATM    6  C14   D T1390      21.732  39.480  24.182  1.00 51.21     0.055 A 
HETATM    7  C15   D T1390      23.162  39.098  24.302  1.00 51.21     0.136 A 
HETATM    8  C16   D T1390      22.275  38.717  22.098  1.00 51.21     0.152 A 
HETATM    9  C25   D T1390      24.694  38.076  22.468  1.00 51.21     0.266 C 
HETATM   10  O26   D T1390      24.804  37.693  21.308  1.00 51.21    -0.269 OA
ENDROOT
BRANCH   3  11
HETATM   11  N5    D T1390      20.573  40.419  26.281  1.00 51.21    -0.187 NA
HETATM   12  C6    D T1390      19.448  40.435  27.086  1.00 51.21     0.281 C 
HETATM   13  O8    D T1390      18.354  40.045  26.719  1.00 51.21    -0.265 OA
BRANCH  12  14
HETATM   14  C7    D T1390      19.609  40.970  28.500  1.00 51.21     0.058 A 
HETATM   15  C9    D T1390      20.831  41.473  29.010  1.00 51.21     0.006 A 
HETATM   16  C10   D T1390      20.929  41.959  30.343  1.00 51.21     0.011 A 
HETATM   17  C24   D T1390      19.797  41.972  31.246  1.00 51.21     0.037 A 
HETATM   18  C11   D T1390      18.560  41.453  30.697  1.00 51.21     0.011 A 
HETATM   19  C12   D T1390      18.469  40.972  29.373  1.00 51.21     0.006 A 
BRANCH  17  20
HETATM   20  N17   D T1390      19.837  42.451  32.635  1.00 51.21    -0.248 NA
HETATM   21  C18   D T1390      19.473  41.387  33.658  1.00 51.21     0.112 C 
HETATM   22  C19   D T1390      18.158  41.539  34.489  1.00 51.21     0.268 C 
HETATM   23  N20   D T1390      17.870  42.929  34.886  1.00 51.21     0.142 N 
HETATM   24  C21   D T1390      17.807  43.784  33.696  1.00 51.21     0.268 C 
HETATM   25  C23   D T1390      16.630  43.014  35.663  1.00 51.21     0.285 C 
HETATM   26  C22   D T1390      19.114  43.752  32.850  1.00 51.21     0.112 C 
ENDBRANCH  17  20
ENDBRANCH  12  14
ENDBRANCH   3  11
BRANCH   9  27
HETATM   27  C20   D T1390      25.929  37.946  23.490  1.00 51.21     0.216 C 
BRANCH  27  28
HETATM   28  C27   D T1390      27.090  37.197  22.793  1.00 51.21     0.014 A 
HETATM   29  C28   D T1390      27.072  35.787  22.634  1.00 51.21    -0.001 A 
HETATM   30  C31   D T1390      28.133  35.121  21.975  1.00 51.21    -0.000 A 
HETATM   31  C35   D T1390      29.235  35.857  21.460  1.00 51.21    -0.000 A 
HETATM   32  C33   D T1390      29.265  37.266  21.615  1.00 51.21    -0.000 A 
HETATM   33  C29   D T1390      28.207  37.924  22.271  1.00 51.21    -0.001 A 
ENDBRANCH  27  28
BRANCH  27  34
HETATM   34  O34   D T1390      26.309  39.302  23.868  1.00 51.21    -0.340 OA
HETATM   35  C36   D T1390      26.492  39.515  25.263  1.00 51.21     0.175 C 
ENDBRANCH  27  34
ENDBRANCH   9  27
TORSDOF 6
ENDMDL
MODEL 3
REMARK VINA RESULT:      -8.5      4.046     11.577
REMARK  6 active torsions:
REMARK  status: ('A' for Active; 'I' for Inactive)
REMARK       I    between atoms: N1_1  and  C25_25 
REMARK    1  A    between atoms: C3_3  and  N5_5 
REMARK       I    between atoms: N5_5  and  C6_6 
REMARK    2  A    between atoms: C6_6  and  C7_7 
REMARK    3  A    between atoms: N17_17  and  C24_24 
REMARK    4  A    between atoms: C25_25  and  C20_32 
REMARK    5  A    between atoms: C27_27  and  C20_32 
REMARK    6  A    between atoms: C20_32  and  O34_35 
ROOT
HETATM    1  N1    D T1390      25.796  34.970  20.081  1.00 51.21    -0.308 N 
HETATM    2  N2    D T1390      22.228  34.057  20.127  1.00 51.21    -0.149 NA
HETATM    3  C3    D T1390      22.420  35.777  21.395  1.00 51.21     0.186 A 
HETATM    4  N4    D T1390      21.538  34.868  20.895  1.00 51.21    -0.129 NA
HETATM    5  C13   D T1390      23.507  34.369  20.092  1.00 51.21     0.104 A 
HETATM    6  C14   D T1390      23.700  35.447  20.870  1.00 51.21     0.055 A 
HETATM    7  C15   D T1390      25.104  35.922  20.939  1.00 51.21     0.136 A 
HETATM    8  C16   D T1390      24.841  33.995  19.524  1.00 51.21     0.152 A 
HETATM    9  C25   D T1390      27.190  34.899  19.775  1.00 51.21     0.266 C 
HETATM   10  O26   D T1390      27.638  34.029  19.035  1.00 51.21    -0.269 OA
ENDROOT
BRANCH   3  11
HETATM   11  N5    D T1390      21.938  36.739  22.233  1.00 51.21    -0.187 NA
HETATM   12  C6    D T1390      22.001  38.113  22.095  1.00 51.21     0.281 C 
HETATM   13  O8    D T1390      22.509  38.670  21.138  1.00 51.21    -0.265 OA
BRANCH  12  14
HETATM   14  C7    D T1390      21.394  38.954  23.208  1.00 51.21     0.058 A 
HETATM   15  C9    D T1390      22.095  39.319  24.383  1.00 51.21     0.006 A 
HETATM   16  C10   D T1390      21.480  40.105  25.395  1.00 51.21     0.011 A 
HETATM   17  C24   D T1390      20.115  40.578  25.284  1.00 51.21     0.037 A 
HETATM   18  C11   D T1390      19.423  40.192  24.070  1.00 51.21     0.011 A 
HETATM   19  C12   D T1390      20.039  39.411  23.070  1.00 51.21     0.006 A 
BRANCH  17  20
HETATM   20  N17   D T1390      19.421  41.384  26.298  1.00 51.21    -0.248 NA
HETATM   21  C18   D T1390      19.435  40.761  27.685  1.00 51.21     0.112 C 
HETATM   22  C19   D T1390      18.094  40.268  28.317  1.00 51.21     0.268 C 
HETATM   23  N20   D T1390      16.946  41.146  28.024  1.00 51.21     0.142 N 
HETATM   24  C21   D T1390      16.788  41.290  26.573  1.00 51.21     0.268 C 
HETATM   25  C23   D T1390      15.717  40.639  28.642  1.00 51.21     0.285 C 
HETATM   26  C22   D T1390      18.058  41.854  25.873  1.00 51.21     0.112 C 
ENDBRANCH  17  20
ENDBRANCH  12  14
ENDBRANCH   3  11
BRANCH   9  27
HETATM   27  C20   D T1390      28.172  35.968  20.465  1.00 51.21     0.216 C 
BRANCH  27  28
HETATM   28  C27   D T1390      28.189  35.732  21.994  1.00 51.21     0.014 A 
HETATM   29  C28   D T1390      28.185  34.422  22.542  1.00 51.21    -0.001 A 
HETATM   30  C31   D T1390      28.222  34.225  23.942  1.00 51.21    -0.000 A 
HETATM   31  C35   D T1390      28.266  35.339  24.824  1.00 51.21    -0.000 A 
HETATM   32  C33   D T1390      28.270  36.652  24.289  1.00 51.21    -0.000 A 
HETATM   33  C29   D T1390      28.232  36.843  22.895  1.00 51.21    -0.001 A 
ENDBRANCH  27  28
BRANCH  27  34
HETATM   34  O34   D T1390      29.491  35.773  19.873  1.00 51.21    -0.340 OA
HETATM   35  C36   D T1390      30.379  36.878  19.990  1.00 51.21     0.175 C 
ENDBRANCH  27  34
ENDBRANCH   9  27
TORSDOF 6
ENDMDL
MODEL 4
REMARK VINA RESULT:      -8.3      2.857     11.302
REMARK  6 active torsions:
REMARK  status: ('A' for Active; 'I' for Inactive)
REMARK       I    between atoms: N1_1  and  C25_25 
REMARK    1  A    between atoms: C3_3  and  N5_5 
REMARK       I    between atoms: N5_5  and  C6_6 
REMARK    2  A    between atoms: C6_6  and  C7_7 
REMARK    3  A    between atoms: N17_17  and  C24_24 
REMARK    4  A    between atoms: C25_25  and  C20_32 
REMARK    5  A    between atoms: C27_27  and  C20_32 
REMARK    6  A    between atoms: C20_32  and  O34_35 
ROOT
HETATM    1  N1    D T1390      22.857  36.882  21.746  1.00 51.21    -0.308 N 
HETATM    2  N2    D T1390      19.241  37.033  21.064  1.00 51.21    -0.149 NA
HETATM    3  C3    D T1390      19.581  38.303  22.759  1.00 51.21     0.186 A 
HETATM    4  N4    D T1390      18.626  37.816  21.920  1.00 51.21    -0.129 NA
HETATM    5  C13   D T1390      20.537  36.968  21.286  1.00 51.21     0.104 A 
HETATM    6  C14   D T1390      20.822  37.748  22.343  1.00 51.21     0.055 A 
HETATM    7  C15   D T1390      22.256  37.778  22.726  1.00 51.21     0.136 A 
HETATM    8  C16   D T1390      21.828  36.366  20.825  1.00 51.21     0.152 A 
HETATM    9  C25   D T1390      24.225  36.488  21.623  1.00 51.21     0.266 C 
HETATM   10  O26   D T1390      24.590  35.712  20.746  1.00 51.21    -0.269 OA
ENDROOT
BRANCH   3  11
HETATM   11  N5    D T1390      19.186  39.153  23.750  1.00 51.21    -0.187 NA
HETATM   12  C6    D T1390      19.740  40.365  24.119  1.00 51.21     0.281 C 
HETATM   13  O8    D T1390      20.698  40.865  23.556  1.00 51.21    -0.265 OA
BRANCH  12  14
HETATM   14  C7    D T1390      19.102  41.096  25.290  1.00 51.21     0.058 A 
HETATM   15  C9    D T1390      18.408  42.323  25.160  1.00 51.21     0.006 A 
HETATM   16  C10   D T1390      17.832  42.968  26.288  1.00 51.21     0.011 A 
HETATM   17  C24   D T1390      17.916  42.411  27.623  1.00 51.21     0.037 A 
HETATM   18  C11   D T1390      18.630  41.154  27.726  1.00 51.21     0.011 A 
HETATM   19  C12   D T1390      19.200  40.520  26.602  1.00 51.21     0.006 A 
BRANCH  17  20
HETATM   20  N17   D T1390      17.350  43.033  28.829  1.00 51.21    -0.248 NA
HETATM   21  C18   D T1390      17.861  44.442  29.084  1.00 51.21     0.112 C 
HETATM   22  C19   D T1390      18.755  44.719  30.335  1.00 51.21     0.268 C 
HETATM   23  N20   D T1390      18.344  43.964  31.532  1.00 51.21     0.142 N 
HETATM   24  C21   D T1390      18.336  42.528  31.236  1.00 51.21     0.268 C 
HETATM   25  C23   D T1390      19.214  44.263  32.674  1.00 51.21     0.285 C 
HETATM   26  C22   D T1390      17.402  42.154  30.047  1.00 51.21     0.112 C 
ENDBRANCH  17  20
ENDBRANCH  12  14
ENDBRANCH   3  11
BRANCH   9  27
HETATM   27  C20   D T1390      25.276  37.054  22.700  1.00 51.21     0.216 C 
BRANCH  27  28
HETATM   28  C27   D T1390      26.709  36.661  22.269  1.00 51.21     0.014 A 
HETATM   29  C28   D T1390      27.122  35.303  22.219  1.00 51.21    -0.001 A 
HETATM   30  C31   D T1390      28.430  34.961  21.802  1.00 51.21    -0.000 A 
HETATM   31  C35   D T1390      29.352  35.974  21.423  1.00 51.21    -0.000 A 
HETATM   32  C33   D T1390      28.952  37.333  21.470  1.00 51.21    -0.000 A 
HETATM   33  C29   D T1390      27.650  37.669  21.886  1.00 51.21    -0.001 A 
ENDBRANCH  27  28
BRANCH  27  34
HETATM   34  O34   D T1390      25.101  38.501  22.740  1.00 51.21    -0.340 OA
HETATM   35  C36   D T1390      25.221  39.092  24.029  1.00 51.21     0.175 C 
ENDBRANCH  27  34
ENDBRANCH   9  27
TORSDOF 6
ENDMDL
MODEL 5
REMARK VINA RESULT:      -8.1      3.341     11.676
REMARK  6 active torsions:
REMARK  status: ('A' for Active; 'I' for Inactive)
REMARK       I    between atoms: N1_1  and  C25_25 
REMARK    1  A    between atoms: C3_3  and  N5_5 
REMARK       I    between atoms: N5_5  and  C6_6 
REMARK    2  A    between atoms: C6_6  and  C7_7 
REMARK    3  A    between atoms: N17_17  and  C24_24 
REMARK    4  A    between atoms: C25_25  and  C20_32 
REMARK    5  A    between atoms: C27_27  and  C20_32 
REMARK    6  A    between atoms: C20_32  and  O34_35 
ROOT
HETATM    1  N1    D T1390      22.854  36.895  21.717  1.00 51.21    -0.308 N 
HETATM    2  N2    D T1390      19.232  37.052  21.064  1.00 51.21    -0.149 NA
HETATM    3  C3    D T1390      19.583  38.293  22.778  1.00 51.21     0.186 A 
HETATM    4  N4    D T1390      18.622  37.820  21.938  1.00 51.21    -0.129 NA
HETATM    5  C13   D T1390      20.529  36.986  21.275  1.00 51.21     0.104 A 
HETATM    6  C14   D T1390      20.822  37.747  22.343  1.00 51.21     0.055 A 
HETATM    7  C15   D T1390      22.258  37.772  22.717  1.00 51.21     0.136 A 
HETATM    8  C16   D T1390      21.818  36.394  20.794  1.00 51.21     0.152 A 
HETATM    9  C25   D T1390      24.220  36.505  21.577  1.00 51.21     0.266 C 
HETATM   10  O26   D T1390      24.581  35.745  20.684  1.00 51.21    -0.269 OA
ENDROOT
BRANCH   3  11
HETATM   11  N5    D T1390      19.194  39.125  23.786  1.00 51.21    -0.187 NA
HETATM   12  C6    D T1390      19.747  40.333  24.171  1.00 51.21     0.281 C 
HETATM   13  O8    D T1390      20.698  40.846  23.608  1.00 51.21    -0.265 OA
BRANCH  12  14
HETATM   14  C7    D T1390      19.117  41.042  25.359  1.00 51.21     0.058 A 
HETATM   15  C9    D T1390      19.170  40.545  26.684  1.00 51.21     0.006 A 
HETATM   16  C10   D T1390      18.561  41.246  27.761  1.00 51.21     0.011 A 
HETATM   17  C24   D T1390      17.860  42.499  27.568  1.00 51.21     0.037 A 
HETATM   18  C11   D T1390      17.823  42.985  26.203  1.00 51.21     0.011 A 
HETATM   19  C12   D T1390      18.429  42.284  25.139  1.00 51.21     0.006 A 
BRANCH  17  20
HETATM   20  N17   D T1390      17.203  43.266  28.636  1.00 51.21    -0.248 NA
HETATM   21  C18   D T1390      15.690  43.322  28.502  1.00 51.21     0.112 C 
HETATM   22  C19   D T1390      14.997  44.688  28.195  1.00 51.21     0.268 C 
HETATM   23  N20   D T1390      15.618  45.833  28.887  1.00 51.21     0.142 N 
HETATM   24  C21   D T1390      17.041  45.909  28.542  1.00 51.21     0.268 C 
HETATM   25  C23   D T1390      14.929  47.086  28.565  1.00 51.21     0.285 C 
HETATM   26  C22   D T1390      17.825  44.610  28.891  1.00 51.21     0.112 C 
ENDBRANCH  17  20
ENDBRANCH  12  14
ENDBRANCH   3  11
BRANCH   9  27
HETATM   27  C20   D T1390      25.279  37.054  22.656  1.00 51.21     0.216 C 
BRANCH  27  28
HETATM   28  C27   D T1390      26.707  36.643  22.224  1.00 51.21     0.014 A 
HETATM   29  C28   D T1390      27.068  35.280  22.062  1.00 51.21    -0.001 A 
HETATM   30  C31   D T1390      28.373  34.923  21.645  1.00 51.21    -0.000 A 
HETATM   31  C35   D T1390      29.343  35.928  21.381  1.00 51.21    -0.000 A 
HETATM   32  C33   D T1390      28.994  37.292  21.542  1.00 51.21    -0.000 A 
HETATM   33  C29   D T1390      27.696  37.642  21.957  1.00 51.21    -0.001 A 
ENDBRANCH  27  28
BRANCH  27  34
HETATM   34  O34   D T1390      25.123  38.502  22.701  1.00 51.21    -0.340 OA
HETATM   35  C36   D T1390      25.262  39.089  23.990  1.00 51.21     0.175 C 
ENDBRANCH  27  34
ENDBRANCH   9  27
TORSDOF 6
ENDMDL
MODEL 6
REMARK VINA RESULT:      -8.0      3.949     12.125
REMARK  6 active torsions:
REMARK  status: ('A' for Active; 'I' for Inactive)
REMARK       I    between atoms: N1_1  and  C25_25 
REMARK    1  A    between atoms: C3_3  and  N5_5 
REMARK       I    between atoms: N5_5  and  C6_6 
REMARK    2  A    between atoms: C6_6  and  C7_7 
REMARK    3  A    between atoms: N17_17  and  C24_24 
REMARK    4  A    between atoms: C25_25  and  C20_32 
REMARK    5  A    between atoms: C27_27  and  C20_32 
REMARK    6  A    between atoms: C20_32  and  O34_35 
ROOT
HETATM    1  N1    D T1390      25.232  34.944  20.252  1.00 51.21    -0.308 N 
HETATM    2  N2    D T1390      21.591  34.646  19.785  1.00 51.21    -0.149 NA
HETATM    3  C3    D T1390      21.877  36.131  21.307  1.00 51.21     0.186 A 
HETATM    4  N4    D T1390      20.938  35.456  20.588  1.00 51.21    -0.129 NA
HETATM    5  C13   D T1390      22.895  34.740  19.932  1.00 51.21     0.104 A 
HETATM    6  C14   D T1390      23.148  35.661  20.877  1.00 51.21     0.055 A 
HETATM    7  C15   D T1390      24.588  35.881  21.164  1.00 51.21     0.136 A 
HETATM    8  C16   D T1390      24.219  34.223  19.459  1.00 51.21     0.152 A 
HETATM    9  C25   D T1390      26.626  34.680  20.088  1.00 51.21     0.266 C 
HETATM   10  O26   D T1390      27.028  33.850  19.279  1.00 51.21    -0.269 OA
ENDROOT
BRANCH   3  11
HETATM   11  N5    D T1390      21.442  37.044  22.222  1.00 51.21    -0.187 NA
HETATM   12  C6    D T1390      21.753  38.389  22.313  1.00 51.21     0.281 C 
HETATM   13  O8    D T1390      22.482  38.965  21.525  1.00 51.21    -0.265 OA
BRANCH  12  14
HETATM   14  C7    D T1390      21.136  39.171  23.463  1.00 51.21     0.058 A 
HETATM   15  C9    D T1390      21.820  39.454  24.670  1.00 51.21     0.006 A 
HETATM   16  C10   D T1390      21.197  40.187  25.717  1.00 51.21     0.011 A 
HETATM   17  C24   D T1390      19.841  40.685  25.609  1.00 51.21     0.037 A 
HETATM   18  C11   D T1390      19.166  40.382  24.363  1.00 51.21     0.011 A 
HETATM   19  C12   D T1390      19.790  39.654  23.328  1.00 51.21     0.006 A 
BRANCH  17  20
HETATM   20  N17   D T1390      19.139  41.439  26.658  1.00 51.21    -0.248 NA
HETATM   21  C18   D T1390      19.155  40.755  28.015  1.00 51.21     0.112 C 
HETATM   22  C19   D T1390      17.817  40.223  28.622  1.00 51.21     0.268 C 
HETATM   23  N20   D T1390      16.663  41.104  28.367  1.00 51.21     0.142 N 
HETATM   24  C21   D T1390      16.505  41.312  26.924  1.00 51.21     0.268 C 
HETATM   25  C23   D T1390      15.437  40.559  28.958  1.00 51.21     0.285 C 
HETATM   26  C22   D T1390      17.773  41.917  26.252  1.00 51.21     0.112 C 
ENDBRANCH  17  20
ENDBRANCH  12  14
ENDBRANCH   3  11
BRANCH   9  27
HETATM   27  C20   D T1390      27.663  35.470  21.029  1.00 51.21     0.216 C 
BRANCH  27  28
HETATM   28  C27   D T1390      29.016  35.610  20.291  1.00 51.21     0.014 A 
HETATM   29  C28   D T1390      29.581  34.527  19.568  1.00 51.21    -0.001 A 
HETATM   30  C31   D T1390      30.808  34.680  18.881  1.00 51.21    -0.000 A 
HETATM   31  C35   D T1390      31.496  35.924  18.904  1.00 51.21    -0.000 A 
HETATM   32  C33   D T1390      30.942  37.012  19.624  1.00 51.21    -0.000 A 
HETATM   33  C29   D T1390      29.721  36.855  20.306  1.00 51.21    -0.001 A 
ENDBRANCH  27  28
BRANCH  27  34
HETATM   34  O34   D T1390      27.066  36.769  21.316  1.00 51.21    -0.340 OA
HETATM   35  C36   D T1390      27.287  37.262  22.632  1.00 51.21     0.175 C 
ENDBRANCH  27  34
ENDBRANCH   9  27
TORSDOF 6
ENDMDL
MODEL 7
REMARK VINA RESULT:      -7.9      3.595      4.659
REMARK  6 active torsions:
REMARK  status: ('A' for Active; 'I' for Inactive)
REMARK       I    between atoms: N1_1  and  C25_25 
REMARK    1  A    between atoms: C3_3  and  N5_5 
REMARK       I    between atoms: N5_5  and  C6_6 
REMARK    2  A    between atoms: C6_6  and  C7_7 
REMARK    3  A    between atoms: N17_17  and  C24_24 
REMARK    4  A    between atoms: C25_25  and  C20_32 
REMARK    5  A    between atoms: C27_27  and  C20_32 
REMARK    6  A    between atoms: C20_32  and  O34_35 
ROOT
HETATM    1  N1    D T1390      16.765  40.148  27.614  1.00 51.21    -0.308 N 
HETATM    2  N2    D T1390      17.935  42.891  25.453  1.00 51.21    -0.149 NA
HETATM    3  C3    D T1390      19.129  41.182  24.946  1.00 51.21     0.186 A 
HETATM    4  N4    D T1390      18.912  42.497  24.668  1.00 51.21    -0.129 NA
HETATM    5  C13   D T1390      17.497  41.924  26.231  1.00 51.21     0.104 A 
HETATM    6  C14   D T1390      18.207  40.814  25.964  1.00 51.21     0.055 A 
HETATM    7  C15   D T1390      17.833  39.626  26.771  1.00 51.21     0.136 A 
HETATM    8  C16   D T1390      16.516  41.568  27.304  1.00 51.21     0.152 A 
HETATM    9  C25   D T1390      16.022  39.470  28.628  1.00 51.21     0.266 C 
HETATM   10  O26   D T1390      15.147  40.043  29.271  1.00 51.21    -0.269 OA
ENDROOT
BRANCH   3  11
HETATM   11  N5    D T1390      20.109  40.538  24.251  1.00 51.21    -0.187 NA
HETATM   12  C6    D T1390      21.349  40.116  24.697  1.00 51.21     0.281 C 
HETATM   13  O8    D T1390      21.735  40.259  25.843  1.00 51.21    -0.265 OA
BRANCH  12  14
HETATM   14  C7    D T1390      22.260  39.438  23.686  1.00 51.21     0.058 A 
HETATM   15  C9    D T1390      23.568  38.990  23.991  1.00 51.21     0.006 A 
HETATM   16  C10   D T1390      24.382  38.364  23.007  1.00 51.21     0.011 A 
HETATM   17  C24   D T1390      23.923  38.146  21.650  1.00 51.21     0.037 A 
HETATM   18  C11   D T1390      22.580  38.613  21.367  1.00 51.21     0.011 A 
HETATM   19  C12   D T1390      21.779  39.234  22.348  1.00 51.21     0.006 A 
BRANCH  17  20
HETATM   20  N17   D T1390      24.718  37.515  20.587  1.00 51.21    -0.248 NA
HETATM   21  C18   D T1390      23.878  36.791  19.546  1.00 51.21     0.112 C 
HETATM   22  C19   D T1390      23.969  35.235  19.434  1.00 51.21     0.268 C 
HETATM   23  N20   D T1390      25.332  34.709  19.630  1.00 51.21     0.142 N 
HETATM   24  C21   D T1390      25.850  35.144  20.931  1.00 51.21     0.268 C 
HETATM   25  C23   D T1390      25.360  33.248  19.512  1.00 51.21     0.285 C 
HETATM   26  C22   D T1390      25.869  36.692  21.095  1.00 51.21     0.112 C 
ENDBRANCH  17  20
ENDBRANCH  12  14
ENDBRANCH   3  11
BRANCH   9  27
HETATM   27  C20   D T1390      16.391  37.937  28.942  1.00 51.21     0.216 C 
BRANCH  27  28
HETATM   28  C27   D T1390      16.310  37.695  30.468  1.00 51.21     0.014 A 
HETATM   29  C28   D T1390      15.262  36.926  31.041  1.00 51.21    -0.001 A 
HETATM   30  C31   D T1390      15.215  36.697  32.437  1.00 51.21    -0.000 A 
HETATM   31  C35   D T1390      16.219  37.233  33.288  1.00 51.21    -0.000 A 
HETATM   32  C33   D T1390      17.269  38.004  32.728  1.00 51.21    -0.000 A 
HETATM   33  C29   D T1390      17.311  38.230  31.339  1.00 51.21    -0.001 A 
ENDBRANCH  27  28
BRANCH  27  34
HETATM   34  O34   D T1390      15.434  37.114  28.212  1.00 51.21    -0.340 OA
HETATM   35  C36   D T1390      15.977  36.367  27.129  1.00 51.21     0.175 C 
ENDBRANCH  27  34
ENDBRANCH   9  27
TORSDOF 6
ENDMDL
MODEL 8
REMARK VINA RESULT:      -7.5      1.849      2.377
REMARK  6 active torsions:
REMARK  status: ('A' for Active; 'I' for Inactive)
REMARK       I    between atoms: N1_1  and  C25_25 
REMARK    1  A    between atoms: C3_3  and  N5_5 
REMARK       I    between atoms: N5_5  and  C6_6 
REMARK    2  A    between atoms: C6_6  and  C7_7 
REMARK    3  A    between atoms: N17_17  and  C24_24 
REMARK    4  A    between atoms: C25_25  and  C20_32 
REMARK    5  A    between atoms: C27_27  and  C20_32 
REMARK    6  A    between atoms: C20_32  and  O34_35 
ROOT
HETATM    1  N1    D T1390      17.578  40.456  28.069  1.00 51.21    -0.308 N 
HETATM    2  N2    D T1390      18.432  42.157  24.915  1.00 51.21    -0.149 NA
HETATM    3  C3    D T1390      20.011  40.751  25.281  1.00 51.21     0.186 A 
HETATM    4  N4    D T1390      19.565  41.710  24.424  1.00 51.21    -0.129 NA
HETATM    5  C13   D T1390      18.105  41.558  26.041  1.00 51.21     0.104 A 
HETATM    6  C14   D T1390      19.058  40.657  26.332  1.00 51.21     0.055 A 
HETATM    7  C15   D T1390      18.834  39.896  27.587  1.00 51.21     0.136 A 
HETATM    8  C16   D T1390      17.084  41.484  27.133  1.00 51.21     0.152 A 
HETATM    9  C25   D T1390      16.863  40.137  29.263  1.00 51.21     0.266 C 
HETATM   10  O26   D T1390      15.811  40.700  29.549  1.00 51.21    -0.269 OA
ENDROOT
BRANCH   3  11
HETATM   11  N5    D T1390      21.188  40.129  24.985  1.00 51.21    -0.187 NA
HETATM   12  C6    D T1390      21.842  40.054  23.768  1.00 51.21     0.281 C 
HETATM   13  O8    D T1390      21.433  40.586  22.752  1.00 51.21    -0.265 OA
BRANCH  12  14
HETATM   14  C7    D T1390      23.140  39.264  23.722  1.00 51.21     0.058 A 
HETATM   15  C9    D T1390      24.341  39.697  24.335  1.00 51.21     0.006 A 
HETATM   16  C10   D T1390      25.530  38.921  24.259  1.00 51.21     0.011 A 
HETATM   17  C24   D T1390      25.582  37.653  23.561  1.00 51.21     0.037 A 
HETATM   18  C11   D T1390      24.338  37.233  22.945  1.00 51.21     0.011 A 
HETATM   19  C12   D T1390      23.162  38.009  23.024  1.00 51.21     0.006 A 
BRANCH  17  20
HETATM   20  N17   D T1390      26.780  36.810  23.439  1.00 51.21    -0.248 NA
HETATM   21  C18   D T1390      28.083  37.589  23.526  1.00 51.21     0.112 C 
HETATM   22  C19   D T1390      29.004  37.686  22.267  1.00 51.21     0.268 C 
HETATM   23  N20   D T1390      29.056  36.443  21.478  1.00 51.21     0.142 N 
HETATM   24  C21   D T1390      27.702  36.053  21.073  1.00 51.21     0.268 C 
HETATM   25  C23   D T1390      29.933  36.589  20.312  1.00 51.21     0.285 C 
HETATM   26  C22   D T1390      26.736  35.856  22.279  1.00 51.21     0.112 C 
ENDBRANCH  17  20
ENDBRANCH  12  14
ENDBRANCH   3  11
BRANCH   9  27
HETATM   27  C20   D T1390      17.497  39.043  30.256  1.00 51.21     0.216 C 
BRANCH  27  28
HETATM   28  C27   D T1390      18.319  39.764  31.351  1.00 51.21     0.014 A 
HETATM   29  C28   D T1390      17.997  41.080  31.773  1.00 51.21    -0.001 A 
HETATM   30  C31   D T1390      18.746  41.716  32.791  1.00 51.21    -0.000 A 
HETATM   31  C35   D T1390      19.836  41.044  33.409  1.00 51.21    -0.000 A 
HETATM   32  C33   D T1390      20.168  39.730  32.994  1.00 51.21    -0.000 A 
HETATM   33  C29   D T1390      19.420  39.101  31.981  1.00 51.21    -0.001 A 
ENDBRANCH  27  28
BRANCH  27  34
HETATM   34  O34   D T1390      16.383  38.292  30.823  1.00 51.21    -0.340 OA
HETATM   35  C36   D T1390      15.747  37.382  29.932  1.00 51.21     0.175 C 
ENDBRANCH  27  34
ENDBRANCH   9  27
TORSDOF 6
ENDMDL
MODEL 9
REMARK VINA RESULT:      -7.4      3.003     11.497
REMARK  6 active torsions:
REMARK  status: ('A' for Active; 'I' for Inactive)
REMARK       I    between atoms: N1_1  and  C25_25 
REMARK    1  A    between atoms: C3_3  and  N5_5 
REMARK       I    between atoms: N5_5  and  C6_6 
REMARK    2  A    between atoms: C6_6  and  C7_7 
REMARK    3  A    between atoms: N17_17  and  C24_24 
REMARK    4  A    between atoms: C25_25  and  C20_32 
REMARK    5  A    between atoms: C27_27  and  C20_32 
REMARK    6  A    between atoms: C20_32  and  O34_35 
ROOT
HETATM    1  N1    D T1390      24.248  36.086  20.820  1.00 51.21    -0.308 N 
HETATM    2  N2    D T1390      20.605  36.412  20.387  1.00 51.21    -0.149 NA
HETATM    3  C3    D T1390      21.085  37.450  22.202  1.00 51.21     0.186 A 
HETATM    4  N4    D T1390      20.066  37.097  21.370  1.00 51.21    -0.129 NA
HETATM    5  C13   D T1390      21.908  36.288  20.519  1.00 51.21     0.104 A 
HETATM    6  C14   D T1390      22.280  36.920  21.645  1.00 51.21     0.055 A 
HETATM    7  C15   D T1390      23.734  36.866  21.939  1.00 51.21     0.136 A 
HETATM    8  C16   D T1390      23.150  35.716  19.908  1.00 51.21     0.152 A 
HETATM    9  C25   D T1390      25.592  35.676  20.565  1.00 51.21     0.266 C 
HETATM   10  O26   D T1390      25.881  35.009  19.577  1.00 51.21    -0.269 OA
ENDROOT
BRANCH   3  11
HETATM   11  N5    D T1390      20.776  38.178  23.314  1.00 51.21    -0.187 NA
HETATM   12  C6    D T1390      21.122  39.482  23.615  1.00 51.21     0.281 C 
HETATM   13  O8    D T1390      21.769  40.195  22.868  1.00 51.21    -0.265 OA
BRANCH  12  14
HETATM   14  C7    D T1390      20.656  40.037  24.952  1.00 51.21     0.058 A 
HETATM   15  C9    D T1390      21.523  40.265  26.048  1.00 51.21     0.006 A 
HETATM   16  C10   D T1390      21.036  40.783  27.279  1.00 51.21     0.011 A 
HETATM   17  C24   D T1390      19.639  41.108  27.481  1.00 51.21     0.037 A 
HETATM   18  C11   D T1390      18.775  40.866  26.343  1.00 51.21     0.011 A 
HETATM   19  C12   D T1390      19.265  40.351  25.124  1.00 51.21     0.006 A 
BRANCH  17  20
HETATM   20  N17   D T1390      19.073  41.636  28.731  1.00 51.21    -0.248 NA
HETATM   21  C18   D T1390      20.108  42.262  29.652  1.00 51.21     0.112 C 
HETATM   22  C19   D T1390      20.426  41.583  31.023  1.00 51.21     0.268 C 
HETATM   23  N20   D T1390      19.239  41.018  31.690  1.00 51.21     0.142 N 
HETATM   24  C21   D T1390      18.579  40.056  30.800  1.00 51.21     0.268 C 
HETATM   25  C23   D T1390      19.593  40.396  32.969  1.00 51.21     0.285 C 
HETATM   26  C22   D T1390      18.156  40.676  29.436  1.00 51.21     0.112 C 
ENDBRANCH  17  20
ENDBRANCH  12  14
ENDBRANCH   3  11
BRANCH   9  27
HETATM   27  C20   D T1390      26.722  36.076  21.637  1.00 51.21     0.216 C 
BRANCH  27  28
HETATM   28  C27   D T1390      28.114  35.994  20.965  1.00 51.21     0.014 A 
HETATM   29  C28   D T1390      28.549  34.815  20.304  1.00 51.21    -0.001 A 
HETATM   30  C31   D T1390      29.816  34.765  19.677  1.00 51.21    -0.000 A 
HETATM   31  C35   D T1390      30.674  35.898  19.697  1.00 51.21    -0.000 A 
HETATM   32  C33   D T1390      30.251  37.080  20.355  1.00 51.21    -0.000 A 
HETATM   33  C29   D T1390      28.990  37.125  20.978  1.00 51.21    -0.001 A 
ENDBRANCH  27  28
BRANCH  27  34
HETATM   34  O34   D T1390      26.418  37.429  22.086  1.00 51.21    -0.340 OA
HETATM   35  C36   D T1390      26.647  37.675  23.469  1.00 51.21     0.175 C 
ENDBRANCH  27  34
ENDBRANCH   9  27
TORSDOF 6
ENDMDL
