MODEL 1
REMARK VINA RESULT:    -9.015      0.000      0.000
REMARK INTER + INTRA:         -12.228
REMARK INTER:                 -12.177
REMARK INTRA:                  -0.051
REMARK UNBOUND:                -0.051
REMARK  6 active torsions:
REMARK  status: ('A' for Active; 'I' for Inactive)
REMARK       I    between atoms: N1_1  and  C25_25 
REMARK    1  A    between atoms: C3_3  and  N5_5 
REMARK       I    between atoms: N5_5  and  C6_6 
REMARK    2  A    between atoms: C6_6  and  C7_7 
REMARK    3  A    between atoms: N17_17  and  C24_24 
REMARK    4  A    between atoms: C25_25  and  C20_32 
REMARK    5  A    between atoms: C27_27  and  C20_32 
REMARK    6  A    between atoms: C20_32  and  O34_35 
ROOT
HETATM    1  N1    D T1390      27.017  36.234  22.130  1.00 51.21    -0.308 N 
HETATM    2  N2    D T1390      27.746  39.172  24.228  1.00 51.21    -0.149 NA
HETATM    3  C3    D T1390      25.609  38.980  24.193  1.00 51.21     0.186 A 
HETATM    4  N4    D T1390      26.641  39.725  24.676  1.00 51.21    -0.129 NA
HETATM    5  C13   D T1390      27.509  38.116  23.479  1.00 51.21     0.104 A 
HETATM    6  C14   D T1390      26.179  37.935  23.414  1.00 51.21     0.055 A 
HETATM    7  C15   D T1390      25.746  36.775  22.595  1.00 51.21     0.136 A 
HETATM    8  C16   D T1390      28.138  37.028  22.665  1.00 51.21     0.152 A 
HETATM    9  C25   D T1390      27.246  35.116  21.271  1.00 51.21     0.266 C 
HETATM   10  O26   D T1390      28.381  34.775  20.954  1.00 51.21    -0.269 OA
ENDROOT
BRANCH   3  11
HETATM   11  N5    D T1390      24.341  39.358  24.524  1.00 51.21    -0.187 NA
HETATM   12  C6    D T1390      23.264  39.590  23.688  1.00 51.21     0.281 C 
HETATM   13  O8    D T1390      23.311  39.456  22.478  1.00 51.21    -0.265 OA
BRANCH  12  14
HETATM   14  C7    D T1390      21.960  40.030  24.336  1.00 51.21     0.058 A 
HETATM   15  C9    D T1390      21.793  40.172  25.735  1.00 51.21     0.006 A 
HETATM   16  C10   D T1390      20.550  40.584  26.291  1.00 51.21     0.011 A 
HETATM   17  C24   D T1390      19.397  40.883  25.467  1.00 51.21     0.037 A 
HETATM   18  C11   D T1390      19.598  40.731  24.040  1.00 51.21     0.011 A 
HETATM   19  C12   D T1390      20.833  40.321  23.495  1.00 51.21     0.006 A 
BRANCH  17  20
HETATM   20  N17   D T1390      18.085  41.303  25.981  1.00 51.21    -0.248 NA
HETATM   21  C18   D T1390      17.788  42.778  25.757  1.00 51.21     0.112 C 
HETATM   22  C19   D T1390      17.681  43.734  26.988  1.00 51.21     0.268 C 
HETATM   23  N20   D T1390      17.021  43.122  28.155  1.00 51.21     0.142 N 
HETATM   24  C21   D T1390      17.729  41.895  28.539  1.00 51.21     0.268 C 
HETATM   25  C23   D T1390      16.947  44.061  29.278  1.00 51.21     0.285 C 
HETATM   26  C22   D T1390      17.810  40.851  27.388  1.00 51.21     0.112 C 
ENDBRANCH  17  20
ENDBRANCH  12  14
ENDBRANCH   3  11
BRANCH   9  27
HETATM   27  C20   D T1390      25.967  34.334  20.688  1.00 51.21     0.216 C 
BRANCH  27  28
HETATM   28  C27   D T1390      24.880  35.361  20.290  1.00 51.21     0.014 A 
HETATM   29  C28   D T1390      25.141  36.388  19.345  1.00 51.21    -0.001 A 
HETATM   30  C31   D T1390      24.129  37.305  18.976  1.00 51.21    -0.000 A 
HETATM   31  C35   D T1390      22.831  37.211  19.548  1.00 51.21    -0.000 A 
HETATM   32  C33   D T1390      22.558  36.191  20.494  1.00 51.21    -0.000 A 
HETATM   33  C29   D T1390      23.569  35.281  20.858  1.00 51.21    -0.001 A 
ENDBRANCH  27  28
BRANCH  27  34
HETATM   34  O34   D T1390      26.430  33.565  19.540  1.00 51.21    -0.340 OA
HETATM   35  C36   D T1390      25.482  32.654  18.995  1.00 51.21     0.175 C 
ENDBRANCH  27  34
ENDBRANCH   9  27
TORSDOF 6
ENDMDL
MODEL 2
REMARK VINA RESULT:    -8.679      4.204      5.983
REMARK INTER + INTRA:         -11.775
REMARK INTER:                 -11.986
REMARK INTRA:                   0.211
REMARK UNBOUND:                -0.051
REMARK  6 active torsions:
REMARK  status: ('A' for Active; 'I' for Inactive)
REMARK       I    between atoms: N1_1  and  C25_25 
REMARK    1  A    between atoms: C3_3  and  N5_5 
REMARK       I    between atoms: N5_5  and  C6_6 
REMARK    2  A    between atoms: C6_6  and  C7_7 
REMARK    3  A    between atoms: N17_17  and  C24_24 
REMARK    4  A    between atoms: C25_25  and  C20_32 
REMARK    5  A    between atoms: C27_27  and  C20_32 
REMARK    6  A    between atoms: C20_32  and  O34_35 
ROOT
HETATM    1  N1    D T1390      27.120  37.527  23.021  1.00 51.21    -0.308 N 
HETATM    2  N2    D T1390      24.985  39.930  24.818  1.00 51.21    -0.149 NA
HETATM    3  C3    D T1390      23.652  38.598  23.794  1.00 51.21     0.186 A 
HETATM    4  N4    D T1390      23.711  39.685  24.611  1.00 51.21    -0.129 NA
HETATM    5  C13   D T1390      25.767  39.079  24.189  1.00 51.21     0.104 A 
HETATM    6  C14   D T1390      24.991  38.208  23.522  1.00 51.21     0.055 A 
HETATM    7  C15   D T1390      25.732  37.178  22.750  1.00 51.21     0.136 A 
HETATM    8  C16   D T1390      27.189  38.694  23.920  1.00 51.21     0.152 A 
HETATM    9  C25   D T1390      28.306  36.904  22.525  1.00 51.21     0.266 C 
HETATM   10  O26   D T1390      29.421  37.313  22.834  1.00 51.21    -0.269 OA
ENDROOT
BRANCH   3  11
HETATM   11  N5    D T1390      22.419  38.142  23.429  1.00 51.21    -0.187 NA
HETATM   12  C6    D T1390      21.799  38.224  22.195  1.00 51.21     0.281 C 
HETATM   13  O8    D T1390      22.318  38.725  21.214  1.00 51.21    -0.265 OA
BRANCH  12  14
HETATM   14  C7    D T1390      20.397  37.646  22.080  1.00 51.21     0.058 A 
HETATM   15  C9    D T1390      19.240  38.299  22.570  1.00 51.21     0.006 A 
HETATM   16  C10   D T1390      17.951  37.714  22.438  1.00 51.21     0.011 A 
HETATM   17  C24   D T1390      17.747  36.430  21.800  1.00 51.21     0.037 A 
HETATM   18  C11   D T1390      18.948  35.785  21.306  1.00 51.21     0.011 A 
HETATM   19  C12   D T1390      20.224  36.372  21.440  1.00 51.21     0.006 A 
BRANCH  17  20
HETATM   20  N17   D T1390      16.444  35.769  21.642  1.00 51.21    -0.248 NA
HETATM   21  C18   D T1390      15.493  36.014  22.803  1.00 51.21     0.112 C 
HETATM   22  C19   D T1390      15.085  34.820  23.726  1.00 51.21     0.268 C 
HETATM   23  N20   D T1390      14.889  33.553  22.999  1.00 51.21     0.142 N 
HETATM   24  C21   D T1390      16.107  33.213  22.256  1.00 51.21     0.268 C 
HETATM   25  C23   D T1390      14.508  32.470  23.910  1.00 51.21     0.285 C 
HETATM   26  C22   D T1390      16.539  34.321  21.251  1.00 51.21     0.112 C 
ENDBRANCH  17  20
ENDBRANCH  12  14
ENDBRANCH   3  11
BRANCH   9  27
HETATM   27  C20   D T1390      28.145  35.669  21.508  1.00 51.21     0.216 C 
BRANCH  27  28
HETATM   28  C27   D T1390      29.293  35.709  20.471  1.00 51.21     0.014 A 
HETATM   29  C28   D T1390      30.045  36.892  20.244  1.00 51.21    -0.001 A 
HETATM   30  C31   D T1390      31.105  36.905  19.307  1.00 51.21    -0.000 A 
HETATM   31  C35   D T1390      31.435  35.730  18.579  1.00 51.21    -0.000 A 
HETATM   32  C33   D T1390      30.690  34.543  18.795  1.00 51.21    -0.000 A 
HETATM   33  C29   D T1390      29.636  34.536  19.728  1.00 51.21    -0.001 A 
ENDBRANCH  27  28
BRANCH  27  34
HETATM   34  O34   D T1390      28.184  34.453  22.311  1.00 51.21    -0.340 OA
HETATM   35  C36   D T1390      28.189  34.654  23.720  1.00 51.21     0.175 C 
ENDBRANCH  27  34
ENDBRANCH   9  27
TORSDOF 6
ENDMDL
MODEL 3
REMARK VINA RESULT:    -8.519      7.347     10.319
REMARK INTER + INTRA:         -11.558
REMARK INTER:                 -11.009
REMARK INTRA:                  -0.549
REMARK UNBOUND:                -0.051
REMARK  6 active torsions:
REMARK  status: ('A' for Active; 'I' for Inactive)
REMARK       I    between atoms: N1_1  and  C25_25 
REMARK    1  A    between atoms: C3_3  and  N5_5 
REMARK       I    between atoms: N5_5  and  C6_6 
REMARK    2  A    between atoms: C6_6  and  C7_7 
REMARK    3  A    between atoms: N17_17  and  C24_24 
REMARK    4  A    between atoms: C25_25  and  C20_32 
REMARK    5  A    between atoms: C27_27  and  C20_32 
REMARK    6  A    between atoms: C20_32  and  O34_35 
ROOT
HETATM    1  N1    D T1390      17.877  32.350  14.795  1.00 51.21    -0.308 N 
HETATM    2  N2    D T1390      21.347  31.165  15.142  1.00 51.21    -0.149 NA
HETATM    3  C3    D T1390      21.168  32.873  16.429  1.00 51.21     0.186 A 
HETATM    4  N4    D T1390      22.026  31.915  15.981  1.00 51.21    -0.129 NA
HETATM    5  C13   D T1390      20.101  31.568  15.007  1.00 51.21     0.104 A 
HETATM    6  C14   D T1390      19.918  32.643  15.792  1.00 51.21     0.055 A 
HETATM    7  C15   D T1390      18.552  33.223  15.746  1.00 51.21     0.136 A 
HETATM    8  C16   D T1390      18.798  31.301  14.319  1.00 51.21     0.152 A 
HETATM    9  C25   D T1390      16.533  32.426  14.317  1.00 51.21     0.266 C 
HETATM   10  O26   D T1390      16.097  31.620  13.502  1.00 51.21    -0.269 OA
ENDROOT
BRANCH   3  11
HETATM   11  N5    D T1390      21.644  33.786  17.323  1.00 51.21    -0.187 NA
HETATM   12  C6    D T1390      22.686  33.651  18.222  1.00 51.21     0.281 C 
HETATM   13  O8    D T1390      23.364  32.643  18.319  1.00 51.21    -0.265 OA
BRANCH  12  14
HETATM   14  C7    D T1390      22.986  34.837  19.126  1.00 51.21     0.058 A 
HETATM   15  C9    D T1390      24.293  35.328  19.361  1.00 51.21     0.006 A 
HETATM   16  C10   D T1390      24.520  36.440  20.218  1.00 51.21     0.011 A 
HETATM   17  C24   D T1390      23.438  37.130  20.891  1.00 51.21     0.037 A 
HETATM   18  C11   D T1390      22.112  36.607  20.630  1.00 51.21     0.011 A 
HETATM   19  C12   D T1390      21.894  35.503  19.778  1.00 51.21     0.006 A 
BRANCH  17  20
HETATM   20  N17   D T1390      23.608  38.277  21.795  1.00 51.21    -0.248 NA
HETATM   21  C18   D T1390      23.829  37.881  23.246  1.00 51.21     0.112 C 
HETATM   22  C19   D T1390      22.738  38.228  24.310  1.00 51.21     0.268 C 
HETATM   23  N20   D T1390      22.105  39.542  24.098  1.00 51.21     0.142 N 
HETATM   24  C21   D T1390      21.523  39.602  22.753  1.00 51.21     0.268 C 
HETATM   25  C23   D T1390      21.094  39.816  25.123  1.00 51.21     0.285 C 
HETATM   26  C22   D T1390      22.564  39.345  21.624  1.00 51.21     0.112 C 
ENDBRANCH  17  20
ENDBRANCH  12  14
ENDBRANCH   3  11
BRANCH   9  27
HETATM   27  C20   D T1390      15.609  33.631  14.845  1.00 51.21     0.216 C 
BRANCH  27  28
HETATM   28  C27   D T1390      15.584  34.757  13.784  1.00 51.21     0.014 A 
HETATM   29  C28   D T1390      14.366  35.213  13.215  1.00 51.21    -0.001 A 
HETATM   30  C31   D T1390      14.361  36.258  12.262  1.00 51.21    -0.000 A 
HETATM   31  C35   D T1390      15.579  36.871  11.860  1.00 51.21    -0.000 A 
HETATM   32  C33   D T1390      16.801  36.424  12.420  1.00 51.21    -0.000 A 
HETATM   33  C29   D T1390      16.802  35.383  13.367  1.00 51.21    -0.001 A 
ENDBRANCH  27  28
BRANCH  27  34
HETATM   34  O34   D T1390      14.280  33.075  15.074  1.00 51.21    -0.340 OA
HETATM   35  C36   D T1390      14.098  32.433  16.331  1.00 51.21     0.175 C 
ENDBRANCH  27  34
ENDBRANCH   9  27
TORSDOF 6
ENDMDL
MODEL 4
REMARK VINA RESULT:    -8.415      3.412     11.271
REMARK INTER + INTRA:         -11.418
REMARK INTER:                 -10.747
REMARK INTRA:                  -0.671
REMARK UNBOUND:                -0.051
REMARK  6 active torsions:
REMARK  status: ('A' for Active; 'I' for Inactive)
REMARK       I    between atoms: N1_1  and  C25_25 
REMARK    1  A    between atoms: C3_3  and  N5_5 
REMARK       I    between atoms: N5_5  and  C6_6 
REMARK    2  A    between atoms: C6_6  and  C7_7 
REMARK    3  A    between atoms: N17_17  and  C24_24 
REMARK    4  A    between atoms: C25_25  and  C20_32 
REMARK    5  A    between atoms: C27_27  and  C20_32 
REMARK    6  A    between atoms: C20_32  and  O34_35 
ROOT
HETATM    1  N1    D T1390      17.826  40.556  27.594  1.00 51.21    -0.308 N 
HETATM    2  N2    D T1390      18.759  42.093  24.379  1.00 51.21    -0.149 NA
HETATM    3  C3    D T1390      20.353  40.749  24.882  1.00 51.21     0.186 A 
HETATM    4  N4    D T1390      19.919  41.646  23.955  1.00 51.21    -0.129 NA
HETATM    5  C13   D T1390      18.403  41.552  25.525  1.00 51.21     0.104 A 
HETATM    6  C14   D T1390      19.364  40.692  25.902  1.00 51.21     0.055 A 
HETATM    7  C15   D T1390      19.111  39.999  27.190  1.00 51.21     0.136 A 
HETATM    8  C16   D T1390      17.344  41.516  26.584  1.00 51.21     0.152 A 
HETATM    9  C25   D T1390      17.074  40.288  28.778  1.00 51.21     0.266 C 
HETATM   10  O26   D T1390      16.000  40.842  28.993  1.00 51.21    -0.269 OA
ENDROOT
BRANCH   3  11
HETATM   11  N5    D T1390      21.553  40.139  24.664  1.00 51.21    -0.187 NA
HETATM   12  C6    D T1390      21.927  39.321  23.614  1.00 51.21     0.281 C 
HETATM   13  O8    D T1390      21.191  39.043  22.683  1.00 51.21    -0.265 OA
BRANCH  12  14
HETATM   14  C7    D T1390      23.337  38.752  23.640  1.00 51.21     0.058 A 
HETATM   15  C9    D T1390      24.366  39.252  24.475  1.00 51.21     0.006 A 
HETATM   16  C10   D T1390      25.670  38.685  24.459  1.00 51.21     0.011 A 
HETATM   17  C24   D T1390      26.018  37.573  23.599  1.00 51.21     0.037 A 
HETATM   18  C11   D T1390      24.946  37.080  22.757  1.00 51.21     0.011 A 
HETATM   19  C12   D T1390      23.654  37.648  22.778  1.00 51.21     0.006 A 
BRANCH  17  20
HETATM   20  N17   D T1390      27.348  36.950  23.530  1.00 51.21    -0.248 NA
HETATM   21  C18   D T1390      28.435  37.890  23.032  1.00 51.21     0.112 C 
HETATM   22  C19   D T1390      29.116  37.613  21.653  1.00 51.21     0.268 C 
HETATM   23  N20   D T1390      29.340  36.181  21.384  1.00 51.21     0.142 N 
HETATM   24  C21   D T1390      28.068  35.455  21.464  1.00 51.21     0.268 C 
HETATM   25  C23   D T1390      29.982  35.978  20.082  1.00 51.21     0.285 C 
HETATM   26  C22   D T1390      27.359  35.614  22.841  1.00 51.21     0.112 C 
ENDBRANCH  17  20
ENDBRANCH  12  14
ENDBRANCH   3  11
BRANCH   9  27
HETATM   27  C20   D T1390      17.694  39.268  29.855  1.00 51.21     0.216 C 
BRANCH  27  28
HETATM   28  C27   D T1390      18.488  40.067  30.916  1.00 51.21     0.014 A 
HETATM   29  C28   D T1390      18.648  41.474  30.817  1.00 51.21    -0.001 A 
HETATM   30  C31   D T1390      19.359  42.192  31.808  1.00 51.21    -0.000 A 
HETATM   31  C35   D T1390      19.924  41.512  32.921  1.00 51.21    -0.000 A 
HETATM   32  C33   D T1390      19.773  40.107  33.030  1.00 51.21    -0.000 A 
HETATM   33  C29   D T1390      19.065  39.398  32.042  1.00 51.21    -0.001 A 
ENDBRANCH  27  28
BRANCH  27  34
HETATM   34  O34   D T1390      16.574  38.547  30.448  1.00 51.21    -0.340 OA
HETATM   35  C36   D T1390      15.924  37.620  29.586  1.00 51.21     0.175 C 
ENDBRANCH  27  34
ENDBRANCH   9  27
TORSDOF 6
ENDMDL
MODEL 5
REMARK VINA RESULT:    -8.389      1.331      2.605
REMARK INTER + INTRA:         -11.383
REMARK INTER:                 -11.365
REMARK INTRA:                  -0.018
REMARK UNBOUND:                -0.051
REMARK  6 active torsions:
REMARK  status: ('A' for Active; 'I' for Inactive)
REMARK       I    between atoms: N1_1  and  C25_25 
REMARK    1  A    between atoms: C3_3  and  N5_5 
REMARK       I    between atoms: N5_5  and  C6_6 
REMARK    2  A    between atoms: C6_6  and  C7_7 
REMARK    3  A    between atoms: N17_17  and  C24_24 
REMARK    4  A    between atoms: C25_25  and  C20_32 
REMARK    5  A    between atoms: C27_27  and  C20_32 
REMARK    6  A    between atoms: C20_32  and  O34_35 
ROOT
HETATM    1  N1    D T1390      25.775  36.101  21.475  1.00 51.21    -0.308 N 
HETATM    2  N2    D T1390      26.921  38.673  23.851  1.00 51.21    -0.149 NA
HETATM    3  C3    D T1390      24.778  38.700  23.931  1.00 51.21     0.186 A 
HETATM    4  N4    D T1390      25.907  39.273  24.431  1.00 51.21    -0.129 NA
HETATM    5  C13   D T1390      26.534  37.745  23.001  1.00 51.21     0.104 A 
HETATM    6  C14   D T1390      25.191  37.707  23.001  1.00 51.21     0.055 A 
HETATM    7  C15   D T1390      24.596  36.706  22.081  1.00 51.21     0.136 A 
HETATM    8  C16   D T1390      27.001  36.709  22.026  1.00 51.21     0.152 A 
HETATM    9  C25   D T1390      25.839  35.081  20.479  1.00 51.21     0.266 C 
HETATM   10  O26   D T1390      26.913  34.670  20.051  1.00 51.21    -0.269 OA
ENDROOT
BRANCH   3  11
HETATM   11  N5    D T1390      23.576  39.159  24.385  1.00 51.21    -0.187 NA
HETATM   12  C6    D T1390      22.715  40.060  23.787  1.00 51.21     0.281 C 
HETATM   13  O8    D T1390      22.926  40.573  22.702  1.00 51.21    -0.265 OA
BRANCH  12  14
HETATM   14  C7    D T1390      21.441  40.413  24.539  1.00 51.21     0.058 A 
HETATM   15  C9    D T1390      21.257  40.169  25.921  1.00 51.21     0.006 A 
HETATM   16  C10   D T1390      20.044  40.515  26.577  1.00 51.21     0.011 A 
HETATM   17  C24   D T1390      18.938  41.135  25.877  1.00 51.21     0.037 A 
HETATM   18  C11   D T1390      19.154  41.375  24.464  1.00 51.21     0.011 A 
HETATM   19  C12   D T1390      20.361  41.028  23.820  1.00 51.21     0.006 A 
BRANCH  17  20
HETATM   20  N17   D T1390      17.657  41.507  26.495  1.00 51.21    -0.248 NA
HETATM   21  C18   D T1390      17.168  42.890  26.096  1.00 51.21     0.112 C 
HETATM   22  C19   D T1390      17.099  44.021  27.173  1.00 51.21     0.268 C 
HETATM   23  N20   D T1390      16.657  43.547  28.497  1.00 51.21     0.142 N 
HETATM   24  C21   D T1390      17.541  42.472  28.961  1.00 51.21     0.268 C 
HETATM   25  C23   D T1390      16.609  44.645  29.467  1.00 51.21     0.285 C 
HETATM   26  C22   D T1390      17.604  41.266  27.978  1.00 51.21     0.112 C 
ENDBRANCH  17  20
ENDBRANCH  12  14
ENDBRANCH   3  11
BRANCH   9  27
HETATM   27  C20   D T1390      24.456  34.508  19.891  1.00 51.21     0.216 C 
BRANCH  27  28
HETATM   28  C27   D T1390      24.572  32.975  19.716  1.00 51.21     0.014 A 
HETATM   29  C28   D T1390      24.740  32.112  20.830  1.00 51.21    -0.001 A 
HETATM   30  C31   D T1390      24.823  30.711  20.653  1.00 51.21    -0.000 A 
HETATM   31  C35   D T1390      24.738  30.144  19.352  1.00 51.21    -0.000 A 
HETATM   32  C33   D T1390      24.573  30.996  18.231  1.00 51.21    -0.000 A 
HETATM   33  C29   D T1390      24.491  32.389  18.412  1.00 51.21    -0.001 A 
ENDBRANCH  27  28
BRANCH  27  34
HETATM   34  O34   D T1390      23.412  34.865  20.845  1.00 51.21    -0.340 OA
HETATM   35  C36   D T1390      22.083  34.812  20.340  1.00 51.21     0.175 C 
ENDBRANCH  27  34
ENDBRANCH   9  27
TORSDOF 6
ENDMDL
MODEL 6
REMARK VINA RESULT:    -8.351      3.960     11.208
REMARK INTER + INTRA:         -11.331
REMARK INTER:                 -10.276
REMARK INTRA:                  -1.055
REMARK UNBOUND:                -0.051
REMARK  6 active torsions:
REMARK  status: ('A' for Active; 'I' for Inactive)
REMARK       I    between atoms: N1_1  and  C25_25 
REMARK    1  A    between atoms: C3_3  and  N5_5 
REMARK       I    between atoms: N5_5  and  C6_6 
REMARK    2  A    between atoms: C6_6  and  C7_7 
REMARK    3  A    between atoms: N17_17  and  C24_24 
REMARK    4  A    between atoms: C25_25  and  C20_32 
REMARK    5  A    between atoms: C27_27  and  C20_32 
REMARK    6  A    between atoms: C20_32  and  O34_35 
ROOT
HETATM    1  N1    D T1390      16.865  40.112  27.593  1.00 51.21    -0.308 N 
HETATM    2  N2    D T1390      18.028  42.840  25.409  1.00 51.21    -0.149 NA
HETATM    3  C3    D T1390      19.203  41.121  24.893  1.00 51.21     0.186 A 
HETATM    4  N4    D T1390      18.993  42.437  24.613  1.00 51.21    -0.129 NA
HETATM    5  C13   D T1390      17.593  41.879  26.195  1.00 51.21     0.104 A 
HETATM    6  C14   D T1390      18.291  40.763  25.923  1.00 51.21     0.055 A 
HETATM    7  C15   D T1390      17.919  39.580  26.739  1.00 51.21     0.136 A 
HETATM    8  C16   D T1390      16.622  41.533  27.282  1.00 51.21     0.152 A 
HETATM    9  C25   D T1390      16.129  39.444  28.619  1.00 51.21     0.266 C 
HETATM   10  O26   D T1390      15.267  40.025  29.270  1.00 51.21    -0.269 OA
ENDROOT
BRANCH   3  11
HETATM   11  N5    D T1390      20.170  40.467  24.188  1.00 51.21    -0.187 NA
HETATM   12  C6    D T1390      21.416  40.046  24.617  1.00 51.21     0.281 C 
HETATM   13  O8    D T1390      21.821  40.199  25.756  1.00 51.21    -0.265 OA
BRANCH  12  14
HETATM   14  C7    D T1390      22.309  39.356  23.598  1.00 51.21     0.058 A 
HETATM   15  C9    D T1390      23.637  38.948  23.871  1.00 51.21     0.006 A 
HETATM   16  C10   D T1390      24.431  38.308  22.880  1.00 51.21     0.011 A 
HETATM   17  C24   D T1390      23.932  38.035  21.548  1.00 51.21     0.037 A 
HETATM   18  C11   D T1390      22.569  38.461  21.297  1.00 51.21     0.011 A 
HETATM   19  C12   D T1390      21.787  39.096  22.285  1.00 51.21     0.006 A 
BRANCH  17  20
HETATM   20  N17   D T1390      24.705  37.387  20.479  1.00 51.21    -0.248 NA
HETATM   21  C18   D T1390      23.841  36.711  19.426  1.00 51.21     0.112 C 
HETATM   22  C19   D T1390      23.870  35.155  19.293  1.00 51.21     0.268 C 
HETATM   23  N20   D T1390      25.210  34.572  19.486  1.00 51.21     0.142 N 
HETATM   24  C21   D T1390      25.741  34.968  20.795  1.00 51.21     0.268 C 
HETATM   25  C23   D T1390      25.181  33.113  19.349  1.00 51.21     0.285 C 
HETATM   26  C22   D T1390      25.820  36.512  20.980  1.00 51.21     0.112 C 
ENDBRANCH  17  20
ENDBRANCH  12  14
ENDBRANCH   3  11
BRANCH   9  27
HETATM   27  C20   D T1390      16.491  37.909  28.933  1.00 51.21     0.216 C 
BRANCH  27  28
HETATM   28  C27   D T1390      16.380  37.660  30.456  1.00 51.21     0.014 A 
HETATM   29  C28   D T1390      15.323  36.886  31.005  1.00 51.21    -0.001 A 
HETATM   30  C31   D T1390      15.249  36.651  32.398  1.00 51.21    -0.000 A 
HETATM   31  C35   D T1390      16.235  37.186  33.271  1.00 51.21    -0.000 A 
HETATM   32  C33   D T1390      17.293  37.962  32.735  1.00 51.21    -0.000 A 
HETATM   33  C29   D T1390      17.363  38.194  31.349  1.00 51.21    -0.001 A 
ENDBRANCH  27  28
BRANCH  27  34
HETATM   34  O34   D T1390      15.547  37.090  28.181  1.00 51.21    -0.340 OA
HETATM   35  C36   D T1390      16.126  36.256  27.184  1.00 51.21     0.175 C 
ENDBRANCH  27  34
ENDBRANCH   9  27
TORSDOF 6
ENDMDL
MODEL 7
REMARK VINA RESULT:    -8.222      8.003     11.326
REMARK INTER + INTRA:         -11.157
REMARK INTER:                 -10.533
REMARK INTRA:                  -0.624
REMARK UNBOUND:                -0.051
REMARK  6 active torsions:
REMARK  status: ('A' for Active; 'I' for Inactive)
REMARK       I    between atoms: N1_1  and  C25_25 
REMARK    1  A    between atoms: C3_3  and  N5_5 
REMARK       I    between atoms: N5_5  and  C6_6 
REMARK    2  A    between atoms: C6_6  and  C7_7 
REMARK    3  A    between atoms: N17_17  and  C24_24 
REMARK    4  A    between atoms: C25_25  and  C20_32 
REMARK    5  A    between atoms: C27_27  and  C20_32 
REMARK    6  A    between atoms: C20_32  and  O34_35 
ROOT
HETATM    1  N1    D T1390      16.435  33.134  14.215  1.00 51.21    -0.308 N 
HETATM    2  N2    D T1390      19.405  30.981  14.540  1.00 51.21    -0.149 NA
HETATM    3  C3    D T1390      19.614  32.512  16.027  1.00 51.21     0.186 A 
HETATM    4  N4    D T1390      20.203  31.407  15.493  1.00 51.21    -0.129 NA
HETATM    5  C13   D T1390      18.334  31.733  14.410  1.00 51.21     0.104 A 
HETATM    6  C14   D T1390      18.399  32.720  15.319  1.00 51.21     0.055 A 
HETATM    7  C15   D T1390      17.255  33.666  15.296  1.00 51.21     0.136 A 
HETATM    8  C16   D T1390      17.061  31.927  13.645  1.00 51.21     0.152 A 
HETATM    9  C25   D T1390      15.203  33.642  13.701  1.00 51.21     0.266 C 
HETATM   10  O26   D T1390      14.621  33.090  12.773  1.00 51.21    -0.269 OA
ENDROOT
BRANCH   3  11
HETATM   11  N5    D T1390      20.259  33.146  17.049  1.00 51.21    -0.187 NA
HETATM   12  C6    D T1390      21.497  33.761  17.038  1.00 51.21     0.281 C 
HETATM   13  O8    D T1390      22.202  33.836  16.047  1.00 51.21    -0.265 OA
BRANCH  12  14
HETATM   14  C7    D T1390      21.984  34.372  18.343  1.00 51.21     0.058 A 
HETATM   15  C9    D T1390      21.748  35.719  18.710  1.00 51.21     0.006 A 
HETATM   16  C10   D T1390      22.228  36.243  19.942  1.00 51.21     0.011 A 
HETATM   17  C24   D T1390      22.975  35.437  20.886  1.00 51.21     0.037 A 
HETATM   18  C11   D T1390      23.200  34.062  20.484  1.00 51.21     0.011 A 
HETATM   19  C12   D T1390      22.721  33.549  19.260  1.00 51.21     0.006 A 
BRANCH  17  20
HETATM   20  N17   D T1390      23.505  35.921  22.168  1.00 51.21    -0.248 NA
HETATM   21  C18   D T1390      22.458  36.584  23.048  1.00 51.21     0.112 C 
HETATM   22  C19   D T1390      22.561  38.115  23.343  1.00 51.21     0.268 C 
HETATM   23  N20   D T1390      23.945  38.587  23.534  1.00 51.21     0.142 N 
HETATM   24  C21   D T1390      24.752  38.252  22.356  1.00 51.21     0.268 C 
HETATM   25  C23   D T1390      23.984  40.026  23.808  1.00 51.21     0.285 C 
HETATM   26  C22   D T1390      24.767  36.728  22.038  1.00 51.21     0.112 C 
ENDBRANCH  17  20
ENDBRANCH  12  14
ENDBRANCH   3  11
BRANCH   9  27
HETATM   27  C20   D T1390      14.614  34.993  14.344  1.00 51.21     0.216 C 
BRANCH  27  28
HETATM   28  C27   D T1390      15.178  36.212  13.576  1.00 51.21     0.014 A 
HETATM   29  C28   D T1390      14.546  37.482  13.633  1.00 51.21    -0.001 A 
HETATM   30  C31   D T1390      15.089  38.591  12.942  1.00 51.21    -0.000 A 
HETATM   31  C35   D T1390      16.279  38.449  12.177  1.00 51.21    -0.000 A 
HETATM   32  C33   D T1390      16.918  37.186  12.110  1.00 51.21    -0.000 A 
HETATM   33  C29   D T1390      16.374  36.086  12.800  1.00 51.21    -0.001 A 
ENDBRANCH  27  28
BRANCH  27  34
HETATM   34  O34   D T1390      13.162  34.912  14.238  1.00 51.21    -0.340 OA
HETATM   35  C36   D T1390      12.444  35.324  15.396  1.00 51.21     0.175 C 
ENDBRANCH  27  34
ENDBRANCH   9  27
TORSDOF 6
ENDMDL
MODEL 8
REMARK VINA RESULT:    -7.687      4.397     12.528
REMARK INTER + INTRA:         -10.435
REMARK INTER:                  -9.607
REMARK INTRA:                  -0.828
REMARK UNBOUND:                -0.051
REMARK  6 active torsions:
REMARK  status: ('A' for Active; 'I' for Inactive)
REMARK       I    between atoms: N1_1  and  C25_25 
REMARK    1  A    between atoms: C3_3  and  N5_5 
REMARK       I    between atoms: N5_5  and  C6_6 
REMARK    2  A    between atoms: C6_6  and  C7_7 
REMARK    3  A    between atoms: N17_17  and  C24_24 
REMARK    4  A    between atoms: C25_25  and  C20_32 
REMARK    5  A    between atoms: C27_27  and  C20_32 
REMARK    6  A    between atoms: C20_32  and  O34_35 
ROOT
HETATM    1  N1    D T1390      16.974  45.582  28.687  1.00 51.21    -0.308 N 
HETATM    2  N2    D T1390      15.163  42.825  27.049  1.00 51.21    -0.149 NA
HETATM    3  C3    D T1390      17.217  42.617  26.468  1.00 51.21     0.186 A 
HETATM    4  N4    D T1390      15.972  42.082  26.329  1.00 51.21    -0.129 NA
HETATM    5  C13   D T1390      15.791  43.814  27.649  1.00 51.21     0.104 A 
HETATM    6  C14   D T1390      17.093  43.743  27.326  1.00 51.21     0.055 A 
HETATM    7  C15   D T1390      17.942  44.803  27.925  1.00 51.21     0.136 A 
HETATM    8  C16   D T1390      15.627  44.996  28.554  1.00 51.21     0.152 A 
HETATM    9  C25   D T1390      17.195  46.759  29.465  1.00 51.21     0.266 C 
HETATM   10  O26   D T1390      16.275  47.319  30.053  1.00 51.21    -0.269 OA
ENDROOT
BRANCH   3  11
HETATM   11  N5    D T1390      18.246  42.014  25.806  1.00 51.21    -0.187 NA
HETATM   12  C6    D T1390      19.016  40.937  26.206  1.00 51.21     0.281 C 
HETATM   13  O8    D T1390      18.848  40.344  27.256  1.00 51.21    -0.265 OA
BRANCH  12  14
HETATM   14  C7    D T1390      20.125  40.486  25.268  1.00 51.21     0.058 A 
HETATM   15  C9    D T1390      21.457  40.251  25.688  1.00 51.21     0.006 A 
HETATM   16  C10   D T1390      22.458  39.832  24.769  1.00 51.21     0.011 A 
HETATM   17  C24   D T1390      22.176  39.620  23.364  1.00 51.21     0.037 A 
HETATM   18  C11   D T1390      20.805  39.866  22.963  1.00 51.21     0.011 A 
HETATM   19  C12   D T1390      19.817  40.282  23.880  1.00 51.21     0.006 A 
BRANCH  17  20
HETATM   20  N17   D T1390      23.167  39.198  22.364  1.00 51.21    -0.248 NA
HETATM   21  C18   D T1390      22.549  38.667  21.081  1.00 51.21     0.112 C 
HETATM   22  C19   D T1390      22.721  37.158  20.714  1.00 51.21     0.268 C 
HETATM   23  N20   D T1390      24.050  36.617  21.052  1.00 51.21     0.142 N 
HETATM   24  C21   D T1390      24.318  36.814  22.480  1.00 51.21     0.268 C 
HETATM   25  C23   D T1390      24.157  35.201  20.686  1.00 51.21     0.285 C 
HETATM   26  C22   D T1390      24.245  38.308  22.915  1.00 51.21     0.112 C 
ENDBRANCH  17  20
ENDBRANCH  12  14
ENDBRANCH   3  11
BRANCH   9  27
HETATM   27  C20   D T1390      18.684  47.364  29.517  1.00 51.21     0.216 C 
BRANCH  27  28
HETATM   28  C27   D T1390      18.893  48.306  28.308  1.00 51.21     0.014 A 
HETATM   29  C28   D T1390      20.183  48.781  27.953  1.00 51.21    -0.001 A 
HETATM   30  C31   D T1390      20.359  49.624  26.831  1.00 51.21    -0.000 A 
HETATM   31  C35   D T1390      19.243  50.010  26.039  1.00 51.21    -0.000 A 
HETATM   32  C33   D T1390      17.950  49.544  26.384  1.00 51.21    -0.000 A 
HETATM   33  C29   D T1390      17.780  48.705  27.502  1.00 51.21    -0.001 A 
ENDBRANCH  27  28
BRANCH  27  34
HETATM   34  O34   D T1390      18.806  48.076  30.784  1.00 51.21    -0.340 OA
HETATM   35  C36   D T1390      19.062  47.256  31.919  1.00 51.21     0.175 C 
ENDBRANCH  27  34
ENDBRANCH   9  27
TORSDOF 6
ENDMDL
MODEL 9
REMARK VINA RESULT:    -7.680      5.720     11.788
REMARK INTER + INTRA:         -10.426
REMARK INTER:                  -9.372
REMARK INTRA:                  -1.053
REMARK UNBOUND:                -0.051
REMARK  6 active torsions:
REMARK  status: ('A' for Active; 'I' for Inactive)
REMARK       I    between atoms: N1_1  and  C25_25 
REMARK    1  A    between atoms: C3_3  and  N5_5 
REMARK       I    between atoms: N5_5  and  C6_6 
REMARK    2  A    between atoms: C6_6  and  C7_7 
REMARK    3  A    between atoms: N17_17  and  C24_24 
REMARK    4  A    between atoms: C25_25  and  C20_32 
REMARK    5  A    between atoms: C27_27  and  C20_32 
REMARK    6  A    between atoms: C20_32  and  O34_35 
ROOT
HETATM    1  N1    D T1390      16.225  38.737  31.362  1.00 51.21    -0.308 N 
HETATM    2  N2    D T1390      17.674  42.112  31.078  1.00 51.21    -0.149 NA
HETATM    3  C3    D T1390      18.389  41.011  29.381  1.00 51.21     0.186 A 
HETATM    4  N4    D T1390      18.430  42.218  30.009  1.00 51.21    -0.129 NA
HETATM    5  C13   D T1390      17.141  40.914  31.196  1.00 51.21     0.104 A 
HETATM    6  C14   D T1390      17.550  40.166  30.158  1.00 51.21     0.055 A 
HETATM    7  C15   D T1390      17.034  38.774  30.150  1.00 51.21     0.136 A 
HETATM    8  C16   D T1390      16.254  40.048  32.036  1.00 51.21     0.152 A 
HETATM    9  C25   D T1390      15.490  37.640  31.907  1.00 51.21     0.266 C 
HETATM   10  O26   D T1390      14.854  37.752  32.950  1.00 51.21    -0.269 OA
ENDROOT
BRANCH   3  11
HETATM   11  N5    D T1390      19.105  40.868  28.229  1.00 51.21    -0.187 NA
HETATM   12  C6    D T1390      18.639  40.682  26.941  1.00 51.21     0.281 C 
HETATM   13  O8    D T1390      17.456  40.641  26.653  1.00 51.21    -0.265 OA
BRANCH  12  14
HETATM   14  C7    D T1390      19.676  40.526  25.839  1.00 51.21     0.058 A 
HETATM   15  C9    D T1390      19.367  40.594  24.459  1.00 51.21     0.006 A 
HETATM   16  C10   D T1390      20.375  40.438  23.469  1.00 51.21     0.011 A 
HETATM   17  C24   D T1390      21.764  40.208  23.809  1.00 51.21     0.037 A 
HETATM   18  C11   D T1390      22.052  40.145  25.229  1.00 51.21     0.011 A 
HETATM   19  C12   D T1390      21.047  40.300  26.206  1.00 51.21     0.006 A 
BRANCH  17  20
HETATM   20  N17   D T1390      22.848  40.030  22.833  1.00 51.21    -0.248 NA
HETATM   21  C18   D T1390      22.518  39.036  21.731  1.00 51.21     0.112 C 
HETATM   22  C19   D T1390      23.307  37.690  21.649  1.00 51.21     0.268 C 
HETATM   23  N20   D T1390      24.738  37.824  21.978  1.00 51.21     0.142 N 
HETATM   24  C21   D T1390      24.888  38.408  23.315  1.00 51.21     0.268 C 
HETATM   25  C23   D T1390      25.429  36.535  21.885  1.00 51.21     0.285 C 
HETATM   26  C22   D T1390      24.196  39.795  23.458  1.00 51.21     0.112 C 
ENDBRANCH  17  20
ENDBRANCH  12  14
ENDBRANCH   3  11
BRANCH   9  27
HETATM   27  C20   D T1390      15.553  36.229  31.139  1.00 51.21     0.216 C 
BRANCH  27  28
HETATM   28  C27   D T1390      15.674  35.088  32.177  1.00 51.21     0.014 A 
HETATM   29  C28   D T1390      14.576  34.241  32.478  1.00 51.21    -0.001 A 
HETATM   30  C31   D T1390      14.710  33.189  33.414  1.00 51.21    -0.000 A 
HETATM   31  C35   D T1390      15.952  32.963  34.068  1.00 51.21    -0.000 A 
HETATM   32  C33   D T1390      17.056  33.803  33.777  1.00 51.21    -0.000 A 
HETATM   33  C29   D T1390      16.917  34.849  32.846  1.00 51.21    -0.001 A 
ENDBRANCH  27  28
BRANCH  27  34
HETATM   34  O34   D T1390      14.329  36.120  30.356  1.00 51.21    -0.340 OA
HETATM   35  C36   D T1390      14.512  35.801  28.981  1.00 51.21     0.175 C 
ENDBRANCH  27  34
ENDBRANCH   9  27
TORSDOF 6
ENDMDL
