MODEL 1
REMARK VINA RESULT:    -9.063      0.000      0.000
REMARK INTER + INTRA:         -12.717
REMARK INTER:                 -12.242
REMARK INTRA:                  -0.474
REMARK UNBOUND:                -0.474
REMARK  6 active torsions:
REMARK  status: ('A' for Active; 'I' for Inactive)
REMARK    1  A    between atoms: NBF_3  and  CAN_4 
REMARK    2  A    between atoms: NBG_8  and  CAS_9 
REMARK    3  A    between atoms: CAS_9  and  CAX_10 
REMARK    4  A    between atoms: CAY_15  and  CBA_16 
REMARK    5  A    between atoms: NAV_25  and  CBE_26 
REMARK    6  A    between atoms: CBE_26  and  CAZ_28 
ROOT
HETATM    1  CBA   D T2021      10.557   2.617  -1.036  1.00 48.38     0.083 A 
HETATM    2  NAW   D T2021      10.755   3.380   0.028  1.00 46.46    -0.227 NA
HETATM    3  CAM   D T2021      10.762   1.350  -0.706  1.00 46.71     0.025 A 
HETATM    4  C5    D T2021      11.095   1.308   0.569  1.00 46.87     0.073 A 
HETATM    5  C4    D T2021      11.086   2.595   1.035  1.00 46.80     0.167 A 
HETATM    6  N3    D T2021      11.395   2.829   2.309  1.00 47.13    -0.205 NA
HETATM    7  C2    D T2021      11.702   1.839   3.120  1.00 45.54     0.202 A 
HETATM    8  N1    D T2021      11.717   0.593   2.704  1.00 45.28    -0.205 NA
HETATM    9  C6    D T2021      11.417   0.297   1.445  1.00 46.82     0.163 A 
HETATM   10  NAV   D T2021      11.439  -0.961   1.058  1.00 49.40    -0.250 NA
ENDROOT
BRANCH   1  11
HETATM   11  CAY   D T2021      10.184   3.072  -2.289  1.00 49.55     0.018 A 
HETATM   12  CAK   D T2021      10.382   2.271  -3.396  1.00 50.94     0.001 A 
HETATM   13  CAI   D T2021      10.023   2.720  -4.656  1.00 52.56    -0.002 A 
HETATM   14  CAX   D T2021       9.469   3.974  -4.810  1.00 54.24     0.011 A 
HETATM   15  CAJ   D T2021       9.271   4.773  -3.703  1.00 51.77    -0.002 A 
HETATM   16  CAL   D T2021       9.634   4.328  -2.444  1.00 50.18     0.001 A 
BRANCH  14  17
HETATM   17  CAS   D T2021       9.067   4.461  -6.197  1.00 59.34     0.277 C 
BRANCH  17  18
HETATM   18  NBG   D T2021       7.629   4.749  -6.182  1.00 64.50     0.146 N 
HETATM   19  CAQ   D T2021       6.807   3.543  -6.325  1.00 65.86     0.286 C 
HETATM   20  CAO   D T2021       6.850   3.034  -7.762  1.00 66.93     0.285 C 
HETATM   21  NBF   D T2021       6.406   4.082  -8.681  1.00 66.06     0.141 N 
HETATM   22  CAP   D T2021       7.335   5.203  -8.572  1.00 65.57     0.285 C 
HETATM   23  CAR   D T2021       7.262   5.774  -7.164  1.00 65.21     0.286 C 
BRANCH  21  24
HETATM   24  CAN   D T2021       5.050   4.516  -8.330  1.00 64.26     0.251 C 
HETATM   25  CAA   D T2021       4.222   4.673  -9.604  1.00 61.05     0.037 C 
ENDBRANCH  21  24
ENDBRANCH  17  18
ENDBRANCH  14  17
ENDBRANCH   1  11
BRANCH  10  26
HETATM   26  CBE   D T2021      12.015  -1.949   1.964  1.00 51.58     0.127 C 
HETATM   27  CAB   D T2021      13.415  -1.519   2.366  1.00 54.00     0.031 C 
BRANCH  26  28
HETATM   28  CAZ   D T2021      12.095  -3.289   1.268  1.00 51.45    -0.000 A 
HETATM   29  CAG   D T2021      11.775  -3.389  -0.069  1.00 51.44    -0.002 A 
HETATM   30  CAD   D T2021      11.847  -4.617  -0.702  1.00 51.45    -0.000 A 
HETATM   31  CAC   D T2021      12.237  -5.740   0.003  1.00 51.82    -0.000 A 
HETATM   32  CAE   D T2021      12.560  -5.636   1.340  1.00 50.90    -0.000 A 
HETATM   33  CAH   D T2021      12.489  -4.410   1.975  1.00 51.08    -0.002 A 
ENDBRANCH  26  28
ENDBRANCH  10  26
TORSDOF 6
ENDMDL
MODEL 2
REMARK VINA RESULT:    -8.619      5.397      7.769
REMARK INTER + INTRA:         -12.116
REMARK INTER:                 -10.839
REMARK INTRA:                  -1.277
REMARK UNBOUND:                -0.474
REMARK  6 active torsions:
REMARK  status: ('A' for Active; 'I' for Inactive)
REMARK    1  A    between atoms: NBF_3  and  CAN_4 
REMARK    2  A    between atoms: NBG_8  and  CAS_9 
REMARK    3  A    between atoms: CAS_9  and  CAX_10 
REMARK    4  A    between atoms: CAY_15  and  CBA_16 
REMARK    5  A    between atoms: NAV_25  and  CBE_26 
REMARK    6  A    between atoms: CBE_26  and  CAZ_28 
ROOT
HETATM    1  CBA   D T2021       9.301   5.316  -0.951  1.00 48.38     0.083 A 
HETATM    2  NAW   D T2021       9.039   4.702   0.192  1.00 46.46    -0.227 NA
HETATM    3  CAM   D T2021       9.947   6.445  -0.700  1.00 46.71     0.025 A 
HETATM    4  C5    D T2021      10.092   6.551   0.606  1.00 46.87     0.073 A 
HETATM    5  C4    D T2021       9.520   5.445   1.171  1.00 46.80     0.167 A 
HETATM    6  N3    D T2021       9.530   5.310   2.496  1.00 47.13    -0.205 NA
HETATM    7  C2    D T2021      10.085   6.226   3.262  1.00 45.54     0.202 A 
HETATM    8  N1    D T2021      10.645   7.298   2.749  1.00 45.28    -0.205 NA
HETATM    9  C6    D T2021      10.667   7.487   1.435  1.00 46.82     0.163 A 
HETATM   10  NAV   D T2021      11.237   8.571   0.952  1.00 49.40    -0.250 NA
ENDROOT
BRANCH   1  11
HETATM   11  CAY   D T2021       8.964   4.844  -2.208  1.00 49.55     0.018 A 
HETATM   12  CAK   D T2021       7.793   4.132  -2.382  1.00 50.94     0.001 A 
HETATM   13  CAI   D T2021       7.450   3.646  -3.632  1.00 52.56    -0.002 A 
HETATM   14  CAX   D T2021       8.283   3.866  -4.710  1.00 54.24     0.011 A 
HETATM   15  CAJ   D T2021       9.452   4.577  -4.536  1.00 51.77    -0.002 A 
HETATM   16  CAL   D T2021       9.798   5.060  -3.285  1.00 50.18     0.001 A 
BRANCH  14  17
HETATM   17  CAS   D T2021       7.898   3.337  -6.087  1.00 59.34     0.277 C 
BRANCH  17  18
HETATM   18  NBG   D T2021       6.528   3.768  -6.377  1.00 64.50     0.146 N 
HETATM   19  CAQ   D T2021       5.786   2.798  -7.190  1.00 65.86     0.286 C 
HETATM   20  CAO   D T2021       6.271   2.832  -8.635  1.00 66.93     0.285 C 
HETATM   21  NBF   D T2021       6.135   4.183  -9.181  1.00 66.06     0.141 N 
HETATM   22  CAP   D T2021       6.989   5.073  -8.399  1.00 65.57     0.285 C 
HETATM   23  CAR   D T2021       6.486   5.112  -6.965  1.00 65.21     0.286 C 
BRANCH  21  24
HETATM   24  CAN   D T2021       4.739   4.621  -9.096  1.00 64.26     0.251 C 
HETATM   25  CAA   D T2021       4.060   4.416 -10.449  1.00 61.05     0.037 C 
ENDBRANCH  21  24
ENDBRANCH  17  18
ENDBRANCH  14  17
ENDBRANCH   1  11
BRANCH  10  26
HETATM   26  CBE   D T2021      11.611   9.627   1.887  1.00 51.58     0.127 C 
HETATM   27  CAB   D T2021      10.869  10.906   1.537  1.00 54.00     0.031 C 
BRANCH  26  28
HETATM   28  CAZ   D T2021      13.097   9.883   1.795  1.00 51.45    -0.000 A 
HETATM   29  CAG   D T2021      13.983   8.998   2.372  1.00 51.44    -0.002 A 
HETATM   30  CAD   D T2021      15.344   9.236   2.289  1.00 51.45    -0.000 A 
HETATM   31  CAC   D T2021      15.814  10.356   1.631  1.00 51.82    -0.000 A 
HETATM   32  CAE   D T2021      14.925  11.239   1.051  1.00 50.90    -0.000 A 
HETATM   33  CAH   D T2021      13.565  11.003   1.132  1.00 51.08    -0.002 A 
ENDBRANCH  26  28
ENDBRANCH  10  26
TORSDOF 6
ENDMDL
MODEL 3
REMARK VINA RESULT:    -8.605      4.948     11.479
REMARK INTER + INTRA:         -12.098
REMARK INTER:                 -10.884
REMARK INTRA:                  -1.214
REMARK UNBOUND:                -0.474
REMARK  6 active torsions:
REMARK  status: ('A' for Active; 'I' for Inactive)
REMARK    1  A    between atoms: NBF_3  and  CAN_4 
REMARK    2  A    between atoms: NBG_8  and  CAS_9 
REMARK    3  A    between atoms: CAS_9  and  CAX_10 
REMARK    4  A    between atoms: CAY_15  and  CBA_16 
REMARK    5  A    between atoms: NAV_25  and  CBE_26 
REMARK    6  A    between atoms: CBE_26  and  CAZ_28 
ROOT
HETATM    1  CBA   D T2021      11.878   5.895  -0.172  1.00 48.38     0.083 A 
HETATM    2  NAW   D T2021      13.098   6.340  -0.431  1.00 46.46    -0.227 NA
HETATM    3  CAM   D T2021      11.030   6.913  -0.199  1.00 46.71     0.025 A 
HETATM    4  C5    D T2021      11.713   8.007  -0.472  1.00 46.87     0.073 A 
HETATM    5  C4    D T2021      13.023   7.643  -0.623  1.00 46.80     0.167 A 
HETATM    6  N3    D T2021      13.931   8.576  -0.903  1.00 47.13    -0.205 NA
HETATM    7  C2    D T2021      13.581   9.837  -1.038  1.00 45.54     0.202 A 
HETATM    8  N1    D T2021      12.330  10.219  -0.902  1.00 45.28    -0.205 NA
HETATM    9  C6    D T2021      11.381   9.334  -0.624  1.00 46.82     0.163 A 
HETATM   10  NAV   D T2021      10.137   9.746  -0.495  1.00 49.40    -0.250 NA
ENDROOT
BRANCH   1  11
HETATM   11  CAY   D T2021      11.543   4.575   0.075  1.00 49.55     0.018 A 
HETATM   12  CAK   D T2021      10.509   4.280   0.941  1.00 50.94     0.001 A 
HETATM   13  CAI   D T2021      10.171   2.963   1.204  1.00 52.56    -0.002 A 
HETATM   14  CAX   D T2021      10.875   1.938   0.606  1.00 54.24     0.011 A 
HETATM   15  CAJ   D T2021      11.908   2.233  -0.259  1.00 51.77    -0.002 A 
HETATM   16  CAL   D T2021      12.249   3.549  -0.520  1.00 50.18     0.001 A 
BRANCH  14  17
HETATM   17  CAS   D T2021      10.496   0.490   0.891  1.00 59.34     0.277 C 
BRANCH  17  18
HETATM   18  NBG   D T2021      11.731  -0.279   1.074  1.00 64.50     0.146 N 
HETATM   19  CAQ   D T2021      11.696  -1.581   0.399  1.00 65.86     0.286 C 
HETATM   20  CAO   D T2021      10.794  -2.550   1.156  1.00 66.93     0.285 C 
HETATM   21  NBF   D T2021      11.252  -2.690   2.538  1.00 66.06     0.141 N 
HETATM   22  CAP   D T2021      11.150  -1.385   3.182  1.00 65.57     0.285 C 
HETATM   23  CAR   D T2021      12.092  -0.412   2.490  1.00 65.21     0.286 C 
BRANCH  21  24
HETATM   24  CAN   D T2021      12.642  -3.156   2.561  1.00 64.26     0.251 C 
HETATM   25  CAA   D T2021      12.706  -4.591   2.042  1.00 61.05     0.037 C 
ENDBRANCH  21  24
ENDBRANCH  17  18
ENDBRANCH  14  17
ENDBRANCH   1  11
BRANCH  10  26
HETATM   26  CBE   D T2021       9.891  11.182  -0.432  1.00 51.58     0.127 C 
HETATM   27  CAB   D T2021       9.595  11.589   1.001  1.00 54.00     0.031 C 
BRANCH  26  28
HETATM   28  CAZ   D T2021       8.701  11.532  -1.296  1.00 51.45    -0.000 A 
HETATM   29  CAG   D T2021       8.481  10.847  -2.472  1.00 51.44    -0.002 A 
HETATM   30  CAD   D T2021       7.392  11.171  -3.261  1.00 51.45    -0.000 A 
HETATM   31  CAC   D T2021       6.528  12.178  -2.875  1.00 51.82    -0.000 A 
HETATM   32  CAE   D T2021       6.750  12.860  -1.695  1.00 50.90    -0.000 A 
HETATM   33  CAH   D T2021       7.836  12.538  -0.904  1.00 51.08    -0.002 A 
ENDBRANCH  26  28
ENDBRANCH  10  26
TORSDOF 6
ENDMDL
MODEL 4
REMARK VINA RESULT:    -8.583      5.155      9.914
REMARK INTER + INTRA:         -12.068
REMARK INTER:                 -11.749
REMARK INTRA:                  -0.319
REMARK UNBOUND:                -0.474
REMARK  6 active torsions:
REMARK  status: ('A' for Active; 'I' for Inactive)
REMARK    1  A    between atoms: NBF_3  and  CAN_4 
REMARK    2  A    between atoms: NBG_8  and  CAS_9 
REMARK    3  A    between atoms: CAS_9  and  CAX_10 
REMARK    4  A    between atoms: CAY_15  and  CBA_16 
REMARK    5  A    between atoms: NAV_25  and  CBE_26 
REMARK    6  A    between atoms: CBE_26  and  CAZ_28 
ROOT
HETATM    1  CBA   D T2021       8.743   3.569  -3.440  1.00 48.38     0.083 A 
HETATM    2  NAW   D T2021       9.178   2.354  -3.144  1.00 46.46    -0.227 NA
HETATM    3  CAM   D T2021       7.921   3.496  -4.477  1.00 46.71     0.025 A 
HETATM    4  C5    D T2021       7.837   2.233  -4.844  1.00 46.87     0.073 A 
HETATM    5  C4    D T2021       8.630   1.508  -3.997  1.00 46.80     0.167 A 
HETATM    6  N3    D T2021       8.723   0.190  -4.158  1.00 47.13    -0.205 NA
HETATM    7  C2    D T2021       8.059  -0.419  -5.118  1.00 45.54     0.202 A 
HETATM    8  N1    D T2021       7.287   0.248  -5.945  1.00 45.28    -0.205 NA
HETATM    9  C6    D T2021       7.154   1.564  -5.833  1.00 46.82     0.163 A 
HETATM   10  NAV   D T2021       6.372   2.204  -6.677  1.00 49.40    -0.250 NA
ENDROOT
BRANCH   1  11
HETATM   11  CAY   D T2021       9.085   4.727  -2.763  1.00 49.55     0.018 A 
HETATM   12  CAK   D T2021       8.496   5.010  -1.547  1.00 50.94     0.001 A 
HETATM   13  CAI   D T2021       8.822   6.170  -0.865  1.00 52.56    -0.002 A 
HETATM   14  CAX   D T2021       9.733   7.054  -1.405  1.00 54.24     0.011 A 
HETATM   15  CAJ   D T2021      10.321   6.772  -2.621  1.00 51.77    -0.002 A 
HETATM   16  CAL   D T2021       9.993   5.614  -3.305  1.00 50.18     0.001 A 
BRANCH  14  17
HETATM   17  CAS   D T2021      10.096   8.327  -0.649  1.00 59.34     0.277 C 
BRANCH  17  18
HETATM   18  NBG   D T2021       8.950   9.239  -0.711  1.00 64.50     0.146 N 
HETATM   19  CAQ   D T2021       8.963  10.089  -1.907  1.00 65.86     0.286 C 
HETATM   20  CAO   D T2021      10.023  11.178  -1.774  1.00 66.93     0.285 C 
HETATM   21  NBF   D T2021       9.781  11.973  -0.570  1.00 66.06     0.141 N 
HETATM   22  CAP   D T2021       9.899  11.089   0.586  1.00 65.57     0.285 C 
HETATM   23  CAR   D T2021       8.809  10.031   0.515  1.00 65.21     0.286 C 
BRANCH  21  24
HETATM   24  CAN   D T2021       8.441  12.563  -0.618  1.00 64.26     0.251 C 
HETATM   25  CAA   D T2021       8.448  13.901   0.121  1.00 61.05     0.037 C 
ENDBRANCH  21  24
ENDBRANCH  17  18
ENDBRANCH  14  17
ENDBRANCH   1  11
BRANCH  10  26
HETATM   26  CBE   D T2021       5.871   1.477  -7.838  1.00 51.58     0.127 C 
HETATM   27  CAB   D T2021       7.022   0.779  -8.541  1.00 54.00     0.031 C 
BRANCH  26  28
HETATM   28  CAZ   D T2021       5.223   2.445  -8.802  1.00 51.45    -0.000 A 
HETATM   29  CAG   D T2021       4.255   1.999  -9.675  1.00 51.44    -0.002 A 
HETATM   30  CAD   D T2021       3.666   2.887 -10.559  1.00 51.45    -0.000 A 
HETATM   31  CAC   D T2021       4.047   4.215 -10.567  1.00 51.82    -0.000 A 
HETATM   32  CAE   D T2021       5.015   4.659  -9.689  1.00 50.90    -0.000 A 
HETATM   33  CAH   D T2021       5.605   3.774  -8.805  1.00 51.08    -0.002 A 
ENDBRANCH  26  28
ENDBRANCH  10  26
TORSDOF 6
ENDMDL
MODEL 5
REMARK VINA RESULT:    -8.455      6.756      9.753
REMARK INTER + INTRA:         -11.895
REMARK INTER:                 -10.761
REMARK INTRA:                  -1.134
REMARK UNBOUND:                -0.474
REMARK  6 active torsions:
REMARK  status: ('A' for Active; 'I' for Inactive)
REMARK    1  A    between atoms: NBF_3  and  CAN_4 
REMARK    2  A    between atoms: NBG_8  and  CAS_9 
REMARK    3  A    between atoms: CAS_9  and  CAX_10 
REMARK    4  A    between atoms: CAY_15  and  CBA_16 
REMARK    5  A    between atoms: NAV_25  and  CBE_26 
REMARK    6  A    between atoms: CBE_26  and  CAZ_28 
ROOT
HETATM    1  CBA   D T2021       9.167   7.615  -0.605  1.00 48.38     0.083 A 
HETATM    2  NAW   D T2021       9.262   6.802   0.436  1.00 46.46    -0.227 NA
HETATM    3  CAM   D T2021       9.045   6.893  -1.710  1.00 46.71     0.025 A 
HETATM    4  C5    D T2021       9.067   5.619  -1.371  1.00 46.87     0.073 A 
HETATM    5  C4    D T2021       9.201   5.562  -0.011  1.00 46.80     0.167 A 
HETATM    6  N3    D T2021       9.254   4.374   0.589  1.00 47.13    -0.205 NA
HETATM    7  C2    D T2021       9.175   3.262  -0.110  1.00 45.54     0.202 A 
HETATM    8  N1    D T2021       9.043   3.284  -1.418  1.00 45.28    -0.205 NA
HETATM    9  C6    D T2021       8.984   4.438  -2.071  1.00 46.82     0.163 A 
HETATM   10  NAV   D T2021       8.850   4.428  -3.381  1.00 49.40    -0.250 NA
ENDROOT
BRANCH   1  11
HETATM   11  CAY   D T2021       9.179   8.997  -0.544  1.00 49.55     0.018 A 
HETATM   12  CAK   D T2021       9.159   9.630   0.683  1.00 50.94     0.001 A 
HETATM   13  CAI   D T2021       9.160  11.013   0.757  1.00 52.56    -0.002 A 
HETATM   14  CAX   D T2021       9.176  11.765  -0.399  1.00 54.24     0.011 A 
HETATM   15  CAJ   D T2021       9.197  11.133  -1.625  1.00 51.77    -0.002 A 
HETATM   16  CAL   D T2021       9.191   9.750  -1.700  1.00 50.18     0.001 A 
BRANCH  14  17
HETATM   17  CAS   D T2021       9.186  13.287  -0.315  1.00 59.34     0.277 C 
BRANCH  17  18
HETATM   18  NBG   D T2021       7.892  13.725   0.216  1.00 64.50     0.146 N 
HETATM   19  CAQ   D T2021       6.860  13.837  -0.821  1.00 65.86     0.286 C 
HETATM   20  CAO   D T2021       7.103  15.073  -1.682  1.00 66.93     0.285 C 
HETATM   21  NBF   D T2021       7.136  16.272  -0.845  1.00 66.06     0.141 N 
HETATM   22  CAP   D T2021       8.255  16.144   0.083  1.00 65.57     0.285 C 
HETATM   23  CAR   D T2021       8.008  14.958   1.001  1.00 65.21     0.286 C 
BRANCH  21  24
HETATM   24  CAN   D T2021       5.879  16.401  -0.103  1.00 64.26     0.251 C 
HETATM   25  CAA   D T2021       4.807  16.993  -1.017  1.00 61.05     0.037 C 
ENDBRANCH  21  24
ENDBRANCH  17  18
ENDBRANCH  14  17
ENDBRANCH   1  11
BRANCH  10  26
HETATM   26  CBE   D T2021       9.007   3.156  -4.078  1.00 51.58     0.127 C 
HETATM   27  CAB   D T2021      10.449   2.993  -4.528  1.00 54.00     0.031 C 
BRANCH  26  28
HETATM   28  CAZ   D T2021       8.109   3.130  -5.294  1.00 51.45    -0.000 A 
HETATM   29  CAG   D T2021       7.142   2.154  -5.413  1.00 51.44    -0.002 A 
HETATM   30  CAD   D T2021       6.324   2.131  -6.528  1.00 51.45    -0.000 A 
HETATM   31  CAC   D T2021       6.474   3.082  -7.520  1.00 51.82    -0.000 A 
HETATM   32  CAE   D T2021       7.441   4.059  -7.397  1.00 50.90    -0.000 A 
HETATM   33  CAH   D T2021       8.260   4.084  -6.284  1.00 51.08    -0.002 A 
ENDBRANCH  26  28
ENDBRANCH  10  26
TORSDOF 6
ENDMDL
MODEL 6
REMARK VINA RESULT:    -8.434      4.923     10.354
REMARK INTER + INTRA:         -11.866
REMARK INTER:                 -11.402
REMARK INTRA:                  -0.464
REMARK UNBOUND:                -0.474
REMARK  6 active torsions:
REMARK  status: ('A' for Active; 'I' for Inactive)
REMARK    1  A    between atoms: NBF_3  and  CAN_4 
REMARK    2  A    between atoms: NBG_8  and  CAS_9 
REMARK    3  A    between atoms: CAS_9  and  CAX_10 
REMARK    4  A    between atoms: CAY_15  and  CBA_16 
REMARK    5  A    between atoms: NAV_25  and  CBE_26 
REMARK    6  A    between atoms: CBE_26  and  CAZ_28 
ROOT
HETATM    1  CBA   D T2021       9.219   3.288  -3.696  1.00 48.38     0.083 A 
HETATM    2  NAW   D T2021       9.544   2.033  -3.424  1.00 46.46    -0.227 NA
HETATM    3  CAM   D T2021       8.351   3.305  -4.697  1.00 46.71     0.025 A 
HETATM    4  C5    D T2021       8.126   2.059  -5.064  1.00 46.87     0.073 A 
HETATM    5  C4    D T2021       8.879   1.253  -4.255  1.00 46.80     0.167 A 
HETATM    6  N3    D T2021       8.834  -0.067  -4.425  1.00 47.13    -0.205 NA
HETATM    7  C2    D T2021       8.073  -0.600  -5.357  1.00 45.54     0.202 A 
HETATM    8  N1    D T2021       7.336   0.146  -6.149  1.00 45.28    -0.205 NA
HETATM    9  C6    D T2021       7.339   1.468  -6.026  1.00 46.82     0.163 A 
HETATM   10  NAV   D T2021       6.589   2.190  -6.833  1.00 49.40    -0.250 NA
ENDROOT
BRANCH   1  11
HETATM   11  CAY   D T2021       9.702   4.401  -3.031  1.00 49.55     0.018 A 
HETATM   12  CAK   D T2021       9.858   5.592  -3.711  1.00 50.94     0.001 A 
HETATM   13  CAI   D T2021      10.351   6.711  -3.059  1.00 52.56    -0.002 A 
HETATM   14  CAX   D T2021      10.695   6.636  -1.725  1.00 54.24     0.011 A 
HETATM   15  CAJ   D T2021      10.538   5.445  -1.046  1.00 51.77    -0.002 A 
HETATM   16  CAL   D T2021      10.050   4.326  -1.698  1.00 50.18     0.001 A 
BRANCH  14  17
HETATM   17  CAS   D T2021      11.229   7.870  -1.008  1.00 59.34     0.277 C 
BRANCH  17  18
HETATM   18  NBG   D T2021      12.439   7.486  -0.276  1.00 64.50     0.146 N 
HETATM   19  CAQ   D T2021      12.562   8.167   1.018  1.00 65.86     0.286 C 
HETATM   20  CAO   D T2021      12.956   9.627   0.817  1.00 66.93     0.285 C 
HETATM   21  NBF   D T2021      14.205   9.712   0.061  1.00 66.06     0.141 N 
HETATM   22  CAP   D T2021      13.978   9.122  -1.255  1.00 65.57     0.285 C 
HETATM   23  CAR   D T2021      13.649   7.647  -1.090  1.00 65.21     0.286 C 
BRANCH  21  24
HETATM   24  CAN   D T2021      15.267   8.984   0.762  1.00 64.26     0.251 C 
HETATM   25  CAA   D T2021      15.687   9.769   2.003  1.00 61.05     0.037 C 
ENDBRANCH  21  24
ENDBRANCH  17  18
ENDBRANCH  14  17
ENDBRANCH   1  11
BRANCH  10  26
HETATM   26  CBE   D T2021       5.969   1.525  -7.974  1.00 51.58     0.127 C 
HETATM   27  CAB   D T2021       7.032   0.802  -8.784  1.00 54.00     0.031 C 
BRANCH  26  28
HETATM   28  CAZ   D T2021       5.295   2.551  -8.855  1.00 51.45    -0.000 A 
HETATM   29  CAG   D T2021       4.314   2.159  -9.739  1.00 51.44    -0.002 A 
HETATM   30  CAD   D T2021       3.700   3.101 -10.546  1.00 51.45    -0.000 A 
HETATM   31  CAC   D T2021       4.070   4.430 -10.468  1.00 51.82    -0.000 A 
HETATM   32  CAE   D T2021       5.052   4.820  -9.579  1.00 50.90    -0.000 A 
HETATM   33  CAH   D T2021       5.666   3.882  -8.771  1.00 51.08    -0.002 A 
ENDBRANCH  26  28
ENDBRANCH  10  26
TORSDOF 6
ENDMDL
MODEL 7
REMARK VINA RESULT:    -8.382      1.681     10.328
REMARK INTER + INTRA:         -11.796
REMARK INTER:                 -11.053
REMARK INTRA:                  -0.744
REMARK UNBOUND:                -0.474
REMARK  6 active torsions:
REMARK  status: ('A' for Active; 'I' for Inactive)
REMARK    1  A    between atoms: NBF_3  and  CAN_4 
REMARK    2  A    between atoms: NBG_8  and  CAS_9 
REMARK    3  A    between atoms: CAS_9  and  CAX_10 
REMARK    4  A    between atoms: CAY_15  and  CBA_16 
REMARK    5  A    between atoms: NAV_25  and  CBE_26 
REMARK    6  A    between atoms: CBE_26  and  CAZ_28 
ROOT
HETATM    1  CBA   D T2021       9.876   3.407  -2.559  1.00 48.38     0.083 A 
HETATM    2  NAW   D T2021      10.318   4.650  -2.677  1.00 46.46    -0.227 NA
HETATM    3  CAM   D T2021       9.131   3.109  -3.614  1.00 46.71     0.025 A 
HETATM    4  C5    D T2021       9.096   4.165  -4.401  1.00 46.87     0.073 A 
HETATM    5  C4    D T2021       9.852   5.140  -3.810  1.00 46.80     0.167 A 
HETATM    6  N3    D T2021       9.977   6.322  -4.410  1.00 47.13    -0.205 NA
HETATM    7  C2    D T2021       9.386   6.559  -5.562  1.00 45.54     0.202 A 
HETATM    8  N1    D T2021       8.656   5.642  -6.157  1.00 45.28    -0.205 NA
HETATM    9  C6    D T2021       8.496   4.444  -5.608  1.00 46.82     0.163 A 
HETATM   10  NAV   D T2021       7.760   3.547  -6.229  1.00 49.40    -0.250 NA
ENDROOT
BRANCH   1  11
HETATM   11  CAY   D T2021      10.159   2.554  -1.506  1.00 49.55     0.018 A 
HETATM   12  CAK   D T2021      11.472   2.310  -1.155  1.00 50.94     0.001 A 
HETATM   13  CAI   D T2021      11.768   1.450  -0.111  1.00 52.56    -0.002 A 
HETATM   14  CAX   D T2021      10.749   0.828   0.580  1.00 54.24     0.011 A 
HETATM   15  CAJ   D T2021       9.437   1.072   0.229  1.00 51.77    -0.002 A 
HETATM   16  CAL   D T2021       9.140   1.928  -0.817  1.00 50.18     0.001 A 
BRANCH  14  17
HETATM   17  CAS   D T2021      11.077  -0.112   1.734  1.00 59.34     0.277 C 
BRANCH  17  18
HETATM   18  NBG   D T2021      12.100  -1.058   1.278  1.00 64.50     0.146 N 
HETATM   19  CAQ   D T2021      11.568  -2.075   0.365  1.00 65.86     0.286 C 
HETATM   20  CAO   D T2021      10.738  -3.099   1.134  1.00 66.93     0.285 C 
HETATM   21  NBF   D T2021      11.546  -3.713   2.187  1.00 66.06     0.141 N 
HETATM   22  CAP   D T2021      11.943  -2.664   3.121  1.00 65.57     0.285 C 
HETATM   23  CAR   D T2021      12.829  -1.663   2.398  1.00 65.21     0.286 C 
BRANCH  21  24
HETATM   24  CAN   D T2021      12.733  -4.345   1.605  1.00 64.26     0.251 C 
HETATM   25  CAA   D T2021      12.321  -5.617   0.865  1.00 61.05     0.037 C 
ENDBRANCH  21  24
ENDBRANCH  17  18
ENDBRANCH  14  17
ENDBRANCH   1  11
BRANCH  10  26
HETATM   26  CBE   D T2021       6.965   3.980  -7.372  1.00 51.58     0.127 C 
HETATM   27  CAB   D T2021       5.878   4.935  -6.908  1.00 54.00     0.031 C 
BRANCH  26  28
HETATM   28  CAZ   D T2021       6.317   2.781  -8.024  1.00 51.45    -0.000 A 
HETATM   29  CAG   D T2021       5.443   2.959  -9.075  1.00 51.44    -0.002 A 
HETATM   30  CAD   D T2021       4.849   1.859  -9.668  1.00 51.45    -0.000 A 
HETATM   31  CAC   D T2021       5.130   0.586  -9.210  1.00 51.82    -0.000 A 
HETATM   32  CAE   D T2021       6.007   0.410  -8.159  1.00 50.90    -0.000 A 
HETATM   33  CAH   D T2021       6.602   1.508  -7.565  1.00 51.08    -0.002 A 
ENDBRANCH  26  28
ENDBRANCH  10  26
TORSDOF 6
ENDMDL
MODEL 8
REMARK VINA RESULT:    -8.075      8.852     14.300
REMARK INTER + INTRA:         -11.382
REMARK INTER:                 -10.153
REMARK INTRA:                  -1.229
REMARK UNBOUND:                -0.474
REMARK  6 active torsions:
REMARK  status: ('A' for Active; 'I' for Inactive)
REMARK    1  A    between atoms: NBF_3  and  CAN_4 
REMARK    2  A    between atoms: NBG_8  and  CAS_9 
REMARK    3  A    between atoms: CAS_9  and  CAX_10 
REMARK    4  A    between atoms: CAY_15  and  CBA_16 
REMARK    5  A    between atoms: NAV_25  and  CBE_26 
REMARK    6  A    between atoms: CBE_26  and  CAZ_28 
ROOT
HETATM    1  CBA   D T2021       8.926  11.725  -0.035  1.00 48.38     0.083 A 
HETATM    2  NAW   D T2021       9.512  12.264   1.023  1.00 46.46    -0.227 NA
HETATM    3  CAM   D T2021       8.253  12.664  -0.684  1.00 46.71     0.025 A 
HETATM    4  C5    D T2021       8.409  13.801  -0.036  1.00 46.87     0.073 A 
HETATM    5  C4    D T2021       9.210  13.548   1.044  1.00 46.80     0.167 A 
HETATM    6  N3    D T2021       9.520  14.543   1.873  1.00 47.13    -0.205 NA
HETATM    7  C2    D T2021       9.068  15.761   1.662  1.00 45.54     0.202 A 
HETATM    8  N1    D T2021       8.299  16.037   0.633  1.00 45.28    -0.205 NA
HETATM    9  C6    D T2021       7.957  15.086  -0.229  1.00 46.82     0.163 A 
HETATM   10  NAV   D T2021       7.186  15.394  -1.251  1.00 49.40    -0.250 NA
ENDROOT
BRANCH   1  11
HETATM   11  CAY   D T2021       9.014  10.395  -0.407  1.00 49.55     0.018 A 
HETATM   12  CAK   D T2021       8.894   9.406   0.549  1.00 50.94     0.001 A 
HETATM   13  CAI   D T2021       8.991   8.072   0.190  1.00 52.56    -0.002 A 
HETATM   14  CAX   D T2021       9.216   7.726  -1.127  1.00 54.24     0.011 A 
HETATM   15  CAJ   D T2021       9.336   8.715  -2.081  1.00 51.77    -0.002 A 
HETATM   16  CAL   D T2021       9.243  10.049  -1.723  1.00 50.18     0.001 A 
BRANCH  14  17
HETATM   17  CAS   D T2021       9.314   6.257  -1.520  1.00 59.34     0.277 C 
BRANCH  17  18
HETATM   18  NBG   D T2021       9.740   5.495  -0.342  1.00 64.50     0.146 N 
HETATM   19  CAQ   D T2021      11.134   5.048  -0.427  1.00 65.86     0.286 C 
HETATM   20  CAO   D T2021      11.264   3.893  -1.416  1.00 66.93     0.285 C 
HETATM   21  NBF   D T2021      10.385   2.792  -1.023  1.00 66.06     0.141 N 
HETATM   22  CAP   D T2021       9.008   3.274  -1.073  1.00 65.57     0.285 C 
HETATM   23  CAR   D T2021       8.831   4.382  -0.047  1.00 65.21     0.286 C 
BRANCH  21  24
HETATM   24  CAN   D T2021      10.713   2.346   0.334  1.00 64.26     0.251 C 
HETATM   25  CAA   D T2021      10.402   0.857   0.468  1.00 61.05     0.037 C 
ENDBRANCH  21  24
ENDBRANCH  17  18
ENDBRANCH  14  17
ENDBRANCH   1  11
BRANCH  10  26
HETATM   26  CBE   D T2021       6.553  16.708  -1.265  1.00 51.58     0.127 C 
HETATM   27  CAB   D T2021       5.060  16.559  -1.023  1.00 54.00     0.031 C 
BRANCH  26  28
HETATM   28  CAZ   D T2021       6.769  17.361  -2.611  1.00 51.45    -0.000 A 
HETATM   29  CAG   D T2021       7.708  16.850  -3.479  1.00 51.44    -0.002 A 
HETATM   30  CAD   D T2021       7.905  17.452  -4.710  1.00 51.45    -0.000 A 
HETATM   31  CAC   D T2021       7.164  18.562  -5.067  1.00 51.82    -0.000 A 
HETATM   32  CAE   D T2021       6.222  19.070  -4.196  1.00 50.90    -0.000 A 
HETATM   33  CAH   D T2021       6.022  18.470  -2.966  1.00 51.08    -0.002 A 
ENDBRANCH  26  28
ENDBRANCH  10  26
TORSDOF 6
ENDMDL
MODEL 9
REMARK VINA RESULT:    -8.027      6.556     10.863
REMARK INTER + INTRA:         -11.317
REMARK INTER:                 -10.376
REMARK INTRA:                  -0.942
REMARK UNBOUND:                -0.474
REMARK  6 active torsions:
REMARK  status: ('A' for Active; 'I' for Inactive)
REMARK    1  A    between atoms: NBF_3  and  CAN_4 
REMARK    2  A    between atoms: NBG_8  and  CAS_9 
REMARK    3  A    between atoms: CAS_9  and  CAX_10 
REMARK    4  A    between atoms: CAY_15  and  CBA_16 
REMARK    5  A    between atoms: NAV_25  and  CBE_26 
REMARK    6  A    between atoms: CBE_26  and  CAZ_28 
ROOT
HETATM    1  CBA   D T2021      10.546   8.029  -1.318  1.00 48.38     0.083 A 
HETATM    2  NAW   D T2021      11.841   8.179  -1.087  1.00 46.46    -0.227 NA
HETATM    3  CAM   D T2021       9.918   9.159  -1.027  1.00 46.71     0.025 A 
HETATM    4  C5    D T2021      10.816  10.028  -0.606  1.00 46.87     0.073 A 
HETATM    5  C4    D T2021      12.035   9.407  -0.648  1.00 46.80     0.167 A 
HETATM    6  N3    D T2021      13.120  10.077  -0.265  1.00 47.13    -0.205 NA
HETATM    7  C2    D T2021      13.032  11.323   0.148  1.00 45.54     0.202 A 
HETATM    8  N1    D T2021      11.877  11.948   0.197  1.00 45.28    -0.205 NA
HETATM    9  C6    D T2021      10.760  11.333  -0.173  1.00 46.82     0.163 A 
HETATM   10  NAV   D T2021       9.618  11.985  -0.114  1.00 49.40    -0.250 NA
ENDROOT
BRANCH   1  11
HETATM   11  CAY   D T2021       9.947   6.877  -1.800  1.00 49.55     0.018 A 
HETATM   12  CAK   D T2021      10.315   6.377  -3.033  1.00 50.94     0.001 A 
HETATM   13  CAI   D T2021       9.716   5.232  -3.530  1.00 52.56    -0.002 A 
HETATM   14  CAX   D T2021       8.741   4.588  -2.795  1.00 54.24     0.011 A 
HETATM   15  CAJ   D T2021       8.374   5.089  -1.562  1.00 51.77    -0.002 A 
HETATM   16  CAL   D T2021       8.970   6.236  -1.067  1.00 50.18     0.001 A 
BRANCH  14  17
HETATM   17  CAS   D T2021       8.089   3.324  -3.340  1.00 59.34     0.277 C 
BRANCH  17  18
HETATM   18  NBG   D T2021       8.323   3.276  -4.787  1.00 64.50     0.146 N 
HETATM   19  CAQ   D T2021       7.191   3.793  -5.563  1.00 65.86     0.286 C 
HETATM   20  CAO   D T2021       6.038   2.794  -5.557  1.00 66.93     0.285 C 
HETATM   21  NBF   D T2021       6.487   1.505  -6.082  1.00 66.06     0.141 N 
HETATM   22  CAP   D T2021       7.530   0.994  -5.198  1.00 65.57     0.285 C 
HETATM   23  CAR   D T2021       8.721   1.938  -5.237  1.00 65.21     0.286 C 
BRANCH  21  24
HETATM   24  CAN   D T2021       7.015   1.672  -7.439  1.00 64.26     0.251 C 
HETATM   25  CAA   D T2021       6.705   0.422  -8.262  1.00 61.05     0.037 C 
ENDBRANCH  21  24
ENDBRANCH  17  18
ENDBRANCH  14  17
ENDBRANCH   1  11
BRANCH  10  26
HETATM   26  CBE   D T2021       9.596  13.272   0.572  1.00 51.58     0.127 C 
HETATM   27  CAB   D T2021       9.535  13.050   2.074  1.00 54.00     0.031 C 
BRANCH  26  28
HETATM   28  CAZ   D T2021       8.376  14.055   0.144  1.00 51.45    -0.000 A 
HETATM   29  CAG   D T2021       8.209  15.354   0.571  1.00 51.44    -0.002 A 
HETATM   30  CAD   D T2021       7.089  16.067   0.179  1.00 51.45    -0.000 A 
HETATM   31  CAC   D T2021       6.142  15.480  -0.637  1.00 51.82    -0.000 A 
HETATM   32  CAE   D T2021       6.313  14.179  -1.065  1.00 50.90    -0.000 A 
HETATM   33  CAH   D T2021       7.430  13.465  -0.676  1.00 51.08    -0.002 A 
ENDBRANCH  26  28
ENDBRANCH  10  26
TORSDOF 6
ENDMDL
