MODEL 1
REMARK VINA RESULT:    -8.812      0.000      0.000
REMARK INTER + INTRA:         -12.474
REMARK INTER:                 -11.903
REMARK INTRA:                  -0.571
REMARK UNBOUND:                -0.571
REMARK  6 active torsions:
REMARK  status: ('A' for Active; 'I' for Inactive)
REMARK    1  A    between atoms: NBF_3  and  CAN_4 
REMARK    2  A    between atoms: NBG_8  and  CAS_9 
REMARK    3  A    between atoms: CAS_9  and  CAX_10 
REMARK    4  A    between atoms: CAY_15  and  CBA_16 
REMARK    5  A    between atoms: NAV_25  and  CBE_26 
REMARK    6  A    between atoms: CBE_26  and  CAZ_28 
ROOT
HETATM    1  CBA   D T2021     -11.423   3.069  -5.808  1.00 48.38     0.083 A 
HETATM    2  NAW   D T2021     -10.135   3.372  -5.753  1.00 46.46    -0.227 NA
HETATM    3  CAM   D T2021     -12.088   3.851  -4.969  1.00 46.71     0.025 A 
HETATM    4  C5    D T2021     -11.219   4.648  -4.377  1.00 46.87     0.073 A 
HETATM    5  C4    D T2021      -9.983   4.346  -4.878  1.00 46.80     0.167 A 
HETATM    6  N3    D T2021      -8.919   5.015  -4.435  1.00 47.13    -0.205 NA
HETATM    7  C2    D T2021      -9.048   5.960  -3.527  1.00 45.54     0.202 A 
HETATM    8  N1    D T2021     -10.222   6.275  -3.030  1.00 45.28    -0.205 NA
HETATM    9  C6    D T2021     -11.320   5.644  -3.433  1.00 46.82     0.163 A 
HETATM   10  NAV   D T2021     -12.482   5.982  -2.917  1.00 49.40    -0.250 NA
ENDROOT
BRANCH   1  11
HETATM   11  CAY   D T2021     -11.984   2.102  -6.622  1.00 49.55     0.018 A 
HETATM   12  CAK   D T2021     -13.299   1.726  -6.434  1.00 50.94     0.001 A 
HETATM   13  CAI   D T2021     -13.868   0.750  -7.236  1.00 52.56    -0.002 A 
HETATM   14  CAX   D T2021     -13.122   0.149  -8.226  1.00 54.24     0.011 A 
HETATM   15  CAJ   D T2021     -11.808   0.526  -8.416  1.00 51.77    -0.002 A 
HETATM   16  CAL   D T2021     -11.236   1.497  -7.611  1.00 50.18     0.001 A 
BRANCH  14  17
HETATM   17  CAS   D T2021     -13.754  -0.917  -9.113  1.00 59.34     0.277 C 
BRANCH  17  18
HETATM   18  NBG   D T2021     -13.352  -2.233  -8.608  1.00 64.50     0.146 N 
HETATM   19  CAQ   D T2021     -13.105  -3.203  -9.678  1.00 65.86     0.286 C 
HETATM   20  CAO   D T2021     -14.423  -3.668 -10.292  1.00 66.93     0.285 C 
HETATM   21  NBF   D T2021     -15.286  -4.239  -9.257  1.00 66.06     0.141 N 
HETATM   22  CAP   D T2021     -15.585  -3.188  -8.288  1.00 65.57     0.285 C 
HETATM   23  CAR   D T2021     -14.296  -2.752  -7.611  1.00 65.21     0.286 C 
BRANCH  21  24
HETATM   24  CAN   D T2021     -14.605  -5.355  -8.595  1.00 64.26     0.251 C 
HETATM   25  CAA   D T2021     -15.642  -6.361  -8.101  1.00 61.05     0.037 C 
ENDBRANCH  21  24
ENDBRANCH  17  18
ENDBRANCH  14  17
ENDBRANCH   1  11
BRANCH  10  26
HETATM   26  CBE   D T2021     -12.488   6.871  -1.760  1.00 51.58     0.127 C 
HETATM   27  CAB   D T2021     -13.717   6.596  -0.910  1.00 54.00     0.031 C 
BRANCH  26  28
HETATM   28  CAZ   D T2021     -12.525   8.308  -2.223  1.00 51.45    -0.000 A 
HETATM   29  CAG   D T2021     -12.535   9.330  -1.297  1.00 51.44    -0.002 A 
HETATM   30  CAD   D T2021     -12.571  10.645  -1.725  1.00 51.45    -0.000 A 
HETATM   31  CAC   D T2021     -12.598  10.935  -3.076  1.00 51.82    -0.000 A 
HETATM   32  CAE   D T2021     -12.585   9.912  -4.002  1.00 50.90    -0.000 A 
HETATM   33  CAH   D T2021     -12.549   8.596  -3.576  1.00 51.08    -0.002 A 
ENDBRANCH  26  28
ENDBRANCH  10  26
TORSDOF 6
ENDMDL
MODEL 2
REMARK VINA RESULT:    -8.512      3.222      4.841
REMARK INTER + INTRA:         -12.069
REMARK INTER:                 -10.844
REMARK INTRA:                  -1.225
REMARK UNBOUND:                -0.571
REMARK  6 active torsions:
REMARK  status: ('A' for Active; 'I' for Inactive)
REMARK    1  A    between atoms: NBF_3  and  CAN_4 
REMARK    2  A    between atoms: NBG_8  and  CAS_9 
REMARK    3  A    between atoms: CAS_9  and  CAX_10 
REMARK    4  A    between atoms: CAY_15  and  CBA_16 
REMARK    5  A    between atoms: NAV_25  and  CBE_26 
REMARK    6  A    between atoms: CBE_26  and  CAZ_28 
ROOT
HETATM    1  CBA   D T2021     -13.571   4.331  -3.461  1.00 48.38     0.083 A 
HETATM    2  NAW   D T2021     -12.786   5.378  -3.255  1.00 46.46    -0.227 NA
HETATM    3  CAM   D T2021     -14.552   4.342  -2.571  1.00 46.71     0.025 A 
HETATM    4  C5    D T2021     -14.389   5.395  -1.795  1.00 46.87     0.073 A 
HETATM    5  C4    D T2021     -13.272   6.054  -2.231  1.00 46.80     0.167 A 
HETATM    6  N3    D T2021     -12.883   7.163  -1.605  1.00 47.13    -0.205 NA
HETATM    7  C2    D T2021     -13.562   7.629  -0.577  1.00 45.54     0.202 A 
HETATM    8  N1    D T2021     -14.640   7.021  -0.137  1.00 45.28    -0.205 NA
HETATM    9  C6    D T2021     -15.078   5.912  -0.721  1.00 46.82     0.163 A 
HETATM   10  NAV   D T2021     -16.161   5.326  -0.258  1.00 49.40    -0.250 NA
ENDROOT
BRANCH   1  11
HETATM   11  CAY   D T2021     -13.398   3.387  -4.457  1.00 49.55     0.018 A 
HETATM   12  CAK   D T2021     -13.660   2.057  -4.194  1.00 50.94     0.001 A 
HETATM   13  CAI   D T2021     -13.480   1.101  -5.181  1.00 52.56    -0.002 A 
HETATM   14  CAX   D T2021     -13.036   1.475  -6.431  1.00 54.24     0.011 A 
HETATM   15  CAJ   D T2021     -12.776   2.804  -6.695  1.00 51.77    -0.002 A 
HETATM   16  CAL   D T2021     -12.950   3.759  -5.708  1.00 50.18     0.001 A 
BRANCH  14  17
HETATM   17  CAS   D T2021     -12.849   0.422  -7.517  1.00 59.34     0.277 C 
BRANCH  17  18
HETATM   18  NBG   D T2021     -13.769  -0.686  -7.246  1.00 64.50     0.146 N 
HETATM   19  CAQ   D T2021     -13.117  -1.997  -7.310  1.00 65.86     0.286 C 
HETATM   20  CAO   D T2021     -12.834  -2.381  -8.759  1.00 66.93     0.285 C 
HETATM   21  NBF   D T2021     -14.076  -2.377  -9.533  1.00 66.06     0.141 N 
HETATM   22  CAP   D T2021     -14.609  -1.017  -9.523  1.00 65.57     0.285 C 
HETATM   23  CAR   D T2021     -14.963  -0.631  -8.096  1.00 65.21     0.286 C 
BRANCH  21  24
HETATM   24  CAN   D T2021     -15.043  -3.301  -8.936  1.00 64.26     0.251 C 
HETATM   25  CAA   D T2021     -14.672  -4.735  -9.307  1.00 61.05     0.037 C 
ENDBRANCH  21  24
ENDBRANCH  17  18
ENDBRANCH  14  17
ENDBRANCH   1  11
BRANCH  10  26
HETATM   26  CBE   D T2021     -16.701   5.787   1.017  1.00 51.58     0.127 C 
HETATM   27  CAB   D T2021     -16.691   4.647   2.019  1.00 54.00     0.031 C 
BRANCH  26  28
HETATM   28  CAZ   D T2021     -18.124   6.259   0.825  1.00 51.45    -0.000 A 
HETATM   29  CAG   D T2021     -19.148   5.339   0.744  1.00 51.44    -0.002 A 
HETATM   30  CAD   D T2021     -20.449   5.774   0.566  1.00 51.45    -0.000 A 
HETATM   31  CAC   D T2021     -20.723   7.125   0.469  1.00 51.82    -0.000 A 
HETATM   32  CAE   D T2021     -19.698   8.044   0.554  1.00 50.90    -0.000 A 
HETATM   33  CAH   D T2021     -18.395   7.612   0.731  1.00 51.08    -0.002 A 
ENDBRANCH  26  28
ENDBRANCH  10  26
TORSDOF 6
ENDMDL
MODEL 3
REMARK VINA RESULT:    -8.484      2.506      3.811
REMARK INTER + INTRA:         -12.031
REMARK INTER:                 -10.853
REMARK INTRA:                  -1.178
REMARK UNBOUND:                -0.571
REMARK  6 active torsions:
REMARK  status: ('A' for Active; 'I' for Inactive)
REMARK    1  A    between atoms: NBF_3  and  CAN_4 
REMARK    2  A    between atoms: NBG_8  and  CAS_9 
REMARK    3  A    between atoms: CAS_9  and  CAX_10 
REMARK    4  A    between atoms: CAY_15  and  CBA_16 
REMARK    5  A    between atoms: NAV_25  and  CBE_26 
REMARK    6  A    between atoms: CBE_26  and  CAZ_28 
ROOT
HETATM    1  CBA   D T2021     -12.681   3.749  -4.499  1.00 48.38     0.083 A 
HETATM    2  NAW   D T2021     -11.745   4.667  -4.308  1.00 46.46    -0.227 NA
HETATM    3  CAM   D T2021     -13.654   3.933  -3.618  1.00 46.71     0.025 A 
HETATM    4  C5    D T2021     -13.333   4.965  -2.864  1.00 46.87     0.073 A 
HETATM    5  C4    D T2021     -12.126   5.433  -3.304  1.00 46.80     0.167 A 
HETATM    6  N3    D T2021     -11.572   6.482  -2.699  1.00 47.13    -0.205 NA
HETATM    7  C2    D T2021     -12.176   7.071  -1.688  1.00 45.54     0.202 A 
HETATM    8  N1    D T2021     -13.338   6.649  -1.244  1.00 45.28    -0.205 NA
HETATM    9  C6    D T2021     -13.939   5.607  -1.808  1.00 46.82     0.163 A 
HETATM   10  NAV   D T2021     -15.103   5.207  -1.342  1.00 49.40    -0.250 NA
ENDROOT
BRANCH   1  11
HETATM   11  CAY   D T2021     -12.652   2.767  -5.473  1.00 49.55     0.018 A 
HETATM   12  CAK   D T2021     -11.736   2.850  -6.503  1.00 50.94     0.001 A 
HETATM   13  CAI   D T2021     -11.704   1.878  -7.489  1.00 52.56    -0.002 A 
HETATM   14  CAX   D T2021     -12.592   0.824  -7.448  1.00 54.24     0.011 A 
HETATM   15  CAJ   D T2021     -13.506   0.740  -6.418  1.00 51.77    -0.002 A 
HETATM   16  CAL   D T2021     -13.542   1.714  -5.435  1.00 50.18     0.001 A 
BRANCH  14  17
HETATM   17  CAS   D T2021     -12.548  -0.249  -8.530  1.00 59.34     0.277 C 
BRANCH  17  18
HETATM   18  NBG   D T2021     -13.729  -1.104  -8.377  1.00 64.50     0.146 N 
HETATM   19  CAQ   D T2021     -13.389  -2.492  -8.052  1.00 65.86     0.286 C 
HETATM   20  CAO   D T2021     -12.838  -3.208  -9.282  1.00 66.93     0.285 C 
HETATM   21  NBF   D T2021     -13.808  -3.149 -10.376  1.00 66.06     0.141 N 
HETATM   22  CAP   D T2021     -14.010  -1.745 -10.724  1.00 65.57     0.285 C 
HETATM   23  CAR   D T2021     -14.623  -1.020  -9.536  1.00 65.21     0.286 C 
BRANCH  21  24
HETATM   24  CAN   D T2021     -15.076  -3.751  -9.956  1.00 64.26     0.251 C 
HETATM   25  CAA   D T2021     -14.953  -5.273  -9.996  1.00 61.05     0.037 C 
ENDBRANCH  21  24
ENDBRANCH  17  18
ENDBRANCH  14  17
ENDBRANCH   1  11
BRANCH  10  26
HETATM   26  CBE   D T2021     -15.572   5.776  -0.082  1.00 51.58     0.127 C 
HETATM   27  CAB   D T2021     -15.505   4.723   1.010  1.00 54.00     0.031 C 
BRANCH  26  28
HETATM   28  CAZ   D T2021     -17.003   6.235  -0.234  1.00 51.45    -0.000 A 
HETATM   29  CAG   D T2021     -17.369   7.496   0.187  1.00 51.44    -0.002 A 
HETATM   30  CAD   D T2021     -18.681   7.912   0.049  1.00 51.45    -0.000 A 
HETATM   31  CAC   D T2021     -19.623   7.068  -0.507  1.00 51.82    -0.000 A 
HETATM   32  CAE   D T2021     -19.255   5.808  -0.931  1.00 50.90    -0.000 A 
HETATM   33  CAH   D T2021     -17.943   5.389  -0.794  1.00 51.08    -0.002 A 
ENDBRANCH  26  28
ENDBRANCH  10  26
TORSDOF 6
ENDMDL
MODEL 4
REMARK VINA RESULT:    -8.436      1.988      2.581
REMARK INTER + INTRA:         -11.966
REMARK INTER:                 -11.033
REMARK INTRA:                  -0.933
REMARK UNBOUND:                -0.571
REMARK  6 active torsions:
REMARK  status: ('A' for Active; 'I' for Inactive)
REMARK    1  A    between atoms: NBF_3  and  CAN_4 
REMARK    2  A    between atoms: NBG_8  and  CAS_9 
REMARK    3  A    between atoms: CAS_9  and  CAX_10 
REMARK    4  A    between atoms: CAY_15  and  CBA_16 
REMARK    5  A    between atoms: NAV_25  and  CBE_26 
REMARK    6  A    between atoms: CBE_26  and  CAZ_28 
ROOT
HETATM    1  CBA   D T2021     -12.087   2.452  -6.227  1.00 48.38     0.083 A 
HETATM    2  NAW   D T2021     -10.890   3.005  -6.355  1.00 46.46    -0.227 NA
HETATM    3  CAM   D T2021     -12.717   3.014  -5.205  1.00 46.71     0.025 A 
HETATM    4  C5    D T2021     -11.917   3.921  -4.680  1.00 46.87     0.073 A 
HETATM    5  C4    D T2021     -10.762   3.918  -5.411  1.00 46.80     0.167 A 
HETATM    6  N3    D T2021      -9.777   4.751  -5.080  1.00 47.13    -0.205 NA
HETATM    7  C2    D T2021      -9.908   5.575  -4.061  1.00 45.54     0.202 A 
HETATM    8  N1    D T2021     -11.006   5.605  -3.341  1.00 45.28    -0.205 NA
HETATM    9  C6    D T2021     -12.023   4.798  -3.625  1.00 46.82     0.163 A 
HETATM   10  NAV   D T2021     -13.111   4.851  -2.886  1.00 49.40    -0.250 NA
ENDROOT
BRANCH   1  11
HETATM   11  CAY   D T2021     -12.601   1.459  -7.041  1.00 49.55     0.018 A 
HETATM   12  CAK   D T2021     -11.780   0.827  -7.953  1.00 50.94     0.001 A 
HETATM   13  CAI   D T2021     -12.285  -0.162  -8.781  1.00 52.56    -0.002 A 
HETATM   14  CAX   D T2021     -13.615  -0.518  -8.699  1.00 54.24     0.011 A 
HETATM   15  CAJ   D T2021     -14.435   0.113  -7.786  1.00 51.77    -0.002 A 
HETATM   16  CAL   D T2021     -13.932   1.105  -6.963  1.00 50.18     0.001 A 
BRANCH  14  17
HETATM   17  CAS   D T2021     -14.166  -1.613  -9.605  1.00 59.34     0.277 C 
BRANCH  17  18
HETATM   18  NBG   D T2021     -13.604  -2.895  -9.168  1.00 64.50     0.146 N 
HETATM   19  CAQ   D T2021     -13.611  -3.909 -10.226  1.00 65.86     0.286 C 
HETATM   20  CAO   D T2021     -15.026  -4.430 -10.457  1.00 66.93     0.285 C 
HETATM   21  NBF   D T2021     -15.574  -4.969  -9.212  1.00 66.06     0.141 N 
HETATM   22  CAP   D T2021     -15.647  -3.880  -8.242  1.00 65.57     0.285 C 
HETATM   23  CAR   D T2021     -14.241  -3.386  -7.941  1.00 65.21     0.286 C 
BRANCH  21  24
HETATM   24  CAN   D T2021     -14.709  -6.038  -8.705  1.00 64.26     0.251 C 
HETATM   25  CAA   D T2021     -15.564  -7.244  -8.321  1.00 61.05     0.037 C 
ENDBRANCH  21  24
ENDBRANCH  17  18
ENDBRANCH  14  17
ENDBRANCH   1  11
BRANCH  10  26
HETATM   26  CBE   D T2021     -13.066   5.625  -1.650  1.00 51.58     0.127 C 
HETATM   27  CAB   D T2021     -12.347   4.831  -0.574  1.00 54.00     0.031 C 
BRANCH  26  28
HETATM   28  CAZ   D T2021     -14.473   5.919  -1.184  1.00 51.45    -0.000 A 
HETATM   29  CAG   D T2021     -14.688   6.856  -0.195  1.00 51.44    -0.002 A 
HETATM   30  CAD   D T2021     -15.977   7.121   0.232  1.00 51.45    -0.000 A 
HETATM   31  CAC   D T2021     -17.047   6.449  -0.330  1.00 51.82    -0.000 A 
HETATM   32  CAE   D T2021     -16.830   5.515  -1.322  1.00 50.90    -0.000 A 
HETATM   33  CAH   D T2021     -15.542   5.248  -1.750  1.00 51.08    -0.002 A 
ENDBRANCH  26  28
ENDBRANCH  10  26
TORSDOF 6
ENDMDL
MODEL 5
REMARK VINA RESULT:    -8.379      3.475      5.259
REMARK INTER + INTRA:         -11.888
REMARK INTER:                 -10.957
REMARK INTRA:                  -0.931
REMARK UNBOUND:                -0.571
REMARK  6 active torsions:
REMARK  status: ('A' for Active; 'I' for Inactive)
REMARK    1  A    between atoms: NBF_3  and  CAN_4 
REMARK    2  A    between atoms: NBG_8  and  CAS_9 
REMARK    3  A    between atoms: CAS_9  and  CAX_10 
REMARK    4  A    between atoms: CAY_15  and  CBA_16 
REMARK    5  A    between atoms: NAV_25  and  CBE_26 
REMARK    6  A    between atoms: CBE_26  and  CAZ_28 
ROOT
HETATM    1  CBA   D T2021     -13.472   2.442  -4.946  1.00 48.38     0.083 A 
HETATM    2  NAW   D T2021     -12.816   3.592  -4.972  1.00 46.46    -0.227 NA
HETATM    3  CAM   D T2021     -14.338   2.459  -3.943  1.00 46.71     0.025 A 
HETATM    4  C5    D T2021     -14.228   3.620  -3.328  1.00 46.87     0.073 A 
HETATM    5  C4    D T2021     -13.267   4.339  -3.983  1.00 46.80     0.167 A 
HETATM    6  N3    D T2021     -12.959   5.561  -3.552  1.00 47.13    -0.205 NA
HETATM    7  C2    D T2021     -13.571   6.080  -2.508  1.00 45.54     0.202 A 
HETATM    8  N1    D T2021     -14.501   5.417  -1.860  1.00 45.28    -0.205 NA
HETATM    9  C6    D T2021     -14.852   4.194  -2.244  1.00 46.82     0.163 A 
HETATM   10  NAV   D T2021     -15.787   3.554  -1.575  1.00 49.40    -0.250 NA
ENDROOT
BRANCH   1  11
HETATM   11  CAY   D T2021     -13.291   1.398  -5.835  1.00 49.55     0.018 A 
HETATM   12  CAK   D T2021     -13.925   0.191  -5.614  1.00 50.94     0.001 A 
HETATM   13  CAI   D T2021     -13.743  -0.865  -6.492  1.00 52.56    -0.002 A 
HETATM   14  CAX   D T2021     -12.923  -0.716  -7.590  1.00 54.24     0.011 A 
HETATM   15  CAJ   D T2021     -12.290   0.490  -7.812  1.00 51.77    -0.002 A 
HETATM   16  CAL   D T2021     -12.467   1.544  -6.932  1.00 50.18     0.001 A 
BRANCH  14  17
HETATM   17  CAS   D T2021     -12.732  -1.877  -8.558  1.00 59.34     0.277 C 
BRANCH  17  18
HETATM   18  NBG   D T2021     -13.020  -1.397  -9.914  1.00 64.50     0.146 N 
HETATM   19  CAQ   D T2021     -14.444  -1.468 -10.252  1.00 65.86     0.286 C 
HETATM   20  CAO   D T2021     -14.860  -2.914 -10.508  1.00 66.93     0.285 C 
HETATM   21  NBF   D T2021     -14.039  -3.493 -11.573  1.00 66.06     0.141 N 
HETATM   22  CAP   D T2021     -12.651  -3.496 -11.121  1.00 65.57     0.285 C 
HETATM   23  CAR   D T2021     -12.188  -2.062 -10.922  1.00 65.21     0.286 C 
BRANCH  21  24
HETATM   24  CAN   D T2021     -14.169  -2.696 -12.796  1.00 64.26     0.251 C 
HETATM   25  CAA   D T2021     -13.818  -3.561 -14.005  1.00 61.05     0.037 C 
ENDBRANCH  21  24
ENDBRANCH  17  18
ENDBRANCH  14  17
ENDBRANCH   1  11
BRANCH  10  26
HETATM   26  CBE   D T2021     -16.233   4.118  -0.305  1.00 51.58     0.127 C 
HETATM   27  CAB   D T2021     -15.158   3.921   0.749  1.00 54.00     0.031 C 
BRANCH  26  28
HETATM   28  CAZ   D T2021     -17.495   3.419   0.146  1.00 51.45    -0.000 A 
HETATM   29  CAG   D T2021     -17.957   2.319  -0.547  1.00 51.44    -0.002 A 
HETATM   30  CAD   D T2021     -19.113   1.683  -0.133  1.00 51.45    -0.000 A 
HETATM   31  CAC   D T2021     -19.805   2.147   0.970  1.00 51.82    -0.000 A 
HETATM   32  CAE   D T2021     -19.340   3.245   1.664  1.00 50.90    -0.000 A 
HETATM   33  CAH   D T2021     -18.183   3.884   1.252  1.00 51.08    -0.002 A 
ENDBRANCH  26  28
ENDBRANCH  10  26
TORSDOF 6
ENDMDL
MODEL 6
REMARK VINA RESULT:    -8.286      2.985     10.907
REMARK INTER + INTRA:         -11.763
REMARK INTER:                 -10.573
REMARK INTRA:                  -1.190
REMARK UNBOUND:                -0.571
REMARK  6 active torsions:
REMARK  status: ('A' for Active; 'I' for Inactive)
REMARK    1  A    between atoms: NBF_3  and  CAN_4 
REMARK    2  A    between atoms: NBG_8  and  CAS_9 
REMARK    3  A    between atoms: CAS_9  and  CAX_10 
REMARK    4  A    between atoms: CAY_15  and  CBA_16 
REMARK    5  A    between atoms: NAV_25  and  CBE_26 
REMARK    6  A    between atoms: CBE_26  and  CAZ_28 
ROOT
HETATM    1  CBA   D T2021     -13.002   2.614  -4.774  1.00 48.38     0.083 A 
HETATM    2  NAW   D T2021     -11.876   2.969  -5.374  1.00 46.46    -0.227 NA
HETATM    3  CAM   D T2021     -13.540   1.595  -5.428  1.00 46.71     0.025 A 
HETATM    4  C5    D T2021     -12.758   1.305  -6.449  1.00 46.87     0.073 A 
HETATM    5  C4    D T2021     -11.701   2.173  -6.412  1.00 46.80     0.167 A 
HETATM    6  N3    D T2021     -10.757   2.092  -7.348  1.00 47.13    -0.205 NA
HETATM    7  C2    D T2021     -10.831   1.187  -8.301  1.00 45.54     0.202 A 
HETATM    8  N1    D T2021     -11.831   0.337  -8.362  1.00 45.28    -0.205 NA
HETATM    9  C6    D T2021     -12.802   0.369  -7.456  1.00 46.82     0.163 A 
HETATM   10  NAV   D T2021     -13.791  -0.496  -7.542  1.00 49.40    -0.250 NA
ENDROOT
BRANCH   1  11
HETATM   11  CAY   D T2021     -13.522   3.205  -3.636  1.00 49.55     0.018 A 
HETATM   12  CAK   D T2021     -14.176   2.431  -2.699  1.00 50.94     0.001 A 
HETATM   13  CAI   D T2021     -14.711   3.013  -1.561  1.00 52.56    -0.002 A 
HETATM   14  CAX   D T2021     -14.594   4.372  -1.362  1.00 54.24     0.011 A 
HETATM   15  CAJ   D T2021     -13.938   5.146  -2.298  1.00 51.77    -0.002 A 
HETATM   16  CAL   D T2021     -13.409   4.566  -3.438  1.00 50.18     0.001 A 
BRANCH  14  17
HETATM   17  CAS   D T2021     -15.174   5.008  -0.105  1.00 59.34     0.277 C 
BRANCH  17  18
HETATM   18  NBG   D T2021     -16.061   6.103  -0.512  1.00 64.50     0.146 N 
HETATM   19  CAQ   D T2021     -16.032   7.235   0.419  1.00 65.86     0.286 C 
HETATM   20  CAO   D T2021     -16.786   6.892   1.700  1.00 66.93     0.285 C 
HETATM   21  NBF   D T2021     -18.163   6.507   1.387  1.00 66.06     0.141 N 
HETATM   22  CAP   D T2021     -18.118   5.307   0.556  1.00 65.57     0.285 C 
HETATM   23  CAR   D T2021     -17.430   5.638  -0.760  1.00 65.21     0.286 C 
BRANCH  21  24
HETATM   24  CAN   D T2021     -18.837   7.593   0.669  1.00 64.26     0.251 C 
HETATM   25  CAA   D T2021     -20.348   7.389   0.743  1.00 61.05     0.037 C 
ENDBRANCH  21  24
ENDBRANCH  17  18
ENDBRANCH  14  17
ENDBRANCH   1  11
BRANCH  10  26
HETATM   26  CBE   D T2021     -13.899  -1.297  -8.757  1.00 51.58     0.127 C 
HETATM   27  CAB   D T2021     -14.864  -0.633  -9.724  1.00 54.00     0.031 C 
BRANCH  26  28
HETATM   28  CAZ   D T2021     -14.420  -2.673  -8.413  1.00 51.45    -0.000 A 
HETATM   29  CAG   D T2021     -15.316  -2.830  -7.377  1.00 51.44    -0.002 A 
HETATM   30  CAD   D T2021     -15.789  -4.091  -7.063  1.00 51.45    -0.000 A 
HETATM   31  CAC   D T2021     -15.366  -5.192  -7.784  1.00 51.82    -0.000 A 
HETATM   32  CAE   D T2021     -14.473  -5.033  -8.823  1.00 50.90    -0.000 A 
HETATM   33  CAH   D T2021     -13.997  -3.772  -9.139  1.00 51.08    -0.002 A 
ENDBRANCH  26  28
ENDBRANCH  10  26
TORSDOF 6
ENDMDL
MODEL 7
REMARK VINA RESULT:    -8.160      4.705      7.945
REMARK INTER + INTRA:         -11.592
REMARK INTER:                 -10.336
REMARK INTRA:                  -1.256
REMARK UNBOUND:                -0.571
REMARK  6 active torsions:
REMARK  status: ('A' for Active; 'I' for Inactive)
REMARK    1  A    between atoms: NBF_3  and  CAN_4 
REMARK    2  A    between atoms: NBG_8  and  CAS_9 
REMARK    3  A    between atoms: CAS_9  and  CAX_10 
REMARK    4  A    between atoms: CAY_15  and  CBA_16 
REMARK    5  A    between atoms: NAV_25  and  CBE_26 
REMARK    6  A    between atoms: CBE_26  and  CAZ_28 
ROOT
HETATM    1  CBA   D T2021     -12.704  -1.985 -10.159  1.00 48.38     0.083 A 
HETATM    2  NAW   D T2021     -13.455  -2.717  -9.351  1.00 46.46    -0.227 NA
HETATM    3  CAM   D T2021     -12.405  -0.843  -9.557  1.00 46.71     0.025 A 
HETATM    4  C5    D T2021     -12.970  -0.848  -8.366  1.00 46.87     0.073 A 
HETATM    5  C4    D T2021     -13.632  -2.037  -8.234  1.00 46.80     0.167 A 
HETATM    6  N3    D T2021     -14.297  -2.293  -7.109  1.00 47.13    -0.205 NA
HETATM    7  C2    D T2021     -14.320  -1.415  -6.127  1.00 45.54     0.202 A 
HETATM    8  N1    D T2021     -13.691  -0.266  -6.222  1.00 45.28    -0.205 NA
HETATM    9  C6    D T2021     -13.011   0.045  -7.319  1.00 46.82     0.163 A 
HETATM   10  NAV   D T2021     -12.390   1.204  -7.385  1.00 49.40    -0.250 NA
ENDROOT
BRANCH   1  11
HETATM   11  CAY   D T2021     -12.289  -2.361 -11.424  1.00 49.55     0.018 A 
HETATM   12  CAK   D T2021     -10.991  -2.109 -11.822  1.00 50.94     0.001 A 
HETATM   13  CAI   D T2021     -10.566  -2.472 -13.090  1.00 52.56    -0.002 A 
HETATM   14  CAX   D T2021     -11.441  -3.084 -13.962  1.00 54.24     0.011 A 
HETATM   15  CAJ   D T2021     -12.737  -3.337 -13.564  1.00 51.77    -0.002 A 
HETATM   16  CAL   D T2021     -13.164  -2.970 -12.299  1.00 50.18     0.001 A 
BRANCH  14  17
HETATM   17  CAS   D T2021     -10.968  -3.490 -15.353  1.00 59.34     0.277 C 
BRANCH  17  18
HETATM   18  NBG   D T2021     -11.128  -4.941 -15.486  1.00 64.50     0.146 N 
HETATM   19  CAQ   D T2021     -10.115  -5.697 -14.743  1.00 65.86     0.286 C 
HETATM   20  CAO   D T2021      -8.767  -5.623 -15.454  1.00 66.93     0.285 C 
HETATM   21  NBF   D T2021      -8.892  -6.122 -16.824  1.00 66.06     0.141 N 
HETATM   22  CAP   D T2021      -9.825  -5.255 -17.537  1.00 65.57     0.285 C 
HETATM   23  CAR   D T2021     -11.197  -5.360 -16.890  1.00 65.21     0.286 C 
BRANCH  21  24
HETATM   24  CAN   D T2021      -9.392  -7.499 -16.813  1.00 64.26     0.251 C 
HETATM   25  CAA   D T2021      -8.237  -8.457 -16.531  1.00 61.05     0.037 C 
ENDBRANCH  21  24
ENDBRANCH  17  18
ENDBRANCH  14  17
ENDBRANCH   1  11
BRANCH  10  26
HETATM   26  CBE   D T2021     -12.669   2.192  -6.348  1.00 51.58     0.127 C 
HETATM   27  CAB   D T2021     -13.617   3.248  -6.889  1.00 54.00     0.031 C 
BRANCH  26  28
HETATM   28  CAZ   D T2021     -11.381   2.860  -5.925  1.00 51.45    -0.000 A 
HETATM   29  CAG   D T2021     -10.178   2.423  -6.439  1.00 51.44    -0.002 A 
HETATM   30  CAD   D T2021      -9.001   3.036  -6.048  1.00 51.45    -0.000 A 
HETATM   31  CAC   D T2021      -9.029   4.081  -5.145  1.00 51.82    -0.000 A 
HETATM   32  CAE   D T2021     -10.233   4.520  -4.634  1.00 50.90    -0.000 A 
HETATM   33  CAH   D T2021     -11.412   3.909  -5.023  1.00 51.08    -0.002 A 
ENDBRANCH  26  28
ENDBRANCH  10  26
TORSDOF 6
ENDMDL
MODEL 8
REMARK VINA RESULT:    -8.067      1.720     11.838
REMARK INTER + INTRA:         -11.467
REMARK INTER:                 -10.362
REMARK INTRA:                  -1.105
REMARK UNBOUND:                -0.571
REMARK  6 active torsions:
REMARK  status: ('A' for Active; 'I' for Inactive)
REMARK    1  A    between atoms: NBF_3  and  CAN_4 
REMARK    2  A    between atoms: NBG_8  and  CAS_9 
REMARK    3  A    between atoms: CAS_9  and  CAX_10 
REMARK    4  A    between atoms: CAY_15  and  CBA_16 
REMARK    5  A    between atoms: NAV_25  and  CBE_26 
REMARK    6  A    between atoms: CBE_26  and  CAZ_28 
ROOT
HETATM    1  CBA   D T2021     -12.985   0.036  -7.772  1.00 48.38     0.083 A 
HETATM    2  NAW   D T2021     -12.084   0.076  -8.742  1.00 46.46    -0.227 NA
HETATM    3  CAM   D T2021     -13.785  -1.002  -7.965  1.00 46.71     0.025 A 
HETATM    4  C5    D T2021     -13.395  -1.620  -9.063  1.00 46.87     0.073 A 
HETATM    5  C4    D T2021     -12.315  -0.939  -9.552  1.00 46.80     0.167 A 
HETATM    6  N3    D T2021     -11.728  -1.362 -10.670  1.00 47.13    -0.205 NA
HETATM    7  C2    D T2021     -12.175  -2.427 -11.303  1.00 45.54     0.202 A 
HETATM    8  N1    D T2021     -13.208  -3.105 -10.857  1.00 45.28    -0.205 NA
HETATM    9  C6    D T2021     -13.834  -2.731  -9.746  1.00 46.82     0.163 A 
HETATM   10  NAV   D T2021     -14.865  -3.431  -9.323  1.00 49.40    -0.250 NA
ENDROOT
BRANCH   1  11
HETATM   11  CAY   D T2021     -13.066   0.929  -6.718  1.00 49.55     0.018 A 
HETATM   12  CAK   D T2021     -12.592   2.216  -6.872  1.00 50.94     0.001 A 
HETATM   13  CAI   D T2021     -12.657   3.116  -5.820  1.00 52.56    -0.002 A 
HETATM   14  CAX   D T2021     -13.196   2.727  -4.612  1.00 54.24     0.011 A 
HETATM   15  CAJ   D T2021     -13.672   1.441  -4.459  1.00 51.77    -0.002 A 
HETATM   16  CAL   D T2021     -13.601   0.539  -5.507  1.00 50.18     0.001 A 
BRANCH  14  17
HETATM   17  CAS   D T2021     -13.276   3.721  -3.460  1.00 59.34     0.277 C 
BRANCH  17  18
HETATM   18  NBG   D T2021     -12.769   5.013  -3.933  1.00 64.50     0.146 N 
HETATM   19  CAQ   D T2021     -11.410   5.298  -3.464  1.00 65.86     0.286 C 
HETATM   20  CAO   D T2021     -11.423   5.669  -1.984  1.00 66.93     0.285 C 
HETATM   21  NBF   D T2021     -12.305   6.815  -1.760  1.00 66.06     0.141 N 
HETATM   22  CAP   D T2021     -13.660   6.423  -2.138  1.00 65.57     0.285 C 
HETATM   23  CAR   D T2021     -13.691   6.112  -3.627  1.00 65.21     0.286 C 
BRANCH  21  24
HETATM   24  CAN   D T2021     -11.865   7.953  -2.571  1.00 64.26     0.251 C 
HETATM   25  CAA   D T2021     -12.249   9.255  -1.870  1.00 61.05     0.037 C 
ENDBRANCH  21  24
ENDBRANCH  17  18
ENDBRANCH  14  17
ENDBRANCH   1  11
BRANCH  10  26
HETATM   26  CBE   D T2021     -15.420  -4.445 -10.214  1.00 51.58     0.127 C 
HETATM   27  CAB   D T2021     -16.772  -3.986 -10.732  1.00 54.00     0.031 C 
BRANCH  26  28
HETATM   28  CAZ   D T2021     -15.600  -5.741  -9.458  1.00 51.45    -0.000 A 
HETATM   29  CAG   D T2021     -14.502  -6.518  -9.156  1.00 51.44    -0.002 A 
HETATM   30  CAD   D T2021     -14.671  -7.706  -8.466  1.00 51.45    -0.000 A 
HETATM   31  CAC   D T2021     -15.934  -8.113  -8.081  1.00 51.82    -0.000 A 
HETATM   32  CAE   D T2021     -17.031  -7.331  -8.381  1.00 50.90    -0.000 A 
HETATM   33  CAH   D T2021     -16.866  -6.143  -9.071  1.00 51.08    -0.002 A 
ENDBRANCH  26  28
ENDBRANCH  10  26
TORSDOF 6
ENDMDL
MODEL 9
REMARK VINA RESULT:    -8.012      2.092     11.541
REMARK INTER + INTRA:         -11.393
REMARK INTER:                 -10.204
REMARK INTRA:                  -1.189
REMARK UNBOUND:                -0.571
REMARK  6 active torsions:
REMARK  status: ('A' for Active; 'I' for Inactive)
REMARK    1  A    between atoms: NBF_3  and  CAN_4 
REMARK    2  A    between atoms: NBG_8  and  CAS_9 
REMARK    3  A    between atoms: CAS_9  and  CAX_10 
REMARK    4  A    between atoms: CAY_15  and  CBA_16 
REMARK    5  A    between atoms: NAV_25  and  CBE_26 
REMARK    6  A    between atoms: CBE_26  and  CAZ_28 
ROOT
HETATM    1  CBA   D T2021     -13.776   0.231  -6.126  1.00 48.38     0.083 A 
HETATM    2  NAW   D T2021     -14.474  -0.639  -5.411  1.00 46.46    -0.227 NA
HETATM    3  CAM   D T2021     -13.694  -0.201  -7.375  1.00 46.71     0.025 A 
HETATM    4  C5    D T2021     -14.336  -1.350  -7.454  1.00 46.87     0.073 A 
HETATM    5  C4    D T2021     -14.834  -1.625  -6.210  1.00 46.80     0.167 A 
HETATM    6  N3    D T2021     -15.529  -2.745  -6.017  1.00 47.13    -0.205 NA
HETATM    7  C2    D T2021     -15.742  -3.583  -7.010  1.00 45.54     0.202 A 
HETATM    8  N1    D T2021     -15.281  -3.346  -8.217  1.00 45.28    -0.205 NA
HETATM    9  C6    D T2021     -14.582  -2.245  -8.470  1.00 46.82     0.163 A 
HETATM   10  NAV   D T2021     -14.133  -2.035  -9.689  1.00 49.40    -0.250 NA
ENDROOT
BRANCH   1  11
HETATM   11  CAY   D T2021     -13.234   1.410  -5.645  1.00 49.55     0.018 A 
HETATM   12  CAK   D T2021     -12.268   2.069  -6.378  1.00 50.94     0.001 A 
HETATM   13  CAI   D T2021     -11.710   3.244  -5.901  1.00 52.56    -0.002 A 
HETATM   14  CAX   D T2021     -12.116   3.759  -4.689  1.00 54.24     0.011 A 
HETATM   15  CAJ   D T2021     -13.083   3.101  -3.957  1.00 51.77    -0.002 A 
HETATM   16  CAL   D T2021     -13.637   1.923  -4.429  1.00 50.18     0.001 A 
BRANCH  14  17
HETATM   17  CAS   D T2021     -11.507   5.057  -4.172  1.00 59.34     0.277 C 
BRANCH  17  18
HETATM   18  NBG   D T2021     -12.352   5.559  -3.084  1.00 64.50     0.146 N 
HETATM   19  CAQ   D T2021     -13.167   6.711  -3.480  1.00 65.86     0.286 C 
HETATM   20  CAO   D T2021     -12.301   7.962  -3.595  1.00 66.93     0.285 C 
HETATM   21  NBF   D T2021     -11.615   8.218  -2.327  1.00 66.06     0.141 N 
HETATM   22  CAP   D T2021     -10.736   7.084  -2.054  1.00 65.57     0.285 C 
HETATM   23  CAR   D T2021     -11.579   5.833  -1.868  1.00 65.21     0.286 C 
BRANCH  21  24
HETATM   24  CAN   D T2021     -12.594   8.367  -1.248  1.00 64.26     0.251 C 
HETATM   25  CAA   D T2021     -12.587   9.811  -0.752  1.00 61.05     0.037 C 
ENDBRANCH  21  24
ENDBRANCH  17  18
ENDBRANCH  14  17
ENDBRANCH   1  11
BRANCH  10  26
HETATM   26  CBE   D T2021     -14.222  -3.127 -10.653  1.00 51.58     0.127 C 
HETATM   27  CAB   D T2021     -12.828  -3.536 -11.093  1.00 54.00     0.031 C 
BRANCH  26  28
HETATM   28  CAZ   D T2021     -15.005  -2.673 -11.863  1.00 51.45    -0.000 A 
HETATM   29  CAG   D T2021     -14.889  -3.360 -13.054  1.00 51.44    -0.002 A 
HETATM   30  CAD   D T2021     -15.605  -2.940 -14.161  1.00 51.45    -0.000 A 
HETATM   31  CAC   D T2021     -16.433  -1.836 -14.076  1.00 51.82    -0.000 A 
HETATM   32  CAE   D T2021     -16.550  -1.153 -12.884  1.00 50.90    -0.000 A 
HETATM   33  CAH   D T2021     -15.835  -1.570 -11.774  1.00 51.08    -0.002 A 
ENDBRANCH  26  28
ENDBRANCH  10  26
TORSDOF 6
ENDMDL
