MODEL 1
REMARK VINA RESULT:    -7.691      0.000      0.000
REMARK INTER + INTRA:         -11.538
REMARK INTER:                 -10.388
REMARK INTRA:                  -1.149
REMARK UNBOUND:                -1.149
REMARK  6 active torsions:
REMARK  status: ('A' for Active; 'I' for Inactive)
REMARK    1  A    between atoms: NBF_3  and  CAN_4 
REMARK    2  A    between atoms: NBG_8  and  CAS_9 
REMARK    3  A    between atoms: CAS_9  and  CAX_10 
REMARK    4  A    between atoms: CAY_15  and  CBA_16 
REMARK    5  A    between atoms: NAV_25  and  CBE_26 
REMARK    6  A    between atoms: CBE_26  and  CAZ_28 
ROOT
HETATM    1  CBA   D T2021      12.959  -1.908  -0.782  1.00 48.38     0.083 A 
HETATM    2  NAW   D T2021      12.104  -2.438   0.080  1.00 46.46    -0.227 NA
HETATM    3  CAM   D T2021      12.299  -1.513  -1.862  1.00 46.71     0.025 A 
HETATM    4  C5    D T2021      11.023  -1.796  -1.687  1.00 46.87     0.073 A 
HETATM    5  C4    D T2021      10.899  -2.377  -0.455  1.00 46.80     0.167 A 
HETATM    6  N3    D T2021       9.697  -2.765  -0.034  1.00 47.13    -0.205 NA
HETATM    7  C2    D T2021       8.632  -2.591  -0.788  1.00 45.54     0.202 A 
HETATM    8  N1    D T2021       8.716  -2.031  -1.974  1.00 45.28    -0.205 NA
HETATM    9  C6    D T2021       9.889  -1.624  -2.447  1.00 46.82     0.163 A 
HETATM   10  NAV   D T2021       9.942  -1.067  -3.638  1.00 49.40    -0.250 NA
ENDROOT
BRANCH   1  11
HETATM   11  CAY   D T2021      14.321  -1.778  -0.580  1.00 49.55     0.018 A 
HETATM   12  CAK   D T2021      14.975  -2.651   0.266  1.00 50.94     0.001 A 
HETATM   13  CAI   D T2021      16.337  -2.523   0.486  1.00 52.56    -0.002 A 
HETATM   14  CAX   D T2021      17.046  -1.518  -0.139  1.00 54.24     0.011 A 
HETATM   15  CAJ   D T2021      16.391  -0.646  -0.986  1.00 51.77    -0.002 A 
HETATM   16  CAL   D T2021      15.029  -0.770  -1.201  1.00 50.18     0.001 A 
BRANCH  14  17
HETATM   17  CAS   D T2021      18.545  -1.386   0.097  1.00 59.34     0.277 C 
BRANCH  17  18
HETATM   18  NBG   D T2021      19.224  -1.490  -1.198  1.00 64.50     0.146 N 
HETATM   19  CAQ   D T2021      19.459  -2.878  -1.608  1.00 65.86     0.286 C 
HETATM   20  CAO   D T2021      20.590  -3.492  -0.789  1.00 66.93     0.285 C 
HETATM   21  NBF   D T2021      21.806  -2.692  -0.932  1.00 66.06     0.141 N 
HETATM   22  CAP   D T2021      21.537  -1.359  -0.399  1.00 65.57     0.285 C 
HETATM   23  CAR   D T2021      20.456  -0.697  -1.240  1.00 65.21     0.286 C 
BRANCH  21  24
HETATM   24  CAN   D T2021      22.185  -2.601  -2.345  1.00 64.26     0.251 C 
HETATM   25  CAA   D T2021      22.956  -3.857  -2.746  1.00 61.05     0.037 C 
ENDBRANCH  21  24
ENDBRANCH  17  18
ENDBRANCH  14  17
ENDBRANCH   1  11
BRANCH  10  26
HETATM   26  CBE   D T2021       8.753  -1.133  -4.482  1.00 51.58     0.127 C 
HETATM   27  CAB   D T2021       8.762  -2.427  -5.277  1.00 54.00     0.031 C 
BRANCH  26  28
HETATM   28  CAZ   D T2021       8.749   0.032  -5.444  1.00 51.45    -0.000 A 
HETATM   29  CAG   D T2021       7.755   0.135  -6.396  1.00 51.44    -0.002 A 
HETATM   30  CAD   D T2021       7.757   1.201  -7.277  1.00 51.45    -0.000 A 
HETATM   31  CAC   D T2021       8.749   2.161  -7.207  1.00 51.82    -0.000 A 
HETATM   32  CAE   D T2021       9.741   2.057  -6.252  1.00 50.90    -0.000 A 
HETATM   33  CAH   D T2021       9.742   0.993  -5.370  1.00 51.08    -0.002 A 
ENDBRANCH  26  28
ENDBRANCH  10  26
TORSDOF 6
ENDMDL
MODEL 2
REMARK VINA RESULT:    -7.465      1.432      2.396
REMARK INTER + INTRA:         -11.232
REMARK INTER:                 -10.105
REMARK INTRA:                  -1.127
REMARK UNBOUND:                -1.149
REMARK  6 active torsions:
REMARK  status: ('A' for Active; 'I' for Inactive)
REMARK    1  A    between atoms: NBF_3  and  CAN_4 
REMARK    2  A    between atoms: NBG_8  and  CAS_9 
REMARK    3  A    between atoms: CAS_9  and  CAX_10 
REMARK    4  A    between atoms: CAY_15  and  CBA_16 
REMARK    5  A    between atoms: NAV_25  and  CBE_26 
REMARK    6  A    between atoms: CBE_26  and  CAZ_28 
ROOT
HETATM    1  CBA   D T2021      12.967  -1.910  -0.911  1.00 48.38     0.083 A 
HETATM    2  NAW   D T2021      12.130  -2.400  -0.009  1.00 46.46    -0.227 NA
HETATM    3  CAM   D T2021      12.278  -1.513  -1.972  1.00 46.71     0.025 A 
HETATM    4  C5    D T2021      11.002  -1.755  -1.744  1.00 46.87     0.073 A 
HETATM    5  C4    D T2021      10.908  -2.312  -0.499  1.00 46.80     0.167 A 
HETATM    6  N3    D T2021       9.712  -2.657  -0.026  1.00 47.13    -0.205 NA
HETATM    7  C2    D T2021       8.625  -2.463  -0.742  1.00 45.54     0.202 A 
HETATM    8  N1    D T2021       8.681  -1.925  -1.940  1.00 45.28    -0.205 NA
HETATM    9  C6    D T2021       9.846  -1.561  -2.464  1.00 46.82     0.163 A 
HETATM   10  NAV   D T2021       9.869  -1.025  -3.666  1.00 49.40    -0.250 NA
ENDROOT
BRANCH   1  11
HETATM   11  CAY   D T2021      14.339  -1.817  -0.762  1.00 49.55     0.018 A 
HETATM   12  CAK   D T2021      15.037  -0.833  -1.432  1.00 50.94     0.001 A 
HETATM   13  CAI   D T2021      16.412  -0.737  -1.299  1.00 52.56    -0.002 A 
HETATM   14  CAX   D T2021      17.093  -1.630  -0.497  1.00 54.24     0.011 A 
HETATM   15  CAJ   D T2021      16.394  -2.614   0.173  1.00 51.77    -0.002 A 
HETATM   16  CAL   D T2021      15.020  -2.713   0.036  1.00 50.18     0.001 A 
BRANCH  14  17
HETATM   17  CAS   D T2021      18.605  -1.516  -0.346  1.00 59.34     0.277 C 
BRANCH  17  18
HETATM   18  NBG   D T2021      18.908  -0.216   0.259  1.00 64.50     0.146 N 
HETATM   19  CAQ   D T2021      19.990   0.494  -0.431  1.00 65.86     0.286 C 
HETATM   20  CAO   D T2021      21.337  -0.146  -0.108  1.00 66.93     0.285 C 
HETATM   21  NBF   D T2021      21.557  -0.156   1.337  1.00 66.06     0.141 N 
HETATM   22  CAP   D T2021      20.513  -0.975   1.948  1.00 65.57     0.285 C 
HETATM   23  CAR   D T2021      19.161  -0.323   1.699  1.00 65.21     0.286 C 
BRANCH  21  24
HETATM   24  CAN   D T2021      21.497   1.210   1.864  1.00 64.26     0.251 C 
HETATM   25  CAA   D T2021      22.822   1.919   1.590  1.00 61.05     0.037 C 
ENDBRANCH  21  24
ENDBRANCH  17  18
ENDBRANCH  14  17
ENDBRANCH   1  11
BRANCH  10  26
HETATM   26  CBE   D T2021       8.648  -1.069  -4.463  1.00 51.58     0.127 C 
HETATM   27  CAB   D T2021       8.583  -2.381  -5.226  1.00 54.00     0.031 C 
BRANCH  26  28
HETATM   28  CAZ   D T2021       8.647   0.073  -5.453  1.00 51.45    -0.000 A 
HETATM   29  CAG   D T2021       9.584   1.080  -5.342  1.00 51.44    -0.002 A 
HETATM   30  CAD   D T2021       9.578   2.125  -6.248  1.00 51.45    -0.000 A 
HETATM   31  CAC   D T2021       8.639   2.164  -7.260  1.00 51.82    -0.000 A 
HETATM   32  CAE   D T2021       7.703   1.154  -7.370  1.00 50.90    -0.000 A 
HETATM   33  CAH   D T2021       7.707   0.108  -6.466  1.00 51.08    -0.002 A 
ENDBRANCH  26  28
ENDBRANCH  10  26
TORSDOF 6
ENDMDL
MODEL 3
REMARK VINA RESULT:    -6.890      6.653     11.141
REMARK INTER + INTRA:         -10.457
REMARK INTER:                  -9.206
REMARK INTRA:                  -1.250
REMARK UNBOUND:                -1.149
REMARK  6 active torsions:
REMARK  status: ('A' for Active; 'I' for Inactive)
REMARK    1  A    between atoms: NBF_3  and  CAN_4 
REMARK    2  A    between atoms: NBG_8  and  CAS_9 
REMARK    3  A    between atoms: CAS_9  and  CAX_10 
REMARK    4  A    between atoms: CAY_15  and  CBA_16 
REMARK    5  A    between atoms: NAV_25  and  CBE_26 
REMARK    6  A    between atoms: CBE_26  and  CAZ_28 
ROOT
HETATM    1  CBA   D T2021       9.963  -5.744  -0.599  1.00 48.38     0.083 A 
HETATM    2  NAW   D T2021      10.834  -6.606  -1.103  1.00 46.46    -0.227 NA
HETATM    3  CAM   D T2021       9.584  -6.162   0.601  1.00 46.71     0.025 A 
HETATM    4  C5    D T2021      10.211  -7.293   0.857  1.00 46.87     0.073 A 
HETATM    5  C4    D T2021      11.007  -7.571  -0.220  1.00 46.80     0.167 A 
HETATM    6  N3    D T2021      11.751  -8.675  -0.214  1.00 47.13    -0.205 NA
HETATM    7  C2    D T2021      11.731  -9.494   0.816  1.00 45.54     0.202 A 
HETATM    8  N1    D T2021      10.981  -9.253   1.868  1.00 45.28    -0.205 NA
HETATM    9  C6    D T2021      10.217  -8.167   1.920  1.00 46.82     0.163 A 
HETATM   10  NAV   D T2021       9.478  -7.952   2.987  1.00 49.40    -0.250 NA
ENDROOT
BRANCH   1  11
HETATM   11  CAY   D T2021       9.531  -4.587  -1.222  1.00 49.55     0.018 A 
HETATM   12  CAK   D T2021       9.392  -4.558  -2.595  1.00 50.94     0.001 A 
HETATM   13  CAI   D T2021       8.971  -3.402  -3.231  1.00 52.56    -0.002 A 
HETATM   14  CAX   D T2021       8.691  -2.270  -2.492  1.00 54.24     0.011 A 
HETATM   15  CAJ   D T2021       8.829  -2.301  -1.120  1.00 51.77    -0.002 A 
HETATM   16  CAL   D T2021       9.255  -3.454  -0.484  1.00 50.18     0.001 A 
BRANCH  14  17
HETATM   17  CAS   D T2021       8.219  -1.003  -3.194  1.00 59.34     0.277 C 
BRANCH  17  18
HETATM   18  NBG   D T2021       9.092  -0.766  -4.347  1.00 64.50     0.146 N 
HETATM   19  CAQ   D T2021      10.194   0.155  -4.047  1.00 65.86     0.286 C 
HETATM   20  CAO   D T2021       9.679   1.587  -3.945  1.00 66.93     0.285 C 
HETATM   21  NBF   D T2021       9.001   1.968  -5.183  1.00 66.06     0.141 N 
HETATM   22  CAP   D T2021       7.849   1.088  -5.359  1.00 65.57     0.285 C 
HETATM   23  CAR   D T2021       8.339  -0.342  -5.531  1.00 65.21     0.286 C 
BRANCH  21  24
HETATM   24  CAN   D T2021       9.917   1.832  -6.319  1.00 64.26     0.251 C 
HETATM   25  CAA   D T2021       9.391   2.651  -7.497  1.00 61.05     0.037 C 
ENDBRANCH  21  24
ENDBRANCH  17  18
ENDBRANCH  14  17
ENDBRANCH   1  11
BRANCH  10  26
HETATM   26  CBE   D T2021       9.349  -9.029   3.963  1.00 51.58     0.127 C 
HETATM   27  CAB   D T2021       7.976  -9.667   3.842  1.00 54.00     0.031 C 
BRANCH  26  28
HETATM   28  CAZ   D T2021       9.509  -8.471   5.358  1.00 51.45    -0.000 A 
HETATM   29  CAG   D T2021       9.684  -9.327   6.426  1.00 51.44    -0.002 A 
HETATM   30  CAD   D T2021       9.826  -8.812   7.701  1.00 51.45    -0.000 A 
HETATM   31  CAC   D T2021       9.794  -7.446   7.908  1.00 51.82    -0.000 A 
HETATM   32  CAE   D T2021       9.621  -6.591   6.838  1.00 50.90    -0.000 A 
HETATM   33  CAH   D T2021       9.478  -7.103   5.561  1.00 51.08    -0.002 A 
ENDBRANCH  26  28
ENDBRANCH  10  26
TORSDOF 6
ENDMDL
MODEL 4
REMARK VINA RESULT:    -6.737      5.022     10.324
REMARK INTER + INTRA:         -10.249
REMARK INTER:                  -9.110
REMARK INTRA:                  -1.139
REMARK UNBOUND:                -1.149
REMARK  6 active torsions:
REMARK  status: ('A' for Active; 'I' for Inactive)
REMARK    1  A    between atoms: NBF_3  and  CAN_4 
REMARK    2  A    between atoms: NBG_8  and  CAS_9 
REMARK    3  A    between atoms: CAS_9  and  CAX_10 
REMARK    4  A    between atoms: CAY_15  and  CBA_16 
REMARK    5  A    between atoms: NAV_25  and  CBE_26 
REMARK    6  A    between atoms: CBE_26  and  CAZ_28 
ROOT
HETATM    1  CBA   D T2021      12.081  -2.785   1.696  1.00 48.38     0.083 A 
HETATM    2  NAW   D T2021      11.806  -1.906   2.649  1.00 46.46    -0.227 NA
HETATM    3  CAM   D T2021      13.143  -2.373   1.019  1.00 46.71     0.025 A 
HETATM    4  C5    D T2021      13.542  -1.229   1.540  1.00 46.87     0.073 A 
HETATM    5  C4    D T2021      12.698  -0.937   2.576  1.00 46.80     0.167 A 
HETATM    6  N3    D T2021      12.885   0.182   3.273  1.00 47.13    -0.205 NA
HETATM    7  C2    D T2021      13.872   1.002   2.979  1.00 45.54     0.202 A 
HETATM    8  N1    D T2021      14.702   0.747   1.993  1.00 45.28    -0.205 NA
HETATM    9  C6    D T2021      14.567  -0.354   1.262  1.00 46.82     0.163 A 
HETATM   10  NAV   D T2021      15.415  -0.582   0.282  1.00 49.40    -0.250 NA
ENDROOT
BRANCH   1  11
HETATM   11  CAY   D T2021      11.376  -3.951   1.457  1.00 49.55     0.018 A 
HETATM   12  CAK   D T2021      11.993  -5.005   0.814  1.00 50.94     0.001 A 
HETATM   13  CAI   D T2021      11.294  -6.174   0.560  1.00 52.56    -0.002 A 
HETATM   14  CAX   D T2021       9.975  -6.288   0.946  1.00 54.24     0.011 A 
HETATM   15  CAJ   D T2021       9.359  -5.234   1.590  1.00 51.77    -0.002 A 
HETATM   16  CAL   D T2021      10.055  -4.064   1.840  1.00 50.18     0.001 A 
BRANCH  14  17
HETATM   17  CAS   D T2021       9.212  -7.578   0.673  1.00 59.34     0.277 C 
BRANCH  17  18
HETATM   18  NBG   D T2021       8.773  -7.563  -0.726  1.00 64.50     0.146 N 
HETATM   19  CAQ   D T2021       7.317  -7.448  -0.863  1.00 65.86     0.286 C 
HETATM   20  CAO   D T2021       6.641  -8.768  -0.502  1.00 66.93     0.285 C 
HETATM   21  NBF   D T2021       7.162  -9.846  -1.341  1.00 66.06     0.141 N 
HETATM   22  CAP   D T2021       8.591  -9.983  -1.067  1.00 65.57     0.285 C 
HETATM   23  CAR   D T2021       9.300  -8.703  -1.482  1.00 65.21     0.286 C 
BRANCH  21  24
HETATM   24  CAN   D T2021       6.949  -9.530  -2.756  1.00 64.26     0.251 C 
HETATM   25  CAA   D T2021       5.452  -9.551  -3.061  1.00 61.05     0.037 C 
ENDBRANCH  21  24
ENDBRANCH  17  18
ENDBRANCH  14  17
ENDBRANCH   1  11
BRANCH  10  26
HETATM   26  CBE   D T2021      16.320   0.493  -0.109  1.00 51.58     0.127 C 
HETATM   27  CAB   D T2021      15.749   1.232  -1.307  1.00 54.00     0.031 C 
BRANCH  26  28
HETATM   28  CAZ   D T2021      17.663  -0.087  -0.487  1.00 51.45    -0.000 A 
HETATM   29  CAG   D T2021      17.745  -1.381  -0.958  1.00 51.44    -0.002 A 
HETATM   30  CAD   D T2021      18.977  -1.910  -1.299  1.00 51.45    -0.000 A 
HETATM   31  CAC   D T2021      20.122  -1.148  -1.170  1.00 51.82    -0.000 A 
HETATM   32  CAE   D T2021      20.037   0.148  -0.700  1.00 50.90    -0.000 A 
HETATM   33  CAH   D T2021      18.808   0.679  -0.358  1.00 51.08    -0.002 A 
ENDBRANCH  26  28
ENDBRANCH  10  26
TORSDOF 6
ENDMDL
MODEL 5
REMARK VINA RESULT:    -6.670      1.567      2.451
REMARK INTER + INTRA:         -10.159
REMARK INTER:                  -8.921
REMARK INTRA:                  -1.238
REMARK UNBOUND:                -1.149
REMARK  6 active torsions:
REMARK  status: ('A' for Active; 'I' for Inactive)
REMARK    1  A    between atoms: NBF_3  and  CAN_4 
REMARK    2  A    between atoms: NBG_8  and  CAS_9 
REMARK    3  A    between atoms: CAS_9  and  CAX_10 
REMARK    4  A    between atoms: CAY_15  and  CBA_16 
REMARK    5  A    between atoms: NAV_25  and  CBE_26 
REMARK    6  A    between atoms: CBE_26  and  CAZ_28 
ROOT
HETATM    1  CBA   D T2021      15.130  -1.863  -0.100  1.00 48.38     0.083 A 
HETATM    2  NAW   D T2021      14.365  -1.819   0.980  1.00 46.46    -0.227 NA
HETATM    3  CAM   D T2021      14.361  -1.802  -1.179  1.00 46.71     0.025 A 
HETATM    4  C5    D T2021      13.106  -1.723  -0.782  1.00 46.87     0.073 A 
HETATM    5  C4    D T2021      13.109  -1.729   0.586  1.00 46.80     0.167 A 
HETATM    6  N3    D T2021      11.952  -1.661   1.241  1.00 47.13    -0.205 NA
HETATM    7  C2    D T2021      10.812  -1.584   0.588  1.00 45.54     0.202 A 
HETATM    8  N1    D T2021      10.776  -1.571  -0.726  1.00 45.28    -0.205 NA
HETATM    9  C6    D T2021      11.897  -1.636  -1.434  1.00 46.82     0.163 A 
HETATM   10  NAV   D T2021      11.829  -1.621  -2.748  1.00 49.40    -0.250 NA
ENDROOT
BRANCH   1  11
HETATM   11  CAY   D T2021      16.510  -1.947  -0.100  1.00 49.55     0.018 A 
HETATM   12  CAK   D T2021      17.138  -2.920   0.651  1.00 50.94     0.001 A 
HETATM   13  CAI   D T2021      18.521  -3.007   0.668  1.00 52.56    -0.002 A 
HETATM   14  CAX   D T2021      19.277  -2.116  -0.065  1.00 54.24     0.011 A 
HETATM   15  CAJ   D T2021      18.649  -1.144  -0.817  1.00 51.77    -0.002 A 
HETATM   16  CAL   D T2021      17.267  -1.054  -0.830  1.00 50.18     0.001 A 
BRANCH  14  17
HETATM   17  CAS   D T2021      20.798  -2.220  -0.052  1.00 59.34     0.277 C 
BRANCH  17  18
HETATM   18  NBG   D T2021      21.169  -3.560  -0.513  1.00 64.50     0.146 N 
HETATM   19  CAQ   D T2021      22.543  -3.925  -0.153  1.00 65.86     0.286 C 
HETATM   20  CAO   D T2021      23.541  -3.176  -1.030  1.00 66.93     0.285 C 
HETATM   21  NBF   D T2021      23.280  -3.455  -2.442  1.00 66.06     0.141 N 
HETATM   22  CAP   D T2021      21.942  -2.962  -2.760  1.00 65.57     0.285 C 
HETATM   23  CAR   D T2021      20.919  -3.740  -1.946  1.00 65.21     0.286 C 
BRANCH  21  24
HETATM   24  CAN   D T2021      23.356  -4.897  -2.692  1.00 64.26     0.251 C 
HETATM   25  CAA   D T2021      23.619  -5.142  -4.177  1.00 61.05     0.037 C 
ENDBRANCH  21  24
ENDBRANCH  17  18
ENDBRANCH  14  17
ENDBRANCH   1  11
BRANCH  10  26
HETATM   26  CBE   D T2021      10.517  -1.769  -3.370  1.00 51.58     0.127 C 
HETATM   27  CAB   D T2021      10.551  -2.915  -4.368  1.00 54.00     0.031 C 
BRANCH  26  28
HETATM   28  CAZ   D T2021      10.154  -0.496  -4.099  1.00 51.45    -0.000 A 
HETATM   29  CAG   D T2021       8.956   0.132  -3.831  1.00 51.44    -0.002 A 
HETATM   30  CAD   D T2021       8.626   1.296  -4.503  1.00 51.45    -0.000 A 
HETATM   31  CAC   D T2021       9.492   1.828  -5.439  1.00 51.82    -0.000 A 
HETATM   32  CAE   D T2021      10.691   1.198  -5.704  1.00 50.90    -0.000 A 
HETATM   33  CAH   D T2021      11.024   0.035  -5.034  1.00 51.08    -0.002 A 
ENDBRANCH  26  28
ENDBRANCH  10  26
TORSDOF 6
ENDMDL
MODEL 6
REMARK VINA RESULT:    -6.531      5.246      8.435
REMARK INTER + INTRA:          -9.971
REMARK INTER:                  -8.937
REMARK INTRA:                  -1.034
REMARK UNBOUND:                -1.149
REMARK  6 active torsions:
REMARK  status: ('A' for Active; 'I' for Inactive)
REMARK    1  A    between atoms: NBF_3  and  CAN_4 
REMARK    2  A    between atoms: NBG_8  and  CAS_9 
REMARK    3  A    between atoms: CAS_9  and  CAX_10 
REMARK    4  A    between atoms: CAY_15  and  CBA_16 
REMARK    5  A    between atoms: NAV_25  and  CBE_26 
REMARK    6  A    between atoms: CBE_26  and  CAZ_28 
ROOT
HETATM    1  CBA   D T2021      10.686  -3.701   0.716  1.00 48.38     0.083 A 
HETATM    2  NAW   D T2021      11.938  -3.306   0.543  1.00 46.46    -0.227 NA
HETATM    3  CAM   D T2021       9.927  -3.166  -0.230  1.00 46.71     0.025 A 
HETATM    4  C5    D T2021      10.698  -2.426  -1.002  1.00 46.87     0.073 A 
HETATM    5  C4    D T2021      11.972  -2.519  -0.516  1.00 46.80     0.167 A 
HETATM    6  N3    D T2021      12.953  -1.853  -1.123  1.00 47.13    -0.205 NA
HETATM    7  C2    D T2021      12.707  -1.114  -2.184  1.00 45.54     0.202 A 
HETATM    8  N1    D T2021      11.494  -1.007  -2.679  1.00 45.28    -0.205 NA
HETATM    9  C6    D T2021      10.476  -1.648  -2.116  1.00 46.82     0.163 A 
HETATM   10  NAV   D T2021       9.273  -1.522  -2.635  1.00 49.40    -0.250 NA
ENDROOT
BRANCH   1  11
HETATM   11  CAY   D T2021      10.246  -4.548   1.717  1.00 49.55     0.018 A 
HETATM   12  CAK   D T2021      10.137  -4.082   3.011  1.00 50.94     0.001 A 
HETATM   13  CAI   D T2021       9.708  -4.924   4.024  1.00 52.56    -0.002 A 
HETATM   14  CAX   D T2021       9.391  -6.237   3.743  1.00 54.24     0.011 A 
HETATM   15  CAJ   D T2021       9.500  -6.702   2.448  1.00 51.77    -0.002 A 
HETATM   16  CAL   D T2021       9.933  -5.863   1.437  1.00 50.18     0.001 A 
BRANCH  14  17
HETATM   17  CAS   D T2021       8.911  -7.158   4.858  1.00 59.34     0.277 C 
BRANCH  17  18
HETATM   18  NBG   D T2021       9.963  -7.232   5.876  1.00 64.50     0.146 N 
HETATM   19  CAQ   D T2021      11.250  -7.677   5.332  1.00 65.86     0.286 C 
HETATM   20  CAO   D T2021      11.215  -9.173   5.035  1.00 66.93     0.285 C 
HETATM   21  NBF   D T2021      10.873  -9.919   6.245  1.00 66.06     0.141 N 
HETATM   22  CAP   D T2021       9.534  -9.512   6.665  1.00 65.57     0.285 C 
HETATM   23  CAR   D T2021       9.556  -8.036   7.032  1.00 65.21     0.286 C 
BRANCH  21  24
HETATM   24  CAN   D T2021      11.842  -9.628   7.305  1.00 64.26     0.251 C 
HETATM   25  CAA   D T2021      13.216 -10.156   6.897  1.00 61.05     0.037 C 
ENDBRANCH  21  24
ENDBRANCH  17  18
ENDBRANCH  14  17
ENDBRANCH   1  11
BRANCH  10  26
HETATM   26  CBE   D T2021       9.069  -0.503  -3.659  1.00 51.58     0.127 C 
HETATM   27  CAB   D T2021       8.194   0.609  -3.106  1.00 54.00     0.031 C 
BRANCH  26  28
HETATM   28  CAZ   D T2021       8.380  -1.118  -4.855  1.00 51.45    -0.000 A 
HETATM   29  CAG   D T2021       8.080  -0.337  -5.952  1.00 51.44    -0.002 A 
HETATM   30  CAD   D T2021       7.447  -0.903  -7.044  1.00 51.45    -0.000 A 
HETATM   31  CAC   D T2021       7.116  -2.244  -7.039  1.00 51.82    -0.000 A 
HETATM   32  CAE   D T2021       7.419  -3.024  -5.941  1.00 50.90    -0.000 A 
HETATM   33  CAH   D T2021       8.052  -2.462  -4.848  1.00 51.08    -0.002 A 
ENDBRANCH  26  28
ENDBRANCH  10  26
TORSDOF 6
ENDMDL
MODEL 7
REMARK VINA RESULT:    -6.400      5.623     10.940
REMARK INTER + INTRA:          -9.793
REMARK INTER:                  -8.560
REMARK INTRA:                  -1.234
REMARK UNBOUND:                -1.149
REMARK  6 active torsions:
REMARK  status: ('A' for Active; 'I' for Inactive)
REMARK    1  A    between atoms: NBF_3  and  CAN_4 
REMARK    2  A    between atoms: NBG_8  and  CAS_9 
REMARK    3  A    between atoms: CAS_9  and  CAX_10 
REMARK    4  A    between atoms: CAY_15  and  CBA_16 
REMARK    5  A    between atoms: NAV_25  and  CBE_26 
REMARK    6  A    between atoms: CBE_26  and  CAZ_28 
ROOT
HETATM    1  CBA   D T2021      14.198  -0.830   2.317  1.00 48.38     0.083 A 
HETATM    2  NAW   D T2021      15.485  -1.111   2.182  1.00 46.46    -0.227 NA
HETATM    3  CAM   D T2021      14.038  -0.009   3.345  1.00 46.71     0.025 A 
HETATM    4  C5    D T2021      15.226   0.228   3.867  1.00 46.87     0.073 A 
HETATM    5  C4    D T2021      16.143  -0.466   3.127  1.00 46.80     0.167 A 
HETATM    6  N3    D T2021      17.432  -0.397   3.453  1.00 47.13    -0.205 NA
HETATM    7  C2    D T2021      17.829   0.332   4.474  1.00 45.54     0.202 A 
HETATM    8  N1    D T2021      16.974   1.014   5.202  1.00 45.28    -0.205 NA
HETATM    9  C6    D T2021      15.675   0.985   4.925  1.00 46.82     0.163 A 
HETATM   10  NAV   D T2021      14.843   1.679   5.672  1.00 49.40    -0.250 NA
ENDROOT
BRANCH   1  11
HETATM   11  CAY   D T2021      13.186  -1.308   1.504  1.00 49.55     0.018 A 
HETATM   12  CAK   D T2021      11.881  -0.924   1.736  1.00 50.94     0.001 A 
HETATM   13  CAI   D T2021      10.857  -1.404   0.936  1.00 52.56    -0.002 A 
HETATM   14  CAX   D T2021      11.139  -2.274  -0.097  1.00 54.24     0.011 A 
HETATM   15  CAJ   D T2021      12.445  -2.657  -0.329  1.00 51.77    -0.002 A 
HETATM   16  CAL   D T2021      13.467  -2.181   0.473  1.00 50.18     0.001 A 
BRANCH  14  17
HETATM   17  CAS   D T2021      10.012  -2.794  -0.981  1.00 59.34     0.277 C 
BRANCH  17  18
HETATM   18  NBG   D T2021      10.339  -2.475  -2.374  1.00 64.50     0.146 N 
HETATM   19  CAQ   D T2021      10.280  -1.038  -2.658  1.00 65.86     0.286 C 
HETATM   20  CAO   D T2021       8.830  -0.567  -2.726  1.00 66.93     0.285 C 
HETATM   21  NBF   D T2021       8.100  -1.330  -3.738  1.00 66.06     0.141 N 
HETATM   22  CAP   D T2021       8.098  -2.734  -3.333  1.00 65.57     0.285 C 
HETATM   23  CAR   D T2021       9.530  -3.249  -3.321  1.00 65.21     0.286 C 
BRANCH  21  24
HETATM   24  CAN   D T2021       8.750  -1.184  -5.043  1.00 64.26     0.251 C 
HETATM   25  CAA   D T2021       8.317   0.134  -5.682  1.00 61.05     0.037 C 
ENDBRANCH  21  24
ENDBRANCH  17  18
ENDBRANCH  14  17
ENDBRANCH   1  11
BRANCH  10  26
HETATM   26  CBE   D T2021      15.352   2.261   6.909  1.00 51.58     0.127 C 
HETATM   27  CAB   D T2021      14.684   1.594   8.100  1.00 54.00     0.031 C 
BRANCH  26  28
HETATM   28  CAZ   D T2021      15.042   3.740   6.940  1.00 51.45    -0.000 A 
HETATM   29  CAG   D T2021      14.114   4.266   6.065  1.00 51.44    -0.002 A 
HETATM   30  CAD   D T2021      13.836   5.621   6.093  1.00 51.45    -0.000 A 
HETATM   31  CAC   D T2021      14.483   6.446   6.993  1.00 51.82    -0.000 A 
HETATM   32  CAE   D T2021      15.410   5.916   7.869  1.00 50.90    -0.000 A 
HETATM   33  CAH   D T2021      15.690   4.563   7.843  1.00 51.08    -0.002 A 
ENDBRANCH  26  28
ENDBRANCH  10  26
TORSDOF 6
ENDMDL
MODEL 8
REMARK VINA RESULT:    -5.917      4.532     10.702
REMARK INTER + INTRA:          -9.141
REMARK INTER:                  -7.964
REMARK INTRA:                  -1.177
REMARK UNBOUND:                -1.149
REMARK  6 active torsions:
REMARK  status: ('A' for Active; 'I' for Inactive)
REMARK    1  A    between atoms: NBF_3  and  CAN_4 
REMARK    2  A    between atoms: NBG_8  and  CAS_9 
REMARK    3  A    between atoms: CAS_9  and  CAX_10 
REMARK    4  A    between atoms: CAY_15  and  CBA_16 
REMARK    5  A    between atoms: NAV_25  and  CBE_26 
REMARK    6  A    between atoms: CBE_26  and  CAZ_28 
ROOT
HETATM    1  CBA   D T2021      10.212  -5.800  -1.528  1.00 48.38     0.083 A 
HETATM    2  NAW   D T2021       9.784  -7.053  -1.519  1.00 46.46    -0.227 NA
HETATM    3  CAM   D T2021      11.319  -5.714  -0.804  1.00 46.71     0.025 A 
HETATM    4  C5    D T2021      11.591  -6.914  -0.330  1.00 46.87     0.073 A 
HETATM    5  C4    D T2021      10.622  -7.763  -0.787  1.00 46.80     0.167 A 
HETATM    6  N3    D T2021      10.666  -9.049  -0.444  1.00 47.13    -0.205 NA
HETATM    7  C2    D T2021      11.631  -9.508   0.324  1.00 45.54     0.202 A 
HETATM    8  N1    D T2021      12.580  -8.718   0.776  1.00 45.28    -0.205 NA
HETATM    9  C6    D T2021      12.589  -7.426   0.467  1.00 46.82     0.163 A 
HETATM   10  NAV   D T2021      13.553  -6.662   0.934  1.00 49.40    -0.250 NA
ENDROOT
BRANCH   1  11
HETATM   11  CAY   D T2021       9.606  -4.753  -2.199  1.00 49.55     0.018 A 
HETATM   12  CAK   D T2021       9.637  -4.712  -3.578  1.00 50.94     0.001 A 
HETATM   13  CAI   D T2021       9.043  -3.663  -4.260  1.00 52.56    -0.002 A 
HETATM   14  CAX   D T2021       8.419  -2.650  -3.562  1.00 54.24     0.011 A 
HETATM   15  CAJ   D T2021       8.387  -2.692  -2.182  1.00 51.77    -0.002 A 
HETATM   16  CAL   D T2021       8.985  -3.738  -1.500  1.00 50.18     0.001 A 
BRANCH  14  17
HETATM   17  CAS   D T2021       7.759  -1.502  -4.315  1.00 59.34     0.277 C 
BRANCH  17  18
HETATM   18  NBG   D T2021       8.714  -0.995  -5.305  1.00 64.50     0.146 N 
HETATM   19  CAQ   D T2021       9.811  -0.234  -4.698  1.00 65.86     0.286 C 
HETATM   20  CAO   D T2021       9.321   1.135  -4.239  1.00 66.93     0.285 C 
HETATM   21  NBF   D T2021       8.738   1.865  -5.364  1.00 66.06     0.141 N 
HETATM   22  CAP   D T2021       7.582   1.111  -5.843  1.00 65.57     0.285 C 
HETATM   23  CAR   D T2021       8.053  -0.236  -6.371  1.00 65.21     0.286 C 
BRANCH  21  24
HETATM   24  CAN   D T2021       9.726   2.007  -6.437  1.00 64.26     0.251 C 
HETATM   25  CAA   D T2021       9.195   2.974  -7.493  1.00 61.05     0.037 C 
ENDBRANCH  21  24
ENDBRANCH  17  18
ENDBRANCH  14  17
ENDBRANCH   1  11
BRANCH  10  26
HETATM   26  CBE   D T2021      14.434  -7.214   1.958  1.00 51.58     0.127 C 
HETATM   27  CAB   D T2021      14.211  -6.484   3.272  1.00 54.00     0.031 C 
BRANCH  26  28
HETATM   28  CAZ   D T2021      15.875  -7.034   1.537  1.00 51.45    -0.000 A 
HETATM   29  CAG   D T2021      16.781  -6.471   2.411  1.00 51.44    -0.002 A 
HETATM   30  CAD   D T2021      18.098  -6.306   2.021  1.00 51.45    -0.000 A 
HETATM   31  CAC   D T2021      18.506  -6.702   0.762  1.00 51.82    -0.000 A 
HETATM   32  CAE   D T2021      17.597  -7.267  -0.110  1.00 50.90    -0.000 A 
HETATM   33  CAH   D T2021      16.280  -7.434   0.276  1.00 51.08    -0.002 A 
ENDBRANCH  26  28
ENDBRANCH  10  26
TORSDOF 6
ENDMDL
MODEL 9
REMARK VINA RESULT:    -5.827     13.200     15.630
REMARK INTER + INTRA:          -9.020
REMARK INTER:                  -7.824
REMARK INTRA:                  -1.196
REMARK UNBOUND:                -1.149
REMARK  6 active torsions:
REMARK  status: ('A' for Active; 'I' for Inactive)
REMARK    1  A    between atoms: NBF_3  and  CAN_4 
REMARK    2  A    between atoms: NBG_8  and  CAS_9 
REMARK    3  A    between atoms: CAS_9  and  CAX_10 
REMARK    4  A    between atoms: CAY_15  and  CBA_16 
REMARK    5  A    between atoms: NAV_25  and  CBE_26 
REMARK    6  A    between atoms: CBE_26  and  CAZ_28 
ROOT
HETATM    1  CBA   D T2021      19.872  11.909  -5.706  1.00 48.38     0.083 A 
HETATM    2  NAW   D T2021      19.911  13.201  -5.997  1.00 46.46    -0.227 NA
HETATM    3  CAM   D T2021      19.715  11.216  -6.825  1.00 46.71     0.025 A 
HETATM    4  C5    D T2021      19.649  12.070  -7.828  1.00 46.87     0.073 A 
HETATM    5  C4    D T2021      19.779  13.326  -7.304  1.00 46.80     0.167 A 
HETATM    6  N3    D T2021      19.742  14.380  -8.118  1.00 47.13    -0.205 NA
HETATM    7  C2    D T2021      19.587  14.222  -9.416  1.00 45.54     0.202 A 
HETATM    8  N1    D T2021      19.465  13.028  -9.951  1.00 45.28    -0.205 NA
HETATM    9  C6    D T2021      19.494  11.940  -9.189  1.00 46.82     0.163 A 
HETATM   10  NAV   D T2021      19.370  10.758  -9.754  1.00 49.40    -0.250 NA
ENDROOT
BRANCH   1  11
HETATM   11  CAY   D T2021      19.991  11.372  -4.437  1.00 49.55     0.018 A 
HETATM   12  CAK   D T2021      19.424  10.146  -4.155  1.00 50.94     0.001 A 
HETATM   13  CAI   D T2021      19.527   9.603  -2.885  1.00 52.56    -0.002 A 
HETATM   14  CAX   D T2021      20.195  10.290  -1.892  1.00 54.24     0.011 A 
HETATM   15  CAJ   D T2021      20.761  11.516  -2.175  1.00 51.77    -0.002 A 
HETATM   16  CAL   D T2021      20.655  12.061  -3.442  1.00 50.18     0.001 A 
BRANCH  14  17
HETATM   17  CAS   D T2021      20.313   9.686  -0.499  1.00 59.34     0.277 C 
BRANCH  17  18
HETATM   18  NBG   D T2021      19.074   8.960  -0.207  1.00 64.50     0.146 N 
HETATM   19  CAQ   D T2021      18.006   9.835   0.290  1.00 65.86     0.286 C 
HETATM   20  CAO   D T2021      18.286  10.252   1.730  1.00 66.93     0.285 C 
HETATM   21  NBF   D T2021      18.429   9.070   2.578  1.00 66.06     0.141 N 
HETATM   22  CAP   D T2021      19.579   8.307   2.100  1.00 65.57     0.285 C 
HETATM   23  CAR   D T2021      19.299   7.820   0.686  1.00 65.21     0.286 C 
BRANCH  21  24
HETATM   24  CAN   D T2021      17.217   8.250   2.507  1.00 64.26     0.251 C 
HETATM   25  CAA   D T2021      16.900   7.688   3.892  1.00 61.05     0.037 C 
ENDBRANCH  21  24
ENDBRANCH  17  18
ENDBRANCH  14  17
ENDBRANCH   1  11
BRANCH  10  26
HETATM   26  CBE   D T2021      18.972  10.704 -11.157  1.00 51.58     0.127 C 
HETATM   27  CAB   D T2021      17.720   9.854 -11.301  1.00 54.00     0.031 C 
BRANCH  26  28
HETATM   28  CAZ   D T2021      20.080  10.085 -11.976  1.00 51.45    -0.000 A 
HETATM   29  CAG   D T2021      20.657   8.900 -11.567  1.00 51.44    -0.002 A 
HETATM   30  CAD   D T2021      21.674   8.338 -12.318  1.00 51.45    -0.000 A 
HETATM   31  CAC   D T2021      22.113   8.958 -13.472  1.00 51.82    -0.000 A 
HETATM   32  CAE   D T2021      21.533  10.143 -13.879  1.00 50.90    -0.000 A 
HETATM   33  CAH   D T2021      20.516  10.708 -13.132  1.00 51.08    -0.002 A 
ENDBRANCH  26  28
ENDBRANCH  10  26
TORSDOF 6
ENDMDL
