MODEL 1
REMARK VINA RESULT:    -7.545      0.000      0.000
REMARK INTER + INTRA:         -11.247
REMARK INTER:                 -10.192
REMARK INTRA:                  -1.055
REMARK UNBOUND:                -1.055
REMARK  6 active torsions:
REMARK  status: ('A' for Active; 'I' for Inactive)
REMARK    1  A    between atoms: NBF_3  and  CAN_4 
REMARK    2  A    between atoms: NBG_8  and  CAS_9 
REMARK    3  A    between atoms: CAS_9  and  CAX_10 
REMARK    4  A    between atoms: CAY_15  and  CBA_16 
REMARK    5  A    between atoms: NAV_25  and  CBE_26 
REMARK    6  A    between atoms: CBE_26  and  CAZ_28 
ROOT
HETATM    1  CBA   D T2017      13.145  -2.038  -0.628  1.00 70.26     0.083 A 
HETATM    2  NAW   D T2017      12.330  -2.683   0.207  1.00 69.72    -0.227 NA
HETATM    3  CAM   D T2017      12.430  -1.534  -1.635  1.00 68.99     0.025 A 
HETATM    4  C5    D T2017      11.157  -1.860  -1.439  1.00 68.84     0.073 A 
HETATM    5  C4    D T2017      11.093  -2.591  -0.267  1.00 68.77     0.167 A 
HETATM    6  N3    D T2017       9.907  -3.045   0.159  1.00 68.59    -0.205 NA
HETATM    7  C2    D T2017       8.806  -2.798  -0.532  1.00 69.65     0.202 A 
HETATM    8  N1    D T2017       8.832  -2.101  -1.659  1.00 69.48    -0.205 NA
HETATM    9  C6    D T2017       9.986  -1.619  -2.139  1.00 69.36     0.163 A 
HETATM   10  NAV   D T2017      10.008  -0.920  -3.270  1.00 70.92    -0.250 NA
ENDROOT
BRANCH   1  11
HETATM   11  CAY   D T2017      14.521  -1.911  -0.474  1.00 71.68     0.018 A 
HETATM   12  CAK   D T2017      15.198  -2.729   0.423  1.00 73.27     0.001 A 
HETATM   13  CAI   D T2017      16.575  -2.602   0.577  1.00 74.78    -0.002 A 
HETATM   14  CAX   D T2017      17.273  -1.658  -0.165  1.00 77.32     0.011 A 
HETATM   15  CAJ   D T2017      16.595  -0.839  -1.062  1.00 74.40    -0.002 A 
HETATM   16  CAL   D T2017      15.220  -0.966  -1.217  1.00 72.43     0.001 A 
BRANCH  14  17
HETATM   17  CAS   D T2017      18.788  -1.518   0.005  1.00 81.79     0.277 C 
BRANCH  17  18
HETATM   18  NBG   D T2017      19.432  -1.535  -1.316  1.00 86.70     0.146 N 
HETATM   19  CAQ   D T2017      19.741  -2.921  -1.695  1.00 87.93     0.286 C 
HETATM   20  CAO   D T2017      20.695  -3.531  -0.665  1.00 90.08     0.285 C 
HETATM   21  NBF   D T2017      21.936  -2.744  -0.621  1.00 91.56     0.141 N 
HETATM   22  CAP   D T2017      21.625  -1.360  -0.240  1.00 90.83     0.285 C 
HETATM   23  CAR   D T2017      20.672  -0.749  -1.269  1.00 89.55     0.286 C 
BRANCH  21  24
HETATM   24  CAN   D T2017      22.572  -2.757  -1.946  1.00 91.78     0.251 C 
HETATM   25  CAA   D T2017      22.875  -4.200  -2.355  1.00 91.26     0.037 C 
ENDBRANCH  21  24
ENDBRANCH  17  18
ENDBRANCH  14  17
ENDBRANCH   1  11
BRANCH  10  26
HETATM   26  CBE   D T2017       8.932  -1.086  -4.258  1.00 72.13     0.127 C 
HETATM   27  CAB   D T2017       9.125  -2.406  -5.006  1.00 72.05     0.031 C 
BRANCH  26  28
HETATM   28  CAZ   D T2017       8.968   0.075  -5.253  1.00 72.85    -0.000 A 
HETATM   29  CAG   D T2017       7.901   0.282  -6.119  1.00 73.42    -0.002 A 
HETATM   30  CAD   D T2017       7.934   1.337  -7.024  1.00 73.74    -0.000 A 
HETATM   31  CAC   D T2017       9.034   2.185  -7.062  1.00 73.88    -0.000 A 
HETATM   32  CAE   D T2017      10.102   1.979  -6.196  1.00 74.18    -0.000 A 
HETATM   33  CAH   D T2017      10.068   0.924  -5.292  1.00 74.00    -0.002 A 
ENDBRANCH  26  28
ENDBRANCH  10  26
TORSDOF 6
ENDMDL
MODEL 2
REMARK VINA RESULT:    -7.536      4.983      5.905
REMARK INTER + INTRA:         -11.234
REMARK INTER:                 -10.130
REMARK INTRA:                  -1.104
REMARK UNBOUND:                -1.055
REMARK  6 active torsions:
REMARK  status: ('A' for Active; 'I' for Inactive)
REMARK    1  A    between atoms: NBF_3  and  CAN_4 
REMARK    2  A    between atoms: NBG_8  and  CAS_9 
REMARK    3  A    between atoms: CAS_9  and  CAX_10 
REMARK    4  A    between atoms: CAY_15  and  CBA_16 
REMARK    5  A    between atoms: NAV_25  and  CBE_26 
REMARK    6  A    between atoms: CBE_26  and  CAZ_28 
ROOT
HETATM    1  CBA   D T2017      11.221  -2.208   1.362  1.00 70.26     0.083 A 
HETATM    2  NAW   D T2017      10.502  -3.325   1.483  1.00 69.72    -0.227 NA
HETATM    3  CAM   D T2017      11.065  -1.719   0.131  1.00 68.99     0.025 A 
HETATM    4  C5    D T2017      10.244  -2.527  -0.532  1.00 68.84     0.073 A 
HETATM    5  C4    D T2017       9.886  -3.549   0.327  1.00 68.77     0.167 A 
HETATM    6  N3    D T2017       9.055  -4.508  -0.103  1.00 68.59    -0.205 NA
HETATM    7  C2    D T2017       8.580  -4.479  -1.337  1.00 69.65     0.202 A 
HETATM    8  N1    D T2017       8.903  -3.515  -2.186  1.00 69.48    -0.205 NA
HETATM    9  C6    D T2017       9.730  -2.527  -1.819  1.00 69.36     0.163 A 
HETATM   10  NAV   D T2017      10.051  -1.560  -2.674  1.00 70.92    -0.250 NA
ENDROOT
BRANCH   1  11
HETATM   11  CAY   D T2017      12.009  -1.646   2.359  1.00 71.68     0.018 A 
HETATM   12  CAK   D T2017      12.013  -2.196   3.635  1.00 73.27     0.001 A 
HETATM   13  CAI   D T2017      12.801  -1.632   4.633  1.00 74.78    -0.002 A 
HETATM   14  CAX   D T2017      13.583  -0.518   4.355  1.00 77.32     0.011 A 
HETATM   15  CAJ   D T2017      13.578   0.033   3.078  1.00 74.40    -0.002 A 
HETATM   16  CAL   D T2017      12.792  -0.530   2.080  1.00 72.43     0.001 A 
BRANCH  14  17
HETATM   17  CAS   D T2017      14.451   0.102   5.453  1.00 81.79     0.277 C 
BRANCH  17  18
HETATM   18  NBG   D T2017      15.174   1.260   4.910  1.00 86.70     0.146 N 
HETATM   19  CAQ   D T2017      16.622   1.046   5.053  1.00 87.93     0.286 C 
HETATM   20  CAO   D T2017      16.971   0.887   6.534  1.00 90.08     0.285 C 
HETATM   21  NBF   D T2017      16.579   2.102   7.263  1.00 91.56     0.141 N 
HETATM   22  CAP   D T2017      15.132   2.313   7.122  1.00 90.83     0.285 C 
HETATM   23  CAR   D T2017      14.781   2.472   5.641  1.00 89.55     0.286 C 
BRANCH  21  24
HETATM   24  CAN   D T2017      17.298   3.258   6.711  1.00 91.78     0.251 C 
HETATM   25  CAA   D T2017      17.095   4.471   7.621  1.00 91.26     0.037 C 
ENDBRANCH  21  24
ENDBRANCH  17  18
ENDBRANCH  14  17
ENDBRANCH   1  11
BRANCH  10  26
HETATM   26  CBE   D T2017       9.955  -1.799  -4.121  1.00 72.13     0.127 C 
HETATM   27  CAB   D T2017      11.229  -2.488  -4.611  1.00 72.05     0.031 C 
BRANCH  26  28
HETATM   28  CAZ   D T2017       9.785  -0.463  -4.848  1.00 72.85    -0.000 A 
HETATM   29  CAG   D T2017      10.884   0.364  -5.049  1.00 73.42    -0.002 A 
HETATM   30  CAD   D T2017      10.731   1.578  -5.709  1.00 73.74    -0.000 A 
HETATM   31  CAC   D T2017       9.477   1.964  -6.169  1.00 73.88    -0.000 A 
HETATM   32  CAE   D T2017       8.378   1.137  -5.969  1.00 74.18    -0.000 A 
HETATM   33  CAH   D T2017       8.533  -0.076  -5.309  1.00 74.00    -0.002 A 
ENDBRANCH  26  28
ENDBRANCH  10  26
TORSDOF 6
ENDMDL
MODEL 3
REMARK VINA RESULT:    -7.471      1.184      2.059
REMARK INTER + INTRA:         -11.147
REMARK INTER:                  -9.991
REMARK INTRA:                  -1.157
REMARK UNBOUND:                -1.055
REMARK  6 active torsions:
REMARK  status: ('A' for Active; 'I' for Inactive)
REMARK    1  A    between atoms: NBF_3  and  CAN_4 
REMARK    2  A    between atoms: NBG_8  and  CAS_9 
REMARK    3  A    between atoms: CAS_9  and  CAX_10 
REMARK    4  A    between atoms: CAY_15  and  CBA_16 
REMARK    5  A    between atoms: NAV_25  and  CBE_26 
REMARK    6  A    between atoms: CBE_26  and  CAZ_28 
ROOT
HETATM    1  CBA   D T2017      13.363  -2.102  -0.588  1.00 70.26     0.083 A 
HETATM    2  NAW   D T2017      12.557  -2.659   0.317  1.00 69.72    -0.227 NA
HETATM    3  CAM   D T2017      12.627  -1.618  -1.590  1.00 68.99     0.025 A 
HETATM    4  C5    D T2017      11.350  -1.869  -1.320  1.00 68.84     0.073 A 
HETATM    5  C4    D T2017      11.305  -2.531  -0.107  1.00 68.77     0.167 A 
HETATM    6  N3    D T2017      10.119  -2.901   0.395  1.00 68.59    -0.205 NA
HETATM    7  C2    D T2017       9.001  -2.636  -0.260  1.00 69.65     0.202 A 
HETATM    8  N1    D T2017       9.009  -2.004  -1.424  1.00 69.48    -0.205 NA
HETATM    9  C6    D T2017      10.160  -1.607  -1.981  1.00 69.36     0.163 A 
HETATM   10  NAV   D T2017      10.163  -0.972  -3.149  1.00 70.92    -0.250 NA
ENDROOT
BRANCH   1  11
HETATM   11  CAY   D T2017      14.748  -2.037  -0.501  1.00 71.68     0.018 A 
HETATM   12  CAK   D T2017      15.457  -1.170  -1.324  1.00 73.27     0.001 A 
HETATM   13  CAI   D T2017      16.843  -1.105  -1.237  1.00 74.78    -0.002 A 
HETATM   14  CAX   D T2017      17.521  -1.908  -0.328  1.00 77.32     0.011 A 
HETATM   15  CAJ   D T2017      16.812  -2.776   0.495  1.00 74.40    -0.002 A 
HETATM   16  CAL   D T2017      15.427  -2.841   0.409  1.00 72.43     0.001 A 
BRANCH  14  17
HETATM   17  CAS   D T2017      19.047  -1.836  -0.233  1.00 81.79     0.277 C 
BRANCH  17  18
HETATM   18  NBG   D T2017      19.487  -0.452  -0.455  1.00 86.70     0.146 N 
HETATM   19  CAQ   D T2017      20.824  -0.454  -1.067  1.00 87.93     0.286 C 
HETATM   20  CAO   D T2017      21.814  -1.150  -0.130  1.00 90.08     0.285 C 
HETATM   21  NBF   D T2017      21.861  -0.433   1.153  1.00 91.56     0.141 N 
HETATM   22  CAP   D T2017      20.525  -0.435   1.764  1.00 90.83     0.285 C 
HETATM   23  CAR   D T2017      19.535   0.261   0.828  1.00 89.55     0.286 C 
BRANCH  21  24
HETATM   24  CAN   D T2017      22.293   0.953   0.924  1.00 91.78     0.251 C 
HETATM   25  CAA   D T2017      22.709   1.586   2.253  1.00 91.26     0.037 C 
ENDBRANCH  21  24
ENDBRANCH  17  18
ENDBRANCH  14  17
ENDBRANCH   1  11
BRANCH  10  26
HETATM   26  CBE   D T2017       9.036  -1.138  -4.079  1.00 72.13     0.127 C 
HETATM   27  CAB   D T2017       9.172  -2.472  -4.814  1.00 72.05     0.031 C 
BRANCH  26  28
HETATM   28  CAZ   D T2017       9.038   0.007  -5.093  1.00 72.85    -0.000 A 
HETATM   29  CAG   D T2017       7.942   0.201  -5.926  1.00 73.42    -0.002 A 
HETATM   30  CAD   D T2017       7.944   1.241  -6.848  1.00 73.74    -0.000 A 
HETATM   31  CAC   D T2017       9.043   2.087  -6.937  1.00 73.88    -0.000 A 
HETATM   32  CAE   D T2017      10.139   1.895  -6.105  1.00 74.18    -0.000 A 
HETATM   33  CAH   D T2017      10.136   0.855  -5.183  1.00 74.00    -0.002 A 
ENDBRANCH  26  28
ENDBRANCH  10  26
TORSDOF 6
ENDMDL
MODEL 4
REMARK VINA RESULT:    -6.938      6.481     10.461
REMARK INTER + INTRA:         -10.426
REMARK INTER:                  -9.591
REMARK INTRA:                  -0.835
REMARK UNBOUND:                -1.055
REMARK  6 active torsions:
REMARK  status: ('A' for Active; 'I' for Inactive)
REMARK    1  A    between atoms: NBF_3  and  CAN_4 
REMARK    2  A    between atoms: NBG_8  and  CAS_9 
REMARK    3  A    between atoms: CAS_9  and  CAX_10 
REMARK    4  A    between atoms: CAY_15  and  CBA_16 
REMARK    5  A    between atoms: NAV_25  and  CBE_26 
REMARK    6  A    between atoms: CBE_26  and  CAZ_28 
ROOT
HETATM    1  CBA   D T2017       9.355  -4.392  -1.194  1.00 70.26     0.083 A 
HETATM    2  NAW   D T2017       8.836  -5.618  -1.275  1.00 69.72    -0.227 NA
HETATM    3  CAM   D T2017       9.845  -4.205   0.033  1.00 68.99     0.025 A 
HETATM    4  C5    D T2017       9.637  -5.315   0.732  1.00 68.84     0.073 A 
HETATM    5  C4    D T2017       8.996  -6.215  -0.099  1.00 68.77     0.167 A 
HETATM    6  N3    D T2017       8.669  -7.426   0.371  1.00 68.59    -0.205 NA
HETATM    7  C2    D T2017       8.957  -7.762   1.618  1.00 69.65     0.202 A 
HETATM    8  N1    D T2017       9.571  -6.924   2.441  1.00 69.48    -0.205 NA
HETATM    9  C6    D T2017       9.924  -5.698   2.033  1.00 69.36     0.163 A 
HETATM   10  NAV   D T2017      10.541  -4.861   2.862  1.00 70.92    -0.250 NA
ENDROOT
BRANCH   1  11
HETATM   11  CAY   D T2017       9.380  -3.458  -2.223  1.00 71.68     0.018 A 
HETATM   12  CAK   D T2017      10.173  -3.677  -3.343  1.00 73.27     0.001 A 
HETATM   13  CAI   D T2017      10.197  -2.742  -4.372  1.00 74.78    -0.002 A 
HETATM   14  CAX   D T2017       9.430  -1.588  -4.280  1.00 77.32     0.011 A 
HETATM   15  CAJ   D T2017       8.637  -1.367  -3.160  1.00 74.40    -0.002 A 
HETATM   16  CAL   D T2017       8.611  -2.302  -2.131  1.00 72.43     0.001 A 
BRANCH  14  17
HETATM   17  CAS   D T2017       9.457  -0.559  -5.413  1.00 81.79     0.277 C 
BRANCH  17  18
HETATM   18  NBG   D T2017       8.704   0.636  -5.007  1.00 86.70     0.146 N 
HETATM   19  CAQ   D T2017       7.573   0.840  -5.925  1.00 87.93     0.286 C 
HETATM   20  CAO   D T2017       8.100   1.039  -7.348  1.00 90.08     0.285 C 
HETATM   21  NBF   D T2017       8.981   2.215  -7.384  1.00 91.56     0.141 N 
HETATM   22  CAP   D T2017      10.112   2.009  -6.469  1.00 90.83     0.285 C 
HETATM   23  CAR   D T2017       9.587   1.810  -5.046  1.00 89.55     0.286 C 
BRANCH  21  24
HETATM   24  CAN   D T2017       8.226   3.406  -6.969  1.00 91.78     0.251 C 
HETATM   25  CAA   D T2017       8.369   4.499  -8.030  1.00 91.26     0.037 C 
ENDBRANCH  21  24
ENDBRANCH  17  18
ENDBRANCH  14  17
ENDBRANCH   1  11
BRANCH  10  26
HETATM   26  CBE   D T2017      10.395  -5.026   4.315  1.00 72.13     0.127 C 
HETATM   27  CAB   D T2017       8.914  -4.963   4.691  1.00 72.05     0.031 C 
BRANCH  26  28
HETATM   28  CAZ   D T2017      11.152  -3.908   5.035  1.00 72.85    -0.000 A 
HETATM   29  CAG   D T2017      11.319  -3.957   6.414  1.00 73.42    -0.002 A 
HETATM   30  CAD   D T2017      12.006  -2.941   7.068  1.00 73.74    -0.000 A 
HETATM   31  CAC   D T2017      12.527  -1.876   6.342  1.00 73.88    -0.000 A 
HETATM   32  CAE   D T2017      12.361  -1.827   4.963  1.00 74.18    -0.000 A 
HETATM   33  CAH   D T2017      11.674  -2.843   4.310  1.00 74.00    -0.002 A 
ENDBRANCH  26  28
ENDBRANCH  10  26
TORSDOF 6
ENDMDL
MODEL 5
REMARK VINA RESULT:    -6.646      5.547     10.472
REMARK INTER + INTRA:         -10.033
REMARK INTER:                  -8.973
REMARK INTRA:                  -1.060
REMARK UNBOUND:                -1.055
REMARK  6 active torsions:
REMARK  status: ('A' for Active; 'I' for Inactive)
REMARK    1  A    between atoms: NBF_3  and  CAN_4 
REMARK    2  A    between atoms: NBG_8  and  CAS_9 
REMARK    3  A    between atoms: CAS_9  and  CAX_10 
REMARK    4  A    between atoms: CAY_15  and  CBA_16 
REMARK    5  A    between atoms: NAV_25  and  CBE_26 
REMARK    6  A    between atoms: CBE_26  and  CAZ_28 
ROOT
HETATM    1  CBA   D T2017      11.090  -3.482   0.752  1.00 70.26     0.083 A 
HETATM    2  NAW   D T2017      11.354  -4.782   0.894  1.00 69.72    -0.227 NA
HETATM    3  CAM   D T2017      11.604  -2.817   1.788  1.00 68.99     0.025 A 
HETATM    4  C5    D T2017      12.196  -3.696   2.589  1.00 68.84     0.073 A 
HETATM    5  C4    D T2017      12.037  -4.946   2.021  1.00 68.77     0.167 A 
HETATM    6  N3    D T2017      12.548  -6.019   2.639  1.00 68.59    -0.205 NA
HETATM    7  C2    D T2017      13.200  -5.886   3.783  1.00 69.65     0.202 A 
HETATM    8  N1    D T2017      13.370  -4.703   4.355  1.00 69.48    -0.205 NA
HETATM    9  C6    D T2017      12.883  -3.592   3.787  1.00 69.36     0.163 A 
HETATM   10  NAV   D T2017      13.057  -2.406   4.364  1.00 70.92    -0.250 NA
ENDROOT
BRANCH   1  11
HETATM   11  CAY   D T2017      10.390  -2.912  -0.305  1.00 71.68     0.018 A 
HETATM   12  CAK   D T2017      10.008  -1.577  -0.246  1.00 73.27     0.001 A 
HETATM   13  CAI   D T2017       9.307  -1.008  -1.305  1.00 74.78    -0.002 A 
HETATM   14  CAX   D T2017       8.989  -1.773  -2.419  1.00 77.32     0.011 A 
HETATM   15  CAJ   D T2017       9.370  -3.109  -2.477  1.00 74.40    -0.002 A 
HETATM   16  CAL   D T2017      10.071  -3.678  -1.421  1.00 72.43     0.001 A 
BRANCH  14  17
HETATM   17  CAS   D T2017       8.218  -1.145  -3.583  1.00 81.79     0.277 C 
BRANCH  17  18
HETATM   18  NBG   D T2017       9.105  -1.024  -4.749  1.00 86.70     0.146 N 
HETATM   19  CAQ   D T2017      10.150  -0.029  -4.469  1.00 87.93     0.286 C 
HETATM   20  CAO   D T2017       9.501   1.329  -4.191  1.00 90.08     0.285 C 
HETATM   21  NBF   D T2017       8.721   1.749  -5.365  1.00 91.56     0.141 N 
HETATM   22  CAP   D T2017       7.676   0.755  -5.640  1.00 90.83     0.285 C 
HETATM   23  CAR   D T2017       8.324  -0.603  -5.920  1.00 89.55     0.286 C 
BRANCH  21  24
HETATM   24  CAN   D T2017       9.611   1.861  -6.529  1.00 91.78     0.251 C 
HETATM   25  CAA   D T2017       9.090   2.949  -7.470  1.00 91.26     0.037 C 
ENDBRANCH  21  24
ENDBRANCH  17  18
ENDBRANCH  14  17
ENDBRANCH   1  11
BRANCH  10  26
HETATM   26  CBE   D T2017      13.302  -2.322   5.812  1.00 72.13     0.127 C 
HETATM   27  CAB   D T2017      11.969  -2.376   6.559  1.00 72.05     0.031 C 
BRANCH  26  28
HETATM   28  CAZ   D T2017      14.015  -1.008   6.133  1.00 72.85    -0.000 A 
HETATM   29  CAG   D T2017      14.329  -0.119   5.112  1.00 73.42    -0.002 A 
HETATM   30  CAD   D T2017      14.977   1.076   5.404  1.00 73.74    -0.000 A 
HETATM   31  CAC   D T2017      15.311   1.381   6.718  1.00 73.88    -0.000 A 
HETATM   32  CAE   D T2017      14.998   0.493   7.740  1.00 74.18    -0.000 A 
HETATM   33  CAH   D T2017      14.349  -0.701   7.447  1.00 74.00    -0.002 A 
ENDBRANCH  26  28
ENDBRANCH  10  26
TORSDOF 6
ENDMDL
MODEL 6
REMARK VINA RESULT:    -6.513      5.320     10.899
REMARK INTER + INTRA:          -9.852
REMARK INTER:                  -8.712
REMARK INTRA:                  -1.140
REMARK UNBOUND:                -1.055
REMARK  6 active torsions:
REMARK  status: ('A' for Active; 'I' for Inactive)
REMARK    1  A    between atoms: NBF_3  and  CAN_4 
REMARK    2  A    between atoms: NBG_8  and  CAS_9 
REMARK    3  A    between atoms: CAS_9  and  CAX_10 
REMARK    4  A    between atoms: CAY_15  and  CBA_16 
REMARK    5  A    between atoms: NAV_25  and  CBE_26 
REMARK    6  A    between atoms: CBE_26  and  CAZ_28 
ROOT
HETATM    1  CBA   D T2017      14.163  -0.969   1.637  1.00 70.26     0.083 A 
HETATM    2  NAW   D T2017      15.394  -1.477   1.555  1.00 69.72    -0.227 NA
HETATM    3  CAM   D T2017      14.118  -0.096   2.646  1.00 68.99     0.025 A 
HETATM    4  C5    D T2017      15.322  -0.050   3.205  1.00 68.84     0.073 A 
HETATM    5  C4    D T2017      16.134  -0.928   2.511  1.00 68.77     0.167 A 
HETATM    6  N3    D T2017      17.414  -1.071   2.881  1.00 68.59    -0.205 NA
HETATM    7  C2    D T2017      17.899  -0.379   3.899  1.00 69.65     0.202 A 
HETATM    8  N1    D T2017      17.148   0.471   4.584  1.00 69.48    -0.205 NA
HETATM    9  C6    D T2017      15.861   0.659   4.266  1.00 69.36     0.163 A 
HETATM   10  NAV   D T2017      15.112   1.514   4.956  1.00 70.92    -0.250 NA
ENDROOT
BRANCH   1  11
HETATM   11  CAY   D T2017      13.099  -1.297   0.806  1.00 71.68     0.018 A 
HETATM   12  CAK   D T2017      11.864  -1.623   1.354  1.00 73.27     0.001 A 
HETATM   13  CAI   D T2017      10.799  -1.951   0.522  1.00 74.78    -0.002 A 
HETATM   14  CAX   D T2017      10.969  -1.954  -0.856  1.00 77.32     0.011 A 
HETATM   15  CAJ   D T2017      12.205  -1.628  -1.405  1.00 74.40    -0.002 A 
HETATM   16  CAL   D T2017      13.269  -1.299  -0.574  1.00 72.43     0.001 A 
BRANCH  14  17
HETATM   17  CAS   D T2017       9.797  -2.316  -1.772  1.00 81.79     0.277 C 
BRANCH  17  18
HETATM   18  NBG   D T2017       9.821  -1.453  -2.962  1.00 86.70     0.146 N 
HETATM   19  CAQ   D T2017       8.556  -0.709  -3.055  1.00 87.93     0.286 C 
HETATM   20  CAO   D T2017       7.392  -1.695  -3.175  1.00 90.08     0.285 C 
HETATM   21  NBF   D T2017       7.569  -2.519  -4.380  1.00 91.56     0.141 N 
HETATM   22  CAP   D T2017       8.832  -3.263  -4.283  1.00 90.83     0.285 C 
HETATM   23  CAR   D T2017       9.997  -2.279  -4.164  1.00 89.55     0.286 C 
BRANCH  21  24
HETATM   24  CAN   D T2017       7.601  -1.651  -5.566  1.00 91.78     0.251 C 
HETATM   25  CAA   D T2017       7.072  -2.421  -6.778  1.00 91.26     0.037 C 
ENDBRANCH  21  24
ENDBRANCH  17  18
ENDBRANCH  14  17
ENDBRANCH   1  11
BRANCH  10  26
HETATM   26  CBE   D T2017      15.480   1.866   6.335  1.00 72.13     0.127 C 
HETATM   27  CAB   D T2017      14.734   0.955   7.311  1.00 72.05     0.031 C 
BRANCH  26  28
HETATM   28  CAZ   D T2017      15.103   3.323   6.608  1.00 72.85    -0.000 A 
HETATM   29  CAG   D T2017      15.788   4.049   7.576  1.00 73.42    -0.002 A 
HETATM   30  CAD   D T2017      15.446   5.373   7.824  1.00 73.74    -0.000 A 
HETATM   31  CAC   D T2017      14.419   5.972   7.103  1.00 73.88    -0.000 A 
HETATM   32  CAE   D T2017      13.734   5.247   6.136  1.00 74.18    -0.000 A 
HETATM   33  CAH   D T2017      14.077   3.923   5.888  1.00 74.00    -0.002 A 
ENDBRANCH  26  28
ENDBRANCH  10  26
TORSDOF 6
ENDMDL
MODEL 7
REMARK VINA RESULT:    -6.476      5.011      5.838
REMARK INTER + INTRA:          -9.803
REMARK INTER:                 -10.406
REMARK INTRA:                   0.603
REMARK UNBOUND:                -1.055
REMARK  6 active torsions:
REMARK  status: ('A' for Active; 'I' for Inactive)
REMARK    1  A    between atoms: NBF_3  and  CAN_4 
REMARK    2  A    between atoms: NBG_8  and  CAS_9 
REMARK    3  A    between atoms: CAS_9  and  CAX_10 
REMARK    4  A    between atoms: CAY_15  and  CBA_16 
REMARK    5  A    between atoms: NAV_25  and  CBE_26 
REMARK    6  A    between atoms: CBE_26  and  CAZ_28 
ROOT
HETATM    1  CBA   D T2017      10.292  -3.062  -1.108  1.00 70.26     0.083 A 
HETATM    2  NAW   D T2017      10.558  -4.174  -1.795  1.00 69.72    -0.227 NA
HETATM    3  CAM   D T2017       9.486  -2.283  -1.830  1.00 68.99     0.025 A 
HETATM    4  C5    D T2017       9.238  -2.902  -2.980  1.00 68.84     0.073 A 
HETATM    5  C4    D T2017       9.920  -4.104  -2.958  1.00 68.77     0.167 A 
HETATM    6  N3    D T2017       9.835  -4.926  -4.013  1.00 68.59    -0.205 NA
HETATM    7  C2    D T2017       9.106  -4.594  -5.066  1.00 69.65     0.202 A 
HETATM    8  N1    D T2017       8.441  -3.449  -5.119  1.00 69.48    -0.205 NA
HETATM    9  C6    D T2017       8.484  -2.583  -4.098  1.00 69.36     0.163 A 
HETATM   10  NAV   D T2017       7.814  -1.436  -4.156  1.00 70.92    -0.250 NA
ENDROOT
BRANCH   1  11
HETATM   11  CAY   D T2017      10.780  -2.763   0.159  1.00 71.68     0.018 A 
HETATM   12  CAK   D T2017      10.722  -3.715   1.169  1.00 73.27     0.001 A 
HETATM   13  CAI   D T2017      11.210  -3.415   2.437  1.00 74.78    -0.002 A 
HETATM   14  CAX   D T2017      11.753  -2.163   2.694  1.00 77.32     0.011 A 
HETATM   15  CAJ   D T2017      11.810  -1.209   1.684  1.00 74.40    -0.002 A 
HETATM   16  CAL   D T2017      11.324  -1.508   0.416  1.00 72.43     0.001 A 
BRANCH  14  17
HETATM   17  CAS   D T2017      12.290  -1.833   4.089  1.00 81.79     0.277 C 
BRANCH  17  18
HETATM   18  NBG   D T2017      13.694  -1.411   3.986  1.00 86.70     0.146 N 
HETATM   19  CAQ   D T2017      14.570  -2.586   4.100  1.00 87.93     0.286 C 
HETATM   20  CAO   D T2017      14.348  -3.259   5.456  1.00 90.08     0.285 C 
HETATM   21  NBF   D T2017      14.659  -2.307   6.533  1.00 91.56     0.141 N 
HETATM   22  CAP   D T2017      13.780  -1.135   6.418  1.00 90.83     0.285 C 
HETATM   23  CAR   D T2017      14.002  -0.461   5.063  1.00 89.55     0.286 C 
BRANCH  21  24
HETATM   24  CAN   D T2017      16.061  -1.882   6.420  1.00 91.78     0.251 C 
HETATM   25  CAA   D T2017      16.566  -1.415   7.787  1.00 91.26     0.037 C 
ENDBRANCH  21  24
ENDBRANCH  17  18
ENDBRANCH  14  17
ENDBRANCH   1  11
BRANCH  10  26
HETATM   26  CBE   D T2017       7.456  -0.859  -5.460  1.00 72.13     0.127 C 
HETATM   27  CAB   D T2017       7.494  -1.951  -6.529  1.00 72.05     0.031 C 
BRANCH  26  28
HETATM   28  CAZ   D T2017       8.453   0.244  -5.821  1.00 72.85    -0.000 A 
HETATM   29  CAG   D T2017       9.714   0.261  -5.235  1.00 73.42    -0.002 A 
HETATM   30  CAD   D T2017      10.620   1.263  -5.563  1.00 73.74    -0.000 A 
HETATM   31  CAC   D T2017      10.264   2.249  -6.477  1.00 73.88    -0.000 A 
HETATM   32  CAE   D T2017       9.004   2.232  -7.062  1.00 74.18    -0.000 A 
HETATM   33  CAH   D T2017       8.099   1.230  -6.735  1.00 74.00    -0.002 A 
ENDBRANCH  26  28
ENDBRANCH  10  26
TORSDOF 6
ENDMDL
MODEL 8
REMARK VINA RESULT:    -6.304      4.381     10.535
REMARK INTER + INTRA:          -9.571
REMARK INTER:                  -8.354
REMARK INTRA:                  -1.216
REMARK UNBOUND:                -1.055
REMARK  6 active torsions:
REMARK  status: ('A' for Active; 'I' for Inactive)
REMARK    1  A    between atoms: NBF_3  and  CAN_4 
REMARK    2  A    between atoms: NBG_8  and  CAS_9 
REMARK    3  A    between atoms: CAS_9  and  CAX_10 
REMARK    4  A    between atoms: CAY_15  and  CBA_16 
REMARK    5  A    between atoms: NAV_25  and  CBE_26 
REMARK    6  A    between atoms: CBE_26  and  CAZ_28 
ROOT
HETATM    1  CBA   D T2017       9.632  -3.081  -0.900  1.00 70.26     0.083 A 
HETATM    2  NAW   D T2017       9.048  -4.196  -0.458  1.00 69.72    -0.227 NA
HETATM    3  CAM   D T2017      10.538  -2.679  -0.007  1.00 68.99     0.025 A 
HETATM    4  C5    D T2017      10.529  -3.541   1.005  1.00 68.84     0.073 A 
HETATM    5  C4    D T2017       9.581  -4.505   0.719  1.00 68.77     0.167 A 
HETATM    6  N3    D T2017       9.372  -5.501   1.591  1.00 68.59    -0.205 NA
HETATM    7  C2    D T2017      10.067  -5.563   2.715  1.00 69.65     0.202 A 
HETATM    8  N1    D T2017      10.982  -4.655   3.020  1.00 69.48    -0.205 NA
HETATM    9  C6    D T2017      11.238  -3.635   2.191  1.00 69.36     0.163 A 
HETATM   10  NAV   D T2017      12.158  -2.726   2.501  1.00 70.92    -0.250 NA
ENDROOT
BRANCH   1  11
HETATM   11  CAY   D T2017       9.343  -2.441  -2.099  1.00 71.68     0.018 A 
HETATM   12  CAK   D T2017       8.022  -2.196  -2.456  1.00 73.27     0.001 A 
HETATM   13  CAI   D T2017       7.733  -1.556  -3.656  1.00 74.78    -0.002 A 
HETATM   14  CAX   D T2017       8.764  -1.161  -4.499  1.00 77.32     0.011 A 
HETATM   15  CAJ   D T2017      10.086  -1.407  -4.143  1.00 74.40    -0.002 A 
HETATM   16  CAL   D T2017      10.376  -2.046  -2.943  1.00 72.43     0.001 A 
BRANCH  14  17
HETATM   17  CAS   D T2017       8.446  -0.456  -5.820  1.00 81.79     0.277 C 
BRANCH  17  18
HETATM   18  NBG   D T2017       7.871   0.868  -5.542  1.00 86.70     0.146 N 
HETATM   19  CAQ   D T2017       7.127   1.338  -6.720  1.00 87.93     0.286 C 
HETATM   20  CAO   D T2017       8.079   1.446  -7.914  1.00 90.08     0.285 C 
HETATM   21  NBF   D T2017       9.155   2.397  -7.599  1.00 91.56     0.141 N 
HETATM   22  CAP   D T2017       9.898   1.924  -6.423  1.00 90.83     0.285 C 
HETATM   23  CAR   D T2017       8.948   1.816  -5.229  1.00 89.55     0.286 C 
BRANCH  21  24
HETATM   24  CAN   D T2017       8.574   3.716  -7.314  1.00 91.78     0.251 C 
HETATM   25  CAA   D T2017       8.167   4.392  -8.625  1.00 91.26     0.037 C 
ENDBRANCH  21  24
ENDBRANCH  17  18
ENDBRANCH  14  17
ENDBRANCH   1  11
BRANCH  10  26
HETATM   26  CBE   D T2017      12.532  -2.508   3.906  1.00 72.13     0.127 C 
HETATM   27  CAB   D T2017      12.248  -1.056   4.291  1.00 72.05     0.031 C 
BRANCH  26  28
HETATM   28  CAZ   D T2017      14.022  -2.803   4.091  1.00 72.85    -0.000 A 
HETATM   29  CAG   D T2017      14.530  -3.048   5.361  1.00 73.42    -0.002 A 
HETATM   30  CAD   D T2017      15.884  -3.316   5.529  1.00 73.74    -0.000 A 
HETATM   31  CAC   D T2017      16.729  -3.339   4.425  1.00 73.88    -0.000 A 
HETATM   32  CAE   D T2017      16.221  -3.096   3.155  1.00 74.18    -0.000 A 
HETATM   33  CAH   D T2017      14.867  -2.828   2.988  1.00 74.00    -0.002 A 
ENDBRANCH  26  28
ENDBRANCH  10  26
TORSDOF 6
ENDMDL
MODEL 9
REMARK VINA RESULT:    -6.273      6.893     10.948
REMARK INTER + INTRA:          -9.528
REMARK INTER:                  -8.312
REMARK INTRA:                  -1.215
REMARK UNBOUND:                -1.055
REMARK  6 active torsions:
REMARK  status: ('A' for Active; 'I' for Inactive)
REMARK    1  A    between atoms: NBF_3  and  CAN_4 
REMARK    2  A    between atoms: NBG_8  and  CAS_9 
REMARK    3  A    between atoms: CAS_9  and  CAX_10 
REMARK    4  A    between atoms: CAY_15  and  CBA_16 
REMARK    5  A    between atoms: NAV_25  and  CBE_26 
REMARK    6  A    between atoms: CBE_26  and  CAZ_28 
ROOT
HETATM    1  CBA   D T2017       9.525  -5.075   0.434  1.00 70.26     0.083 A 
HETATM    2  NAW   D T2017       9.576  -6.394   0.242  1.00 69.72    -0.227 NA
HETATM    3  CAM   D T2017       9.892  -4.802   1.687  1.00 68.99     0.025 A 
HETATM    4  C5    D T2017      10.177  -5.950   2.292  1.00 68.84     0.073 A 
HETATM    5  C4    D T2017       9.976  -6.963   1.373  1.00 68.77     0.167 A 
HETATM    6  N3    D T2017      10.196  -8.234   1.738  1.00 68.59    -0.205 NA
HETATM    7  C2    D T2017      10.602  -8.519   2.964  1.00 69.65     0.202 A 
HETATM    8  N1    D T2017      10.804  -7.572   3.869  1.00 69.48    -0.205 NA
HETATM    9  C6    D T2017      10.602  -6.282   3.568  1.00 69.36     0.163 A 
HETATM   10  NAV   D T2017      10.806  -5.336   4.479  1.00 70.92    -0.250 NA
ENDROOT
BRANCH   1  11
HETATM   11  CAY   D T2017       9.149  -4.136  -0.519  1.00 71.68     0.018 A 
HETATM   12  CAK   D T2017       8.990  -2.804  -0.158  1.00 73.27     0.001 A 
HETATM   13  CAI   D T2017       8.613  -1.864  -1.112  1.00 74.78    -0.002 A 
HETATM   14  CAX   D T2017       8.394  -2.258  -2.425  1.00 77.32     0.011 A 
HETATM   15  CAJ   D T2017       8.551  -3.591  -2.787  1.00 74.40    -0.002 A 
HETATM   16  CAL   D T2017       8.929  -4.531  -1.835  1.00 72.43     0.001 A 
BRANCH  14  17
HETATM   17  CAS   D T2017       7.979  -1.224  -3.475  1.00 81.79     0.277 C 
BRANCH  17  18
HETATM   18  NBG   D T2017       9.024  -1.125  -4.504  1.00 86.70     0.146 N 
HETATM   19  CAQ   D T2017      10.055  -0.173  -4.067  1.00 87.93     0.286 C 
HETATM   20  CAO   D T2017       9.423   1.206  -3.861  1.00 90.08     0.285 C 
HETATM   21  NBF   D T2017       8.831   1.667  -5.125  1.00 91.56     0.141 N 
HETATM   22  CAP   D T2017       7.799   0.716  -5.559  1.00 90.83     0.285 C 
HETATM   23  CAR   D T2017       8.430  -0.662  -5.766  1.00 89.55     0.286 C 
BRANCH  21  24
HETATM   24  CAN   D T2017       9.878   1.757  -6.152  1.00 91.78     0.251 C 
HETATM   25  CAA   D T2017       9.408   2.672  -7.285  1.00 91.26     0.037 C 
ENDBRANCH  21  24
ENDBRANCH  17  18
ENDBRANCH  14  17
ENDBRANCH   1  11
BRANCH  10  26
HETATM   26  CBE   D T2017      10.747  -5.668   5.910  1.00 72.13     0.127 C 
HETATM   27  CAB   D T2017       9.346  -5.371   6.446  1.00 72.05     0.031 C 
BRANCH  26  28
HETATM   28  CAZ   D T2017      11.774  -4.828   6.672  1.00 72.85    -0.000 A 
HETATM   29  CAG   D T2017      11.477  -3.517   7.024  1.00 73.42    -0.002 A 
HETATM   30  CAD   D T2017      12.410  -2.753   7.716  1.00 73.74    -0.000 A 
HETATM   31  CAC   D T2017      13.640  -3.302   8.056  1.00 73.88    -0.000 A 
HETATM   32  CAE   D T2017      13.939  -4.613   7.705  1.00 74.18    -0.000 A 
HETATM   33  CAH   D T2017      13.005  -5.376   7.014  1.00 74.00    -0.002 A 
ENDBRANCH  26  28
ENDBRANCH  10  26
TORSDOF 6
ENDMDL
