MODEL 1
REMARK VINA RESULT:    -8.665      0.000      0.000
REMARK INTER + INTRA:         -13.489
REMARK INTER:                 -12.210
REMARK INTRA:                  -1.279
REMARK UNBOUND:                -1.279
REMARK  7 active torsions:
REMARK  status: ('A' for Active; 'I' for Inactive)
REMARK    1  A    between atoms: NBB_6  and  CBA_7 
REMARK    2  A    between atoms: CAS_9  and  OAT_10 
REMARK    3  A    between atoms: CAL_14  and  NAH_15 
REMARK    4  A    between atoms: NAH_15  and  C2_16 
REMARK    5  A    between atoms: C4_22  and  NAE_23 
REMARK    6  A    between atoms: NAE_23  and  CAJ_24 
REMARK    7  A    between atoms: CAP_29  and  CAO_30 
REMARK       I    between atoms: CAO_30  and  NAN_32 
ROOT
HETATM    1  C2    D T1686       2.797  13.078   0.258  1.00 17.61     0.752 A 
HETATM    2  N3    D T1686       3.967  13.191   0.900  1.00 18.51    -0.039 NA
HETATM    3  N1    D T1686       1.933  12.149   0.655  1.00 16.90    -0.057 NA
HETATM    4  C6    D T1686       2.217  11.342   1.670  1.00 16.74     0.133 A 
HETATM    5  C5    D T1686       3.409  11.445   2.365  1.00 17.83     0.114 A 
HETATM    6 CL5    D T1686       3.744  10.382   3.705  1.00 20.30    -0.077 Cl
HETATM    7  C4    D T1686       4.313  12.434   1.972  1.00 18.56     0.193 A 
ENDROOT
BRANCH   1   8
HETATM    8  NAH   D T1686       2.461  13.882  -0.769  1.00 18.72    -0.057 NA
BRANCH   8   9
HETATM    9  CAL   D T1686       3.288  14.309  -1.742  1.00 18.22     0.122 A 
HETATM   10  CAS   D T1686       3.288  15.672  -2.014  1.00 20.44     0.114 A 
HETATM   11  CAY   D T1686       4.125  16.191  -3.022  1.00 18.94     0.043 A 
HETATM   12  CBA   D T1686       4.984  15.362  -3.753  1.00 20.47     0.058 A 
HETATM   13  CAX   D T1686       4.975  13.983  -3.484  1.00 17.39     0.019 A 
HETATM   14  CAR   D T1686       4.147  13.473  -2.477  1.00 18.28     0.023 A 
BRANCH  10  15
HETATM   15  OAT   D T1686       2.445  16.440  -1.273  1.00 18.42    -0.327 OA
HETATM   16  CAU   D T1686       2.545  17.824  -1.643  1.00 20.67     0.181 C 
ENDBRANCH  10  15
BRANCH  12  17
HETATM   17  NBB   D T1686       5.850  15.881  -4.777  1.00 22.32    -0.343 N 
HETATM   18  CBC   D T1686       5.462  17.079  -5.555  1.00 27.64     0.134 C 
HETATM   19  CBE   D T1686       6.071  17.076  -6.972  1.00 28.37     0.167 C 
HETATM   20  OBG   D T1686       7.466  16.802  -6.908  1.00 28.23    -0.350 OA
HETATM   21  CBF   D T1686       7.696  15.467  -6.466  1.00 27.59     0.167 C 
HETATM   22  CBD   D T1686       7.132  15.193  -5.067  1.00 25.14     0.134 C 
ENDBRANCH  12  17
ENDBRANCH   8   9
ENDBRANCH   1   8
BRANCH   7  23
HETATM   23  NAE   D T1686       5.481  12.596   2.637  1.00 16.74    -0.225 NA
BRANCH  23  24
HETATM   24  CAJ   D T1686       6.598  11.836   2.546  1.00 21.60     0.088 A 
HETATM   25  CAQ   D T1686       6.925  10.963   3.605  1.00 19.37     0.019 A 
HETATM   26  CAW   D T1686       8.053  10.163   3.570  1.00 21.30     0.002 A 
HETATM   27  CAZ   D T1686       8.923  10.255   2.482  1.00 22.64     0.000 A 
HETATM   28  CAV   D T1686       8.626  11.126   1.437  1.00 23.23     0.006 A 
HETATM   29  CAP   D T1686       7.475  11.911   1.450  1.00 20.25     0.075 A 
BRANCH  29  30
HETATM   30  CAO   D T1686       7.230  12.837   0.251  1.00 17.59     0.276 C 
HETATM   31  OAI   D T1686       6.863  12.366  -0.815  1.00 15.81    -0.266 OA
HETATM   32  NAN   D T1686       7.471  14.135   0.460  1.00 14.44    -0.232 NA
HETATM   33  CAM   D T1686       7.215  15.075  -0.640  1.00 17.53     0.155 C 
ENDBRANCH  29  30
ENDBRANCH  23  24
ENDBRANCH   7  23
TORSDOF 7
ENDMDL
MODEL 2
REMARK VINA RESULT:    -8.423      2.336      3.893
REMARK INTER + INTRA:         -13.149
REMARK INTER:                 -11.971
REMARK INTRA:                  -1.178
REMARK UNBOUND:                -1.279
REMARK  7 active torsions:
REMARK  status: ('A' for Active; 'I' for Inactive)
REMARK    1  A    between atoms: NBB_6  and  CBA_7 
REMARK    2  A    between atoms: CAS_9  and  OAT_10 
REMARK    3  A    between atoms: CAL_14  and  NAH_15 
REMARK    4  A    between atoms: NAH_15  and  C2_16 
REMARK    5  A    between atoms: C4_22  and  NAE_23 
REMARK    6  A    between atoms: NAE_23  and  CAJ_24 
REMARK    7  A    between atoms: CAP_29  and  CAO_30 
REMARK       I    between atoms: CAO_30  and  NAN_32 
ROOT
HETATM    1  C2    D T1686       4.110  16.194  -1.922  1.00 17.61     0.752 A 
HETATM    2  N3    D T1686       4.441  14.960  -1.518  1.00 18.51    -0.039 NA
HETATM    3  N1    D T1686       2.825  16.524  -1.994  1.00 16.90    -0.057 NA
HETATM    4  C6    D T1686       1.876  15.652  -1.673  1.00 16.74     0.133 A 
HETATM    5  C5    D T1686       2.186  14.376  -1.235  1.00 17.83     0.114 A 
HETATM    6 CL5    D T1686       0.919  13.260  -0.805  1.00 20.30    -0.077 Cl
HETATM    7  C4    D T1686       3.534  14.027  -1.132  1.00 18.56     0.193 A 
ENDROOT
BRANCH   1   8
HETATM    8  NAH   D T1686       5.038  17.116  -2.246  1.00 18.72    -0.057 NA
BRANCH   8   9
HETATM    9  CAL   D T1686       5.999  16.976  -3.177  1.00 18.22     0.122 A 
HETATM   10  CAS   D T1686       5.684  17.373  -4.471  1.00 20.44     0.114 A 
HETATM   11  CAY   D T1686       6.640  17.252  -5.500  1.00 18.94     0.043 A 
HETATM   12  CBA   D T1686       7.924  16.755  -5.245  1.00 20.47     0.058 A 
HETATM   13  CAX   D T1686       8.237  16.344  -3.939  1.00 17.39     0.019 A 
HETATM   14  CAR   D T1686       7.287  16.473  -2.920  1.00 18.28     0.023 A 
BRANCH  10  15
HETATM   15  OAT   D T1686       4.429  17.858  -4.670  1.00 18.42    -0.327 OA
HETATM   16  CAU   D T1686       4.317  18.495  -5.952  1.00 20.67     0.181 C 
ENDBRANCH  10  15
BRANCH  12  17
HETATM   17  NBB   D T1686       8.912  16.636  -6.284  1.00 22.32    -0.343 N 
HETATM   18  CBC   D T1686       8.509  16.640  -7.709  1.00 27.64     0.134 C 
HETATM   19  CBE   D T1686       9.486  15.836  -8.591  1.00 28.37     0.167 C 
HETATM   20  OBG   D T1686      10.828  16.228  -8.324  1.00 28.23    -0.350 OA
HETATM   21  CBF   D T1686      11.209  15.844  -7.006  1.00 27.59     0.167 C 
HETATM   22  CBD   D T1686      10.341  16.487  -5.919  1.00 25.14     0.134 C 
ENDBRANCH  12  17
ENDBRANCH   8   9
ENDBRANCH   1   8
BRANCH   7  23
HETATM   23  NAE   D T1686       3.891  12.801  -0.682  1.00 16.74    -0.225 NA
BRANCH  23  24
HETATM   24  CAJ   D T1686       4.126  12.425   0.597  1.00 21.60     0.088 A 
HETATM   25  CAQ   D T1686       3.052  11.962   1.387  1.00 19.37     0.019 A 
HETATM   26  CAW   D T1686       3.230  11.565   2.700  1.00 21.30     0.002 A 
HETATM   27  CAZ   D T1686       4.494  11.670   3.281  1.00 22.64     0.000 A 
HETATM   28  CAV   D T1686       5.562  12.143   2.523  1.00 23.23     0.006 A 
HETATM   29  CAP   D T1686       5.398  12.515   1.190  1.00 20.25     0.075 A 
BRANCH  29  30
HETATM   30  CAO   D T1686       6.633  13.019   0.432  1.00 17.59     0.276 C 
HETATM   31  OAI   D T1686       7.082  12.367  -0.498  1.00 15.81    -0.266 OA
HETATM   32  NAN   D T1686       7.164  14.161   0.879  1.00 14.44    -0.232 NA
HETATM   33  CAM   D T1686       8.324  14.714   0.167  1.00 17.53     0.155 C 
ENDBRANCH  29  30
ENDBRANCH  23  24
ENDBRANCH   7  23
TORSDOF 7
ENDMDL
MODEL 3
REMARK VINA RESULT:    -8.347      2.663      4.527
REMARK INTER + INTRA:         -13.042
REMARK INTER:                 -11.635
REMARK INTRA:                  -1.407
REMARK UNBOUND:                -1.279
REMARK  7 active torsions:
REMARK  status: ('A' for Active; 'I' for Inactive)
REMARK    1  A    between atoms: NBB_6  and  CBA_7 
REMARK    2  A    between atoms: CAS_9  and  OAT_10 
REMARK    3  A    between atoms: CAL_14  and  NAH_15 
REMARK    4  A    between atoms: NAH_15  and  C2_16 
REMARK    5  A    between atoms: C4_22  and  NAE_23 
REMARK    6  A    between atoms: NAE_23  and  CAJ_24 
REMARK    7  A    between atoms: CAP_29  and  CAO_30 
REMARK       I    between atoms: CAO_30  and  NAN_32 
ROOT
HETATM    1  C2    D T1686       4.168  16.100  -1.746  1.00 17.61     0.752 A 
HETATM    2  N3    D T1686       4.383  14.876  -1.245  1.00 18.51    -0.039 NA
HETATM    3  N1    D T1686       2.919  16.484  -1.992  1.00 16.90    -0.057 NA
HETATM    4  C6    D T1686       1.895  15.673  -1.750  1.00 16.74     0.133 A 
HETATM    5  C5    D T1686       2.084  14.410  -1.217  1.00 17.83     0.114 A 
HETATM    6 CL5    D T1686       0.717  13.378  -0.893  1.00 20.30    -0.077 Cl
HETATM    7  C4    D T1686       3.390  14.007  -0.930  1.00 18.56     0.193 A 
ENDROOT
BRANCH   1   8
HETATM    8  NAH   D T1686       5.174  16.960  -1.996  1.00 18.72    -0.057 NA
BRANCH   8   9
HETATM    9  CAL   D T1686       6.063  16.865  -3.002  1.00 18.22     0.122 A 
HETATM   10  CAS   D T1686       7.400  16.734  -2.649  1.00 20.44     0.114 A 
HETATM   11  CAY   D T1686       8.388  16.634  -3.650  1.00 18.94     0.043 A 
HETATM   12  CBA   D T1686       8.051  16.641  -5.009  1.00 20.47     0.058 A 
HETATM   13  CAX   D T1686       6.700  16.785  -5.364  1.00 17.39     0.019 A 
HETATM   14  CAR   D T1686       5.722  16.877  -4.367  1.00 18.28     0.023 A 
BRANCH  10  15
HETATM   15  OAT   D T1686       7.681  16.722  -1.319  1.00 18.42    -0.327 OA
HETATM   16  CAU   D T1686       8.148  15.430  -0.899  1.00 20.67     0.181 C 
ENDBRANCH  10  15
BRANCH  12  17
HETATM   17  NBB   D T1686       9.049  16.530  -6.039  1.00 22.32    -0.343 N 
HETATM   18  CBC   D T1686       8.658  16.511  -7.467  1.00 27.64     0.134 C 
HETATM   19  CBE   D T1686       9.656  15.717  -8.333  1.00 28.37     0.167 C 
HETATM   20  OBG   D T1686      10.989  16.136  -8.060  1.00 28.23    -0.350 OA
HETATM   21  CBF   D T1686      11.366  15.773  -6.735  1.00 27.59     0.167 C 
HETATM   22  CBD   D T1686      10.478  16.412  -5.661  1.00 25.14     0.134 C 
ENDBRANCH  12  17
ENDBRANCH   8   9
ENDBRANCH   1   8
BRANCH   7  23
HETATM   23  NAE   D T1686       3.625  12.793  -0.381  1.00 16.74    -0.225 NA
BRANCH  23  24
HETATM   24  CAJ   D T1686       4.332  12.513   0.740  1.00 21.60     0.088 A 
HETATM   25  CAQ   D T1686       5.740  12.442   0.666  1.00 19.37     0.019 A 
HETATM   26  CAW   D T1686       6.516  12.159   1.775  1.00 21.30     0.002 A 
HETATM   27  CAZ   D T1686       5.893  11.887   2.994  1.00 22.64     0.000 A 
HETATM   28  CAV   D T1686       4.503  11.934   3.082  1.00 23.23     0.006 A 
HETATM   29  CAP   D T1686       3.717  12.249   1.976  1.00 20.25     0.075 A 
BRANCH  29  30
HETATM   30  CAO   D T1686       2.195  12.282   2.169  1.00 17.59     0.276 C 
HETATM   31  OAI   D T1686       1.556  11.241   2.136  1.00 15.81    -0.266 OA
HETATM   32  NAN   D T1686       1.656  13.493   2.336  1.00 14.44    -0.232 NA
HETATM   33  CAM   D T1686       0.207  13.584   2.566  1.00 17.53     0.155 C 
ENDBRANCH  29  30
ENDBRANCH  23  24
ENDBRANCH   7  23
TORSDOF 7
ENDMDL
MODEL 4
REMARK VINA RESULT:    -8.099      2.562      4.473
REMARK INTER + INTRA:         -12.691
REMARK INTER:                 -11.396
REMARK INTRA:                  -1.295
REMARK UNBOUND:                -1.279
REMARK  7 active torsions:
REMARK  status: ('A' for Active; 'I' for Inactive)
REMARK    1  A    between atoms: NBB_6  and  CBA_7 
REMARK    2  A    between atoms: CAS_9  and  OAT_10 
REMARK    3  A    between atoms: CAL_14  and  NAH_15 
REMARK    4  A    between atoms: NAH_15  and  C2_16 
REMARK    5  A    between atoms: C4_22  and  NAE_23 
REMARK    6  A    between atoms: NAE_23  and  CAJ_24 
REMARK    7  A    between atoms: CAP_29  and  CAO_30 
REMARK       I    between atoms: CAO_30  and  NAN_32 
ROOT
HETATM    1  C2    D T1686       4.498  16.078  -1.804  1.00 17.61     0.752 A 
HETATM    2  N3    D T1686       4.501  14.784  -1.456  1.00 18.51    -0.039 NA
HETATM    3  N1    D T1686       3.335  16.712  -1.912  1.00 16.90    -0.057 NA
HETATM    4  C6    D T1686       2.189  16.081  -1.683  1.00 16.74     0.133 A 
HETATM    5  C5    D T1686       2.160  14.750  -1.305  1.00 17.83     0.114 A 
HETATM    6 CL5    D T1686       0.640  13.956  -0.993  1.00 20.30    -0.077 Cl
HETATM    7  C4    D T1686       3.378  14.082  -1.164  1.00 18.56     0.193 A 
ENDROOT
BRANCH   1   8
HETATM    8  NAH   D T1686       5.636  16.762  -2.035  1.00 18.72    -0.057 NA
BRANCH   8   9
HETATM    9  CAL   D T1686       6.504  16.536  -3.038  1.00 18.22     0.122 A 
HETATM   10  CAS   D T1686       7.857  16.612  -2.728  1.00 20.44     0.114 A 
HETATM   11  CAY   D T1686       8.824  16.391  -3.729  1.00 18.94     0.043 A 
HETATM   12  CBA   D T1686       8.454  16.071  -5.041  1.00 20.47     0.058 A 
HETATM   13  CAX   D T1686       7.087  16.005  -5.355  1.00 17.39     0.019 A 
HETATM   14  CAR   D T1686       6.130  16.219  -4.356  1.00 18.28     0.023 A 
BRANCH  10  15
HETATM   15  OAT   D T1686       8.170  16.915  -1.440  1.00 18.42    -0.327 OA
HETATM   16  CAU   D T1686       9.590  16.889  -1.231  1.00 20.67     0.181 C 
ENDBRANCH  10  15
BRANCH  12  17
HETATM   17  NBB   D T1686       9.431  15.834  -6.069  1.00 22.32    -0.343 N 
HETATM   18  CBC   D T1686      10.838  15.534  -5.715  1.00 27.64     0.134 C 
HETATM   19  CBE   D T1686      11.823  15.996  -6.808  1.00 28.37     0.167 C 
HETATM   20  OBG   D T1686      11.393  15.539  -8.085  1.00 28.23    -0.350 OA
HETATM   21  CBF   D T1686      10.180  16.182  -8.465  1.00 27.59     0.167 C 
HETATM   22  CBD   D T1686       9.027  15.912  -7.493  1.00 25.14     0.134 C 
ENDBRANCH  12  17
ENDBRANCH   8   9
ENDBRANCH   1   8
BRANCH   7  23
HETATM   23  NAE   D T1686       3.405  12.787  -0.769  1.00 16.74    -0.225 NA
BRANCH  23  24
HETATM   24  CAJ   D T1686       3.433  12.308   0.497  1.00 21.60     0.088 A 
HETATM   25  CAQ   D T1686       2.233  11.869   1.095  1.00 19.37     0.019 A 
HETATM   26  CAW   D T1686       2.198  11.372   2.384  1.00 21.30     0.002 A 
HETATM   27  CAZ   D T1686       3.372  11.346   3.139  1.00 22.64     0.000 A 
HETATM   28  CAV   D T1686       4.563  11.793   2.573  1.00 23.23     0.006 A 
HETATM   29  CAP   D T1686       4.612  12.266   1.263  1.00 20.25     0.075 A 
BRANCH  29  30
HETATM   30  CAO   D T1686       5.970  12.732   0.723  1.00 17.59     0.276 C 
HETATM   31  OAI   D T1686       6.522  12.096  -0.162  1.00 15.81    -0.266 OA
HETATM   32  NAN   D T1686       6.483  13.823   1.300  1.00 14.44    -0.232 NA
HETATM   33  CAM   D T1686       7.763  14.340   0.796  1.00 17.53     0.155 C 
ENDBRANCH  29  30
ENDBRANCH  23  24
ENDBRANCH   7  23
TORSDOF 7
ENDMDL
MODEL 5
REMARK VINA RESULT:    -8.095      2.570      3.209
REMARK INTER + INTRA:         -12.686
REMARK INTER:                 -11.482
REMARK INTRA:                  -1.204
REMARK UNBOUND:                -1.279
REMARK  7 active torsions:
REMARK  status: ('A' for Active; 'I' for Inactive)
REMARK    1  A    between atoms: NBB_6  and  CBA_7 
REMARK    2  A    between atoms: CAS_9  and  OAT_10 
REMARK    3  A    between atoms: CAL_14  and  NAH_15 
REMARK    4  A    between atoms: NAH_15  and  C2_16 
REMARK    5  A    between atoms: C4_22  and  NAE_23 
REMARK    6  A    between atoms: NAE_23  and  CAJ_24 
REMARK    7  A    between atoms: CAP_29  and  CAO_30 
REMARK       I    between atoms: CAO_30  and  NAN_32 
ROOT
HETATM    1  C2    D T1686       2.890  11.682   0.891  1.00 17.61     0.752 A 
HETATM    2  N3    D T1686       4.059  12.072   1.417  1.00 18.51    -0.039 NA
HETATM    3  N1    D T1686       2.151  10.796   1.551  1.00 16.90    -0.057 NA
HETATM    4  C6    D T1686       2.557  10.298   2.713  1.00 16.74     0.133 A 
HETATM    5  C5    D T1686       3.751  10.694   3.291  1.00 17.83     0.114 A 
HETATM    6 CL5    D T1686       4.248  10.036   4.827  1.00 20.30    -0.077 Cl
HETATM    7  C4    D T1686       4.523  11.644   2.618  1.00 18.56     0.193 A 
ENDROOT
BRANCH   1   8
HETATM    8  NAH   D T1686       2.432  12.167  -0.279  1.00 18.72    -0.057 NA
BRANCH   8   9
HETATM    9  CAL   D T1686       2.546  13.438  -0.706  1.00 18.22     0.122 A 
HETATM   10  CAS   D T1686       1.432  14.256  -0.552  1.00 20.44     0.114 A 
HETATM   11  CAY   D T1686       1.477  15.598  -0.980  1.00 18.94     0.043 A 
HETATM   12  CBA   D T1686       2.636  16.144  -1.545  1.00 20.47     0.058 A 
HETATM   13  CAX   D T1686       3.756  15.314  -1.710  1.00 17.39     0.019 A 
HETATM   14  CAR   D T1686       3.710  13.983  -1.277  1.00 18.28     0.023 A 
BRANCH  10  15
HETATM   15  OAT   D T1686       0.332  13.687   0.010  1.00 18.42    -0.327 OA
HETATM   16  CAU   D T1686      -0.736  13.571  -0.942  1.00 20.67     0.181 C 
ENDBRANCH  10  15
BRANCH  12  17
HETATM   17  NBB   D T1686       2.697  17.514  -1.977  1.00 22.32    -0.343 N 
HETATM   18  CBC   D T1686       2.632  18.617  -0.991  1.00 27.64     0.134 C 
HETATM   19  CBE   D T1686       2.017  19.898  -1.591  1.00 28.37     0.167 C 
HETATM   20  OBG   D T1686       2.640  20.210  -2.832  1.00 28.23    -0.350 OA
HETATM   21  CBF   D T1686       2.328  19.224  -3.811  1.00 27.59     0.167 C 
HETATM   22  CBD   D T1686       2.804  17.820  -3.424  1.00 25.14     0.134 C 
ENDBRANCH  12  17
ENDBRANCH   8   9
ENDBRANCH   1   8
BRANCH   7  23
HETATM   23  NAE   D T1686       5.685  12.085   3.154  1.00 16.74    -0.225 NA
BRANCH  23  24
HETATM   24  CAJ   D T1686       6.917  11.541   3.021  1.00 21.60     0.088 A 
HETATM   25  CAQ   D T1686       7.391  10.658   4.015  1.00 19.37     0.019 A 
HETATM   26  CAW   D T1686       8.641  10.073   3.936  1.00 21.30     0.002 A 
HETATM   27  CAZ   D T1686       9.483  10.400   2.871  1.00 22.64     0.000 A 
HETATM   28  CAV   D T1686       9.040  11.284   1.891  1.00 23.23     0.006 A 
HETATM   29  CAP   D T1686       7.769  11.853   1.948  1.00 20.25     0.075 A 
BRANCH  29  30
HETATM   30  CAO   D T1686       7.367  12.813   0.820  1.00 17.59     0.276 C 
HETATM   31  OAI   D T1686       6.949  12.366  -0.237  1.00 15.81    -0.266 OA
HETATM   32  NAN   D T1686       7.535  14.114   1.075  1.00 14.44    -0.232 NA
HETATM   33  CAM   D T1686       7.129  15.082   0.048  1.00 17.53     0.155 C 
ENDBRANCH  29  30
ENDBRANCH  23  24
ENDBRANCH   7  23
TORSDOF 7
ENDMDL
MODEL 6
REMARK VINA RESULT:    -8.071      2.808      7.515
REMARK INTER + INTRA:         -12.653
REMARK INTER:                 -11.508
REMARK INTRA:                  -1.144
REMARK UNBOUND:                -1.279
REMARK  7 active torsions:
REMARK  status: ('A' for Active; 'I' for Inactive)
REMARK    1  A    between atoms: NBB_6  and  CBA_7 
REMARK    2  A    between atoms: CAS_9  and  OAT_10 
REMARK    3  A    between atoms: CAL_14  and  NAH_15 
REMARK    4  A    between atoms: NAH_15  and  C2_16 
REMARK    5  A    between atoms: C4_22  and  NAE_23 
REMARK    6  A    between atoms: NAE_23  and  CAJ_24 
REMARK    7  A    between atoms: CAP_29  and  CAO_30 
REMARK       I    between atoms: CAO_30  and  NAN_32 
ROOT
HETATM    1  C2    D T1686       3.556  14.086  -1.091  1.00 17.61     0.752 A 
HETATM    2  N3    D T1686       4.482  15.015  -1.364  1.00 18.51    -0.039 NA
HETATM    3  N1    D T1686       2.273  14.386  -1.267  1.00 16.90    -0.057 NA
HETATM    4  C6    D T1686       1.905  15.584  -1.706  1.00 16.74     0.133 A 
HETATM    5  C5    D T1686       2.839  16.558  -2.014  1.00 17.83     0.114 A 
HETATM    6 CL5    D T1686       2.324  18.115  -2.605  1.00 20.30    -0.077 Cl
HETATM    7  C4    D T1686       4.190  16.245  -1.856  1.00 18.56     0.193 A 
ENDROOT
BRANCH   1   8
HETATM    8  NAH   D T1686       3.882  12.854  -0.655  1.00 18.72    -0.057 NA
BRANCH   8   9
HETATM    9  CAL   D T1686       4.868  12.557   0.211  1.00 18.22     0.122 A 
HETATM   10  CAS   D T1686       4.508  12.399   1.544  1.00 20.44     0.114 A 
HETATM   11  CAY   D T1686       5.488  12.092   2.510  1.00 18.94     0.043 A 
HETATM   12  CBA   D T1686       6.831  11.918   2.153  1.00 20.47     0.058 A 
HETATM   13  CAX   D T1686       7.195  12.089   0.808  1.00 17.39     0.019 A 
HETATM   14  CAR   D T1686       6.217  12.388  -0.148  1.00 18.28     0.023 A 
BRANCH  10  15
HETATM   15  OAT   D T1686       3.192  12.567   1.843  1.00 18.42    -0.327 OA
HETATM   16  CAU   D T1686       2.627  11.366   2.391  1.00 20.67     0.181 C 
ENDBRANCH  10  15
BRANCH  12  17
HETATM   17  NBB   D T1686       7.839  11.595   3.127  1.00 22.32    -0.343 N 
HETATM   18  CBC   D T1686       9.188  12.199   3.043  1.00 27.64     0.134 C 
HETATM   19  CBE   D T1686      10.273  11.285   3.647  1.00 28.37     0.167 C 
HETATM   20  OBG   D T1686       9.875  10.831   4.936  1.00 28.23    -0.350 OA
HETATM   21  CBF   D T1686       8.752   9.960   4.835  1.00 27.59     0.167 C 
HETATM   22  CBD   D T1686       7.525  10.632   4.210  1.00 25.14     0.134 C 
ENDBRANCH  12  17
ENDBRANCH   8   9
ENDBRANCH   1   8
BRANCH   7  23
HETATM   23  NAE   D T1686       5.144  17.154  -2.171  1.00 16.74    -0.225 NA
BRANCH  23  24
HETATM   24  CAJ   D T1686       6.476  16.946  -2.297  1.00 21.60     0.088 A 
HETATM   25  CAQ   D T1686       7.254  16.749  -1.137  1.00 19.37     0.019 A 
HETATM   26  CAW   D T1686       8.619  16.534  -1.201  1.00 21.30     0.002 A 
HETATM   27  CAZ   D T1686       9.258  16.562  -2.442  1.00 22.64     0.000 A 
HETATM   28  CAV   D T1686       8.508  16.775  -3.596  1.00 23.23     0.006 A 
HETATM   29  CAP   D T1686       7.128  16.960  -3.542  1.00 20.25     0.075 A 
BRANCH  29  30
HETATM   30  CAO   D T1686       6.385  17.182  -4.866  1.00 17.59     0.276 C 
HETATM   31  OAI   D T1686       6.292  18.310  -5.328  1.00 15.81    -0.266 OA
HETATM   32  NAN   D T1686       5.850  16.092  -5.423  1.00 14.44    -0.232 NA
HETATM   33  CAM   D T1686       5.161  16.237  -6.713  1.00 17.53     0.155 C 
ENDBRANCH  29  30
ENDBRANCH  23  24
ENDBRANCH   7  23
TORSDOF 7
ENDMDL
MODEL 7
REMARK VINA RESULT:    -7.953      3.331      9.111
REMARK INTER + INTRA:         -12.486
REMARK INTER:                 -12.024
REMARK INTRA:                  -0.461
REMARK UNBOUND:                -1.279
REMARK  7 active torsions:
REMARK  status: ('A' for Active; 'I' for Inactive)
REMARK    1  A    between atoms: NBB_6  and  CBA_7 
REMARK    2  A    between atoms: CAS_9  and  OAT_10 
REMARK    3  A    between atoms: CAL_14  and  NAH_15 
REMARK    4  A    between atoms: NAH_15  and  C2_16 
REMARK    5  A    between atoms: C4_22  and  NAE_23 
REMARK    6  A    between atoms: NAE_23  and  CAJ_24 
REMARK    7  A    between atoms: CAP_29  and  CAO_30 
REMARK       I    between atoms: CAO_30  and  NAN_32 
ROOT
HETATM    1  C2    D T1686       6.006  12.396   2.205  1.00 17.61     0.752 A 
HETATM    2  N3    D T1686       5.361  12.674   1.063  1.00 18.51    -0.039 NA
HETATM    3  N1    D T1686       5.324  11.866   3.215  1.00 16.90    -0.057 NA
HETATM    4  C6    D T1686       4.025  11.613   3.105  1.00 16.74     0.133 A 
HETATM    5  C5    D T1686       3.335  11.873   1.934  1.00 17.83     0.114 A 
HETATM    6 CL5    D T1686       1.634  11.513   1.815  1.00 20.30    -0.077 Cl
HETATM    7  C4    D T1686       4.047  12.406   0.858  1.00 18.56     0.193 A 
ENDROOT
BRANCH   1   8
HETATM    8  NAH   D T1686       7.324  12.624   2.358  1.00 18.72    -0.057 NA
BRANCH   8   9
HETATM    9  CAL   D T1686       8.188  11.844   3.034  1.00 18.22     0.122 A 
HETATM   10  CAS   D T1686       9.528  11.933   2.675  1.00 20.44     0.114 A 
HETATM   11  CAY   D T1686      10.490  11.142   3.337  1.00 18.94     0.043 A 
HETATM   12  CBA   D T1686      10.129  10.274   4.374  1.00 20.47     0.058 A 
HETATM   13  CAX   D T1686       8.774  10.178   4.728  1.00 17.39     0.019 A 
HETATM   14  CAR   D T1686       7.823  10.969   4.073  1.00 18.28     0.023 A 
BRANCH  10  15
HETATM   15  OAT   D T1686       9.833  12.796   1.670  1.00 18.42    -0.327 OA
HETATM   16  CAU   D T1686      11.254  12.969   1.549  1.00 20.67     0.181 C 
ENDBRANCH  10  15
BRANCH  12  17
HETATM   17  NBB   D T1686      11.102   9.470   5.063  1.00 22.32    -0.343 N 
HETATM   18  CBC   D T1686      10.888   9.073   6.474  1.00 27.64     0.134 C 
HETATM   19  CBE   D T1686      12.217   8.871   7.229  1.00 28.37     0.167 C 
HETATM   20  OBG   D T1686      13.091   8.037   6.476  1.00 28.23    -0.350 OA
HETATM   21  CBF   D T1686      13.506   8.696   5.282  1.00 27.59     0.167 C 
HETATM   22  CBD   D T1686      12.338   9.055   4.357  1.00 25.14     0.134 C 
ENDBRANCH  12  17
ENDBRANCH   8   9
ENDBRANCH   1   8
BRANCH   7  23
HETATM   23  NAE   D T1686       3.425  12.652  -0.320  1.00 16.74    -0.225 NA
BRANCH  23  24
HETATM   24  CAJ   D T1686       3.358  13.825  -0.992  1.00 21.60     0.088 A 
HETATM   25  CAQ   D T1686       4.489  14.274  -1.707  1.00 19.37     0.019 A 
HETATM   26  CAW   D T1686       4.482  15.464  -2.411  1.00 21.30     0.002 A 
HETATM   27  CAZ   D T1686       3.344  16.272  -2.377  1.00 22.64     0.000 A 
HETATM   28  CAV   D T1686       2.225  15.854  -1.661  1.00 23.23     0.006 A 
HETATM   29  CAP   D T1686       2.214  14.641  -0.975  1.00 20.25     0.075 A 
BRANCH  29  30
HETATM   30  CAO   D T1686       0.934  14.262  -0.219  1.00 17.59     0.276 C 
HETATM   31  OAI   D T1686       0.823  14.542   0.965  1.00 15.81    -0.266 OA
HETATM   32  NAN   D T1686       0.013  13.602  -0.928  1.00 14.44    -0.232 NA
HETATM   33  CAM   D T1686      -1.251  13.248  -0.267  1.00 17.53     0.155 C 
ENDBRANCH  29  30
ENDBRANCH  23  24
ENDBRANCH   7  23
TORSDOF 7
ENDMDL
MODEL 8
REMARK VINA RESULT:    -7.859      3.552      6.898
REMARK INTER + INTRA:         -12.353
REMARK INTER:                 -10.949
REMARK INTRA:                  -1.404
REMARK UNBOUND:                -1.279
REMARK  7 active torsions:
REMARK  status: ('A' for Active; 'I' for Inactive)
REMARK    1  A    between atoms: NBB_6  and  CBA_7 
REMARK    2  A    between atoms: CAS_9  and  OAT_10 
REMARK    3  A    between atoms: CAL_14  and  NAH_15 
REMARK    4  A    between atoms: NAH_15  and  C2_16 
REMARK    5  A    between atoms: C4_22  and  NAE_23 
REMARK    6  A    between atoms: NAE_23  and  CAJ_24 
REMARK    7  A    between atoms: CAP_29  and  CAO_30 
REMARK       I    between atoms: CAO_30  and  NAN_32 
ROOT
HETATM    1  C2    D T1686       5.138  16.780  -5.406  1.00 17.61     0.752 A 
HETATM    2  N3    D T1686       4.851  16.365  -4.165  1.00 18.51    -0.039 NA
HETATM    3  N1    D T1686       4.564  17.888  -5.862  1.00 16.90    -0.057 NA
HETATM    4  C6    D T1686       3.717  18.579  -5.108  1.00 16.74     0.133 A 
HETATM    5  C5    D T1686       3.414  18.186  -3.816  1.00 17.83     0.114 A 
HETATM    6 CL5    D T1686       2.312  19.125  -2.846  1.00 20.30    -0.077 Cl
HETATM    7  C4    D T1686       4.031  17.037  -3.318  1.00 18.56     0.193 A 
ENDROOT
BRANCH   1   8
HETATM    8  NAH   D T1686       5.999  16.118  -6.202  1.00 18.72    -0.057 NA
BRANCH   8   9
HETATM    9  CAL   D T1686       7.294  15.871  -5.933  1.00 18.22     0.122 A 
HETATM   10  CAS   D T1686       8.235  16.471  -6.762  1.00 20.44     0.114 A 
HETATM   11  CAY   D T1686       9.610  16.254  -6.543  1.00 18.94     0.043 A 
HETATM   12  CBA   D T1686      10.062  15.456  -5.485  1.00 20.47     0.058 A 
HETATM   13  CAX   D T1686       9.110  14.842  -4.655  1.00 17.39     0.019 A 
HETATM   14  CAR   D T1686       7.746  15.065  -4.872  1.00 18.28     0.023 A 
BRANCH  10  15
HETATM   15  OAT   D T1686       7.751  17.245  -7.770  1.00 18.42    -0.327 OA
HETATM   16  CAU   D T1686       8.135  18.618  -7.600  1.00 20.67     0.181 C 
ENDBRANCH  10  15
BRANCH  12  17
HETATM   17  NBB   D T1686      11.463  15.236  -5.245  1.00 22.32    -0.343 N 
HETATM   18  CBC   D T1686      12.413  15.134  -6.376  1.00 27.64     0.134 C 
HETATM   19  CBE   D T1686      13.626  14.244  -6.038  1.00 28.37     0.167 C 
HETATM   20  OBG   D T1686      14.188  14.629  -4.788  1.00 28.23    -0.350 OA
HETATM   21  CBF   D T1686      13.284  14.344  -3.724  1.00 27.59     0.167 C 
HETATM   22  CBD   D T1686      11.951  15.089  -3.853  1.00 25.14     0.134 C 
ENDBRANCH  12  17
ENDBRANCH   8   9
ENDBRANCH   1   8
BRANCH   7  23
HETATM   23  NAE   D T1686       3.790  16.626  -2.051  1.00 16.74    -0.225 NA
BRANCH  23  24
HETATM   24  CAJ   D T1686       3.186  15.482  -1.652  1.00 21.60     0.088 A 
HETATM   25  CAQ   D T1686       1.777  15.427  -1.605  1.00 19.37     0.019 A 
HETATM   26  CAW   D T1686       1.103  14.288  -1.204  1.00 21.30     0.002 A 
HETATM   27  CAZ   D T1686       1.833  13.174  -0.787  1.00 22.64     0.000 A 
HETATM   28  CAV   D T1686       3.225  13.216  -0.808  1.00 23.23     0.006 A 
HETATM   29  CAP   D T1686       3.910  14.349  -1.240  1.00 20.25     0.075 A 
BRANCH  29  30
HETATM   30  CAO   D T1686       5.444  14.302  -1.234  1.00 17.59     0.276 C 
HETATM   31  OAI   D T1686       6.037  13.731  -2.137  1.00 15.81    -0.266 OA
HETATM   32  NAN   D T1686       6.040  14.883  -0.189  1.00 14.44    -0.232 NA
HETATM   33  CAM   D T1686       7.508  14.904  -0.149  1.00 17.53     0.155 C 
ENDBRANCH  29  30
ENDBRANCH  23  24
ENDBRANCH   7  23
TORSDOF 7
ENDMDL
MODEL 9
REMARK VINA RESULT:    -7.580      3.845      9.158
REMARK INTER + INTRA:         -11.961
REMARK INTER:                 -10.635
REMARK INTRA:                  -1.326
REMARK UNBOUND:                -1.279
REMARK  7 active torsions:
REMARK  status: ('A' for Active; 'I' for Inactive)
REMARK    1  A    between atoms: NBB_6  and  CBA_7 
REMARK    2  A    between atoms: CAS_9  and  OAT_10 
REMARK    3  A    between atoms: CAL_14  and  NAH_15 
REMARK    4  A    between atoms: NAH_15  and  C2_16 
REMARK    5  A    between atoms: C4_22  and  NAE_23 
REMARK    6  A    between atoms: NAE_23  and  CAJ_24 
REMARK    7  A    between atoms: CAP_29  and  CAO_30 
REMARK       I    between atoms: CAO_30  and  NAN_32 
ROOT
HETATM    1  C2    D T1686       6.610  15.759  -4.652  1.00 17.61     0.752 A 
HETATM    2  N3    D T1686       7.417  15.988  -5.697  1.00 18.51    -0.039 NA
HETATM    3  N1    D T1686       5.752  16.704  -4.284  1.00 16.90    -0.057 NA
HETATM    4  C6    D T1686       5.688  17.860  -4.934  1.00 16.74     0.133 A 
HETATM    5  C5    D T1686       6.496  18.120  -6.027  1.00 17.83     0.114 A 
HETATM    6 CL5    D T1686       6.375  19.641  -6.870  1.00 20.30    -0.077 Cl
HETATM    7  C4    D T1686       7.384  17.124  -6.438  1.00 18.56     0.193 A 
ENDROOT
BRANCH   1   8
HETATM    8  NAH   D T1686       6.631  14.597  -3.970  1.00 18.72    -0.057 NA
BRANCH   8   9
HETATM    9  CAL   D T1686       5.797  14.251  -2.973  1.00 18.22     0.122 A 
HETATM   10  CAS   D T1686       6.243  14.470  -1.675  1.00 20.44     0.114 A 
HETATM   11  CAY   D T1686       5.424  14.128  -0.580  1.00 18.94     0.043 A 
HETATM   12  CBA   D T1686       4.147  13.586  -0.768  1.00 20.47     0.058 A 
HETATM   13  CAX   D T1686       3.702  13.354  -2.079  1.00 17.39     0.019 A 
HETATM   14  CAR   D T1686       4.516  13.702  -3.164  1.00 18.28     0.023 A 
BRANCH  10  15
HETATM   15  OAT   D T1686       7.484  15.008  -1.541  1.00 18.42    -0.327 OA
HETATM   16  CAU   D T1686       7.422  16.317  -0.953  1.00 20.67     0.181 C 
ENDBRANCH  10  15
BRANCH  12  17
HETATM   17  NBB   D T1686       3.298  13.242   0.342  1.00 22.32    -0.343 N 
HETATM   18  CBC   D T1686       3.812  12.408   1.452  1.00 27.64     0.134 C 
HETATM   19  CBE   D T1686       2.696  11.584   2.125  1.00 28.37     0.167 C 
HETATM   20  OBG   D T1686       1.586  12.418   2.437  1.00 28.23    -0.350 OA
HETATM   21  CBF   D T1686       0.957  12.882   1.246  1.00 27.59     0.167 C 
HETATM   22  CBD   D T1686       1.892  13.711   0.357  1.00 25.14     0.134 C 
ENDBRANCH  12  17
ENDBRANCH   8   9
ENDBRANCH   1   8
BRANCH   7  23
HETATM   23  NAE   D T1686       8.175  17.317  -7.520  1.00 16.74    -0.225 NA
BRANCH  23  24
HETATM   24  CAJ   D T1686       9.522  17.198  -7.592  1.00 21.60     0.088 A 
HETATM   25  CAQ   D T1686      10.083  15.968  -7.997  1.00 19.37     0.019 A 
HETATM   26  CAW   D T1686      11.451  15.785  -8.088  1.00 21.30     0.002 A 
HETATM   27  CAZ   D T1686      12.306  16.826  -7.724  1.00 22.64     0.000 A 
HETATM   28  CAV   D T1686      11.770  18.041  -7.303  1.00 23.23     0.006 A 
HETATM   29  CAP   D T1686      10.393  18.243  -7.239  1.00 20.25     0.075 A 
BRANCH  29  30
HETATM   30  CAO   D T1686       9.895  19.616  -6.769  1.00 17.59     0.276 C 
HETATM   31  OAI   D T1686       9.696  20.502  -7.586  1.00 15.81    -0.266 OA
HETATM   32  NAN   D T1686       9.737  19.757  -5.449  1.00 14.44    -0.232 NA
HETATM   33  CAM   D T1686       9.223  21.038  -4.944  1.00 17.53     0.155 C 
ENDBRANCH  29  30
ENDBRANCH  23  24
ENDBRANCH   7  23
TORSDOF 7
ENDMDL
