MODEL 1
REMARK VINA RESULT:    -7.453      0.000      0.000
REMARK INTER + INTRA:          -8.825
REMARK INTER:                  -8.324
REMARK INTRA:                  -0.501
REMARK UNBOUND:                -0.501
REMARK  2 active torsions:
REMARK  status: ('A' for Active; 'I' for Inactive)
REMARK    1  A    between atoms: C5_4  and  O7_13 
REMARK    2  A    between atoms: C8_10  and  O7_13 
ROOT
HETATM    1  O7    D T 705       5.789   1.562  -7.741  1.00 53.87    -0.304 OA
ENDROOT
BRANCH   1   2
HETATM    2  C5    D T 705       5.794   1.662  -9.085  1.00 53.80     0.125 A 
HETATM    3  C6    D T 705       6.761   2.592  -9.679  1.00 53.82     0.154 A 
HETATM    4  C1    D T 705       6.756   2.717 -11.053  1.00 52.44     0.041 A 
HETATM    5  O17   D T 705       7.564   3.259  -8.854  1.00 52.72    -0.188 OA
HETATM    6  C2    D T 705       5.865   1.949 -11.791  1.00 52.70     0.060 A 
HETATM    7  C3    D T 705       4.949   1.089 -11.225  1.00 52.61     0.014 A 
HETATM    8 CL14   D T 705       5.844   2.039 -13.566  1.00 53.97    -0.082 Cl
HETATM    9  C4    D T 705       4.900   0.942  -9.856  1.00 53.27     0.028 A 
ENDBRANCH   1   2
BRANCH   1  10
HETATM   10  C8    D T 705       4.764   2.094  -7.033  1.00 53.50     0.111 A 
HETATM   11  C9    D T 705       3.758   1.162  -6.490  1.00 52.76     0.081 A 
HETATM   12  C10   D T 705       2.720   1.673  -5.755  1.00 53.10     0.025 A 
HETATM   13 CL16   D T 705       3.867  -0.609  -6.736  1.00 54.87    -0.080 Cl
HETATM   14  C11   D T 705       2.625   3.036  -5.553  1.00 52.79     0.059 A 
HETATM   15  C12   D T 705       3.563   3.915  -6.076  1.00 53.52     0.013 A 
HETATM   16 CL15   D T 705       1.235   3.627  -4.585  1.00 52.95    -0.082 Cl
HETATM   17  C13   D T 705       4.644   3.464  -6.812  1.00 52.90     0.026 A 
ENDBRANCH   1  10
TORSDOF 2
ENDMDL
MODEL 2
REMARK VINA RESULT:    -7.383      1.542      5.970
REMARK INTER + INTRA:          -8.747
REMARK INTER:                  -8.404
REMARK INTRA:                  -0.343
REMARK UNBOUND:                -0.501
REMARK  2 active torsions:
REMARK  status: ('A' for Active; 'I' for Inactive)
REMARK    1  A    between atoms: C5_4  and  O7_13 
REMARK    2  A    between atoms: C8_10  and  O7_13 
ROOT
HETATM    1  O7    D T 705       4.580   0.622  -7.854  1.00 53.87    -0.304 OA
ENDROOT
BRANCH   1   2
HETATM    2  C5    D T 705       3.826   1.446  -7.099  1.00 53.80     0.125 A 
HETATM    3  C6    D T 705       2.874   0.818  -6.176  1.00 53.82     0.154 A 
HETATM    4  C1    D T 705       2.082   1.655  -5.418  1.00 52.44     0.041 A 
HETATM    5  O17   D T 705       2.829  -0.512  -6.146  1.00 52.72    -0.188 OA
HETATM    6  C2    D T 705       2.245   3.028  -5.547  1.00 52.70     0.060 A 
HETATM    7  C3    D T 705       3.131   3.612  -6.428  1.00 52.61     0.014 A 
HETATM    8 CL14   D T 705       1.283   4.153  -4.565  1.00 53.97    -0.082 Cl
HETATM    9  C4    D T 705       3.931   2.819  -7.222  1.00 53.27     0.028 A 
ENDBRANCH   1   2
BRANCH   1  10
HETATM   10  C8    D T 705       4.869   0.962  -9.133  1.00 53.50     0.111 A 
HETATM   11  C9    D T 705       3.811   0.766 -10.142  1.00 52.76     0.081 A 
HETATM   12  C10   D T 705       4.072   1.118 -11.442  1.00 53.10     0.025 A 
HETATM   13 CL16   D T 705       2.197   0.115  -9.721  1.00 54.87    -0.080 Cl
HETATM   14  C11   D T 705       5.311   1.626 -11.782  1.00 52.79     0.059 A 
HETATM   15  C12   D T 705       6.311   1.795 -10.835  1.00 53.52     0.013 A 
HETATM   16 CL15   D T 705       5.577   2.057 -13.503  1.00 52.95    -0.082 Cl
HETATM   17  C13   D T 705       6.108   1.477  -9.505  1.00 52.90     0.026 A 
ENDBRANCH   1  10
TORSDOF 2
ENDMDL
MODEL 3
REMARK VINA RESULT:    -7.355      1.677      6.085
REMARK INTER + INTRA:          -8.716
REMARK INTER:                  -8.167
REMARK INTRA:                  -0.550
REMARK UNBOUND:                -0.501
REMARK  2 active torsions:
REMARK  status: ('A' for Active; 'I' for Inactive)
REMARK    1  A    between atoms: C5_4  and  O7_13 
REMARK    2  A    between atoms: C8_10  and  O7_13 
ROOT
HETATM    1  O7    D T 705       5.400   1.486  -7.217  1.00 53.87    -0.304 OA
ENDROOT
BRANCH   1   2
HETATM    2  C5    D T 705       4.384   2.068  -6.548  1.00 53.80     0.125 A 
HETATM    3  C6    D T 705       3.477   1.180  -5.812  1.00 53.82     0.154 A 
HETATM    4  C1    D T 705       2.422   1.766  -5.145  1.00 52.44     0.041 A 
HETATM    5  O17   D T 705       3.725  -0.126  -5.852  1.00 52.72    -0.188 OA
HETATM    6  C2    D T 705       2.291   3.149  -5.184  1.00 52.70     0.060 A 
HETATM    7  C3    D T 705       3.139   3.976  -5.890  1.00 52.61     0.014 A 
HETATM    8 CL14   D T 705       0.976   3.961  -4.309  1.00 53.97    -0.082 Cl
HETATM    9  C4    D T 705       4.198   3.437  -6.589  1.00 53.27     0.028 A 
ENDBRANCH   1   2
BRANCH   1  10
HETATM   10  C8    D T 705       5.429   1.538  -8.570  1.00 53.50     0.111 A 
HETATM   11  C9    D T 705       6.484   2.357  -9.195  1.00 52.76     0.081 A 
HETATM   12  C10   D T 705       6.546   2.412 -10.564  1.00 53.10     0.025 A 
HETATM   13 CL16   D T 705       7.697   3.253  -8.228  1.00 54.87    -0.080 Cl
HETATM   14  C11   D T 705       5.620   1.723 -11.324  1.00 52.79     0.059 A 
HETATM   15  C12   D T 705       4.618   0.965 -10.735  1.00 53.52     0.013 A 
HETATM   16 CL15   D T 705       5.764   1.851 -13.107  1.00 52.95    -0.082 Cl
HETATM   17  C13   D T 705       4.510   0.852  -9.361  1.00 52.90     0.026 A 
ENDBRANCH   1  10
TORSDOF 2
ENDMDL
MODEL 4
REMARK VINA RESULT:    -7.104      2.253      6.008
REMARK INTER + INTRA:          -8.435
REMARK INTER:                  -7.919
REMARK INTRA:                  -0.516
REMARK UNBOUND:                -0.501
REMARK  2 active torsions:
REMARK  status: ('A' for Active; 'I' for Inactive)
REMARK    1  A    between atoms: C5_4  and  O7_13 
REMARK    2  A    between atoms: C8_10  and  O7_13 
ROOT
HETATM    1  O7    D T 705       4.774   3.713  -7.787  1.00 53.87    -0.304 OA
ENDROOT
BRANCH   1   2
HETATM    2  C5    D T 705       4.348   2.860  -6.833  1.00 53.80     0.125 A 
HETATM    3  C6    D T 705       3.086   3.189  -6.162  1.00 53.82     0.154 A 
HETATM    4  C1    D T 705       2.656   2.334  -5.169  1.00 52.44     0.041 A 
HETATM    5  O17   D T 705       2.453   4.295  -6.546  1.00 52.72    -0.188 OA
HETATM    6  C2    D T 705       3.418   1.210  -4.879  1.00 52.70     0.060 A 
HETATM    7  C3    D T 705       4.611   0.915  -5.503  1.00 52.61     0.014 A 
HETATM    8 CL14   D T 705       2.891   0.052  -3.639  1.00 53.97    -0.082 Cl
HETATM    9  C4    D T 705       5.094   1.748  -6.490  1.00 53.27     0.028 A 
ENDBRANCH   1   2
BRANCH   1  10
HETATM   10  C8    D T 705       4.877   3.288  -9.069  1.00 53.50     0.111 A 
HETATM   11  C9    D T 705       6.231   3.014  -9.586  1.00 52.76     0.081 A 
HETATM   12  C10   D T 705       6.362   2.566 -10.875  1.00 53.10     0.025 A 
HETATM   13 CL16   D T 705       7.698   3.219  -8.578  1.00 54.87    -0.080 Cl
HETATM   14  C11   D T 705       5.240   2.399 -11.664  1.00 52.79     0.059 A 
HETATM   15  C12   D T 705       3.967   2.672 -11.182  1.00 53.52     0.013 A 
HETATM   16 CL15   D T 705       5.495   1.816 -13.341  1.00 52.95    -0.082 Cl
HETATM   17  C13   D T 705       3.763   3.109  -9.886  1.00 52.90     0.026 A 
ENDBRANCH   1  10
TORSDOF 2
ENDMDL
MODEL 5
REMARK VINA RESULT:    -7.101      2.121      2.363
REMARK INTER + INTRA:          -8.432
REMARK INTER:                  -7.946
REMARK INTRA:                  -0.485
REMARK UNBOUND:                -0.501
REMARK  2 active torsions:
REMARK  status: ('A' for Active; 'I' for Inactive)
REMARK    1  A    between atoms: C5_4  and  O7_13 
REMARK    2  A    between atoms: C8_10  and  O7_13 
ROOT
HETATM    1  O7    D T 705       2.748   1.870  -7.837  1.00 53.87    -0.304 OA
ENDROOT
BRANCH   1   2
HETATM    2  C5    D T 705       3.617   1.716  -8.857  1.00 53.80     0.125 A 
HETATM    3  C6    D T 705       3.507   2.662  -9.972  1.00 53.82     0.154 A 
HETATM    4  C1    D T 705       4.377   2.496 -11.030  1.00 52.44     0.041 A 
HETATM    5  O17   D T 705       2.569   3.602  -9.895  1.00 52.72    -0.188 OA
HETATM    6  C2    D T 705       5.313   1.471 -10.971  1.00 52.70     0.060 A 
HETATM    7  C3    D T 705       5.401   0.577  -9.926  1.00 52.61     0.014 A 
HETATM    8 CL14   D T 705       6.486   1.237 -12.286  1.00 53.97    -0.082 Cl
HETATM    9  C4    D T 705       4.542   0.688  -8.854  1.00 53.27     0.028 A 
ENDBRANCH   1   2
BRANCH   1  10
HETATM   10  C8    D T 705       3.174   2.407  -6.668  1.00 53.50     0.111 A 
HETATM   11  C9    D T 705       3.343   1.493  -5.524  1.00 52.76     0.081 A 
HETATM   12  C10   D T 705       3.790   2.008  -4.334  1.00 53.10     0.025 A 
HETATM   13 CL16   D T 705       3.014  -0.263  -5.647  1.00 54.87    -0.080 Cl
HETATM   14  C11   D T 705       4.052   3.360  -4.224  1.00 52.79     0.059 A 
HETATM   15  C12   D T 705       3.878   4.223  -5.298  1.00 53.52     0.013 A 
HETATM   16 CL15   D T 705       4.626   3.958  -2.634  1.00 52.95    -0.082 Cl
HETATM   17  C13   D T 705       3.448   3.765  -6.530  1.00 52.90     0.026 A 
ENDBRANCH   1  10
TORSDOF 2
ENDMDL
MODEL 6
REMARK VINA RESULT:    -6.957      1.846      2.694
REMARK INTER + INTRA:          -8.271
REMARK INTER:                  -8.134
REMARK INTRA:                  -0.138
REMARK UNBOUND:                -0.501
REMARK  2 active torsions:
REMARK  status: ('A' for Active; 'I' for Inactive)
REMARK    1  A    between atoms: C5_4  and  O7_13 
REMARK    2  A    between atoms: C8_10  and  O7_13 
ROOT
HETATM    1  O7    D T 705       3.061   3.140  -7.855  1.00 53.87    -0.304 OA
ENDROOT
BRANCH   1   2
HETATM    2  C5    D T 705       3.774   2.720  -8.919  1.00 53.80     0.125 A 
HETATM    3  C6    D T 705       5.192   3.093  -8.959  1.00 53.82     0.154 A 
HETATM    4  C1    D T 705       5.923   2.687 -10.057  1.00 52.44     0.041 A 
HETATM    5  O17   D T 705       5.671   3.808  -7.945  1.00 52.72    -0.188 OA
HETATM    6  C2    D T 705       5.291   1.936 -11.040  1.00 52.70     0.060 A 
HETATM    7  C3    D T 705       3.954   1.601 -11.003  1.00 52.61     0.014 A 
HETATM    8 CL14   D T 705       6.193   1.350 -12.454  1.00 53.97    -0.082 Cl
HETATM    9  C4    D T 705       3.176   1.999  -9.937  1.00 53.27     0.028 A 
ENDBRANCH   1   2
BRANCH   1  10
HETATM   10  C8    D T 705       2.953   2.344  -6.764  1.00 53.50     0.111 A 
HETATM   11  C9    D T 705       2.396   2.946  -5.538  1.00 52.76     0.081 A 
HETATM   12  C10   D T 705       2.260   2.159  -4.425  1.00 53.10     0.025 A 
HETATM   13 CL16   D T 705       1.869   4.657  -5.469  1.00 54.87    -0.080 Cl
HETATM   14  C11   D T 705       2.658   0.836  -4.463  1.00 52.79     0.059 A 
HETATM   15  C12   D T 705       3.197   0.274  -5.612  1.00 53.52     0.013 A 
HETATM   16 CL15   D T 705       2.454  -0.127  -2.964  1.00 52.95    -0.082 Cl
HETATM   17  C13   D T 705       3.345   1.008  -6.775  1.00 52.90     0.026 A 
ENDBRANCH   1  10
TORSDOF 2
ENDMDL
MODEL 7
REMARK VINA RESULT:    -6.902      2.552      6.278
REMARK INTER + INTRA:          -8.210
REMARK INTER:                  -7.732
REMARK INTRA:                  -0.478
REMARK UNBOUND:                -0.501
REMARK  2 active torsions:
REMARK  status: ('A' for Active; 'I' for Inactive)
REMARK    1  A    between atoms: C5_4  and  O7_13 
REMARK    2  A    between atoms: C8_10  and  O7_13 
ROOT
HETATM    1  O7    D T 705       2.772   1.861  -7.443  1.00 53.87    -0.304 OA
ENDROOT
BRANCH   1   2
HETATM    2  C5    D T 705       3.234   2.359  -6.279  1.00 53.80     0.125 A 
HETATM    3  C6    D T 705       3.285   1.440  -5.136  1.00 53.82     0.154 A 
HETATM    4  C1    D T 705       3.735   1.948  -3.936  1.00 52.44     0.041 A 
HETATM    5  O17   D T 705       2.881   0.187  -5.333  1.00 52.72    -0.188 OA
HETATM    6  C2    D T 705       4.133   3.278  -3.880  1.00 52.70     0.060 A 
HETATM    7  C3    D T 705       4.068   4.139  -4.954  1.00 52.61     0.014 A 
HETATM    8 CL14   D T 705       4.760   3.974  -2.370  1.00 53.97    -0.082 Cl
HETATM    9  C4    D T 705       3.608   3.685  -6.171  1.00 53.27     0.028 A 
ENDBRANCH   1   2
BRANCH   1  10
HETATM   10  C8    D T 705       3.629   1.651  -8.471  1.00 53.50     0.111 A 
HETATM   11  C9    D T 705       3.641   2.648  -9.558  1.00 52.76     0.081 A 
HETATM   12  C10   D T 705       4.512   2.469 -10.602  1.00 53.10     0.025 A 
HETATM   13 CL16   D T 705       2.581   4.092  -9.542  1.00 54.87    -0.080 Cl
HETATM   14  C11   D T 705       5.340   1.363 -10.626  1.00 52.79     0.059 A 
HETATM   15  C12   D T 705       5.317   0.417  -9.611  1.00 53.52     0.013 A 
HETATM   16 CL15   D T 705       6.446   1.197 -12.028  1.00 52.95    -0.082 Cl
HETATM   17  C13   D T 705       4.475   0.547  -8.521  1.00 52.90     0.026 A 
ENDBRANCH   1  10
TORSDOF 2
ENDMDL
MODEL 8
REMARK VINA RESULT:    -6.811      2.634      6.155
REMARK INTER + INTRA:          -8.108
REMARK INTER:                  -7.596
REMARK INTRA:                  -0.512
REMARK UNBOUND:                -0.501
REMARK  2 active torsions:
REMARK  status: ('A' for Active; 'I' for Inactive)
REMARK    1  A    between atoms: C5_4  and  O7_13 
REMARK    2  A    between atoms: C8_10  and  O7_13 
ROOT
HETATM    1  O7    D T 705       2.566   2.741  -6.699  1.00 53.87    -0.304 OA
ENDROOT
BRANCH   1   2
HETATM    2  C5    D T 705       3.142   3.160  -5.554  1.00 53.80     0.125 A 
HETATM    3  C6    D T 705       2.734   4.475  -5.048  1.00 53.82     0.154 A 
HETATM    4  C1    D T 705       3.335   4.921  -3.890  1.00 52.44     0.041 A 
HETATM    5  O17   D T 705       1.825   5.151  -5.747  1.00 52.72    -0.188 OA
HETATM    6  C2    D T 705       4.264   4.102  -3.260  1.00 52.70     0.060 A 
HETATM    7  C3    D T 705       4.654   2.874  -3.751  1.00 52.61     0.014 A 
HETATM    8 CL14   D T 705       5.039   4.607  -1.744  1.00 53.97    -0.082 Cl
HETATM    9  C4    D T 705       4.096   2.391  -4.915  1.00 53.27     0.028 A 
ENDBRANCH   1   2
BRANCH   1  10
HETATM   10  C8    D T 705       3.345   2.384  -7.749  1.00 53.50     0.111 A 
HETATM   11  C9    D T 705       3.295   0.975  -8.181  1.00 52.76     0.081 A 
HETATM   12  C10   D T 705       4.059   0.590  -9.253  1.00 53.10     0.025 A 
HETATM   13 CL16   D T 705       2.251  -0.236  -7.374  1.00 54.87    -0.080 Cl
HETATM   14  C11   D T 705       4.867   1.513  -9.889  1.00 52.79     0.059 A 
HETATM   15  C12   D T 705       4.925   2.836  -9.472  1.00 53.52     0.013 A 
HETATM   16 CL15   D T 705       5.841   0.932 -11.278  1.00 52.95    -0.082 Cl
HETATM   17  C13   D T 705       4.166   3.293  -8.410  1.00 52.90     0.026 A 
ENDBRANCH   1  10
TORSDOF 2
ENDMDL
MODEL 9
REMARK VINA RESULT:    -6.687      2.560      3.699
REMARK INTER + INTRA:          -7.970
REMARK INTER:                  -7.416
REMARK INTRA:                  -0.554
REMARK UNBOUND:                -0.501
REMARK  2 active torsions:
REMARK  status: ('A' for Active; 'I' for Inactive)
REMARK    1  A    between atoms: C5_4  and  O7_13 
REMARK    2  A    between atoms: C8_10  and  O7_13 
ROOT
HETATM    1  O7    D T 705       2.594   2.261  -6.583  1.00 53.87    -0.304 OA
ENDROOT
BRANCH   1   2
HETATM    2  C5    D T 705       3.338   1.972  -7.669  1.00 53.80     0.125 A 
HETATM    3  C6    D T 705       3.438   0.560  -8.052  1.00 53.82     0.154 A 
HETATM    4  C1    D T 705       4.217   0.255  -9.149  1.00 52.44     0.041 A 
HETATM    5  O17   D T 705       2.784  -0.329  -7.308  1.00 52.72    -0.188 OA
HETATM    6  C2    D T 705       4.837   1.290  -9.837  1.00 52.70     0.060 A 
HETATM    7  C3    D T 705       4.751   2.614  -9.463  1.00 52.61     0.014 A 
HETATM    8 CL14   D T 705       5.818   0.960 -11.281  1.00 53.97    -0.082 Cl
HETATM    9  C4    D T 705       4.000   2.969  -8.363  1.00 53.27     0.028 A 
ENDBRANCH   1   2
BRANCH   1  10
HETATM   10  C8    D T 705       3.190   2.767  -5.477  1.00 53.50     0.111 A 
HETATM   11  C9    D T 705       2.819   4.137  -5.075  1.00 52.76     0.081 A 
HETATM   12  C10   D T 705       3.394   4.668  -3.949  1.00 53.10     0.025 A 
HETATM   13 CL16   D T 705       1.627   5.112  -5.990  1.00 54.87    -0.080 Cl
HETATM   14  C11   D T 705       4.313   3.927  -3.230  1.00 52.79     0.059 A 
HETATM   15  C12   D T 705       4.673   2.644  -3.618  1.00 53.52     0.013 A 
HETATM   16 CL15   D T 705       5.026   4.693  -1.774  1.00 52.95    -0.082 Cl
HETATM   17  C13   D T 705       4.117   2.043  -4.733  1.00 52.90     0.026 A 
ENDBRANCH   1  10
TORSDOF 2
ENDMDL
