MODEL 1
REMARK VINA RESULT:      -8.0      0.000      0.000
REMARK  2 active torsions:
REMARK  status: ('A' for Active; 'I' for Inactive)
REMARK    1  A    between atoms: C5_4  and  O7_13 
REMARK    2  A    between atoms: C8_10  and  O7_13 
ROOT
HETATM    1  O7    D T 705     -29.601  50.704  35.197  1.00 53.87    -0.304 OA
ENDROOT
BRANCH   1   2
HETATM    2  C5    D T 705     -29.411  49.459  34.716  1.00 53.80     0.125 A 
HETATM    3  C6    D T 705     -28.083  49.151  34.174  1.00 53.82     0.154 A 
HETATM    4  C1    D T 705     -27.889  47.886  33.658  1.00 52.44     0.041 A 
HETATM    5  O17   D T 705     -27.166  50.115  34.203  1.00 52.72    -0.188 OA
HETATM    6  C2    D T 705     -28.938  46.978  33.703  1.00 52.70     0.060 A 
HETATM    7  C3    D T 705     -30.187  47.279  34.200  1.00 52.61     0.014 A 
HETATM    8 CL14   D T 705     -28.730  45.322  33.093  1.00 53.97    -0.082 Cl
HETATM    9  C4    D T 705     -30.440  48.535  34.710  1.00 53.27     0.028 A 
ENDBRANCH   1   2
BRANCH   1  10
HETATM   10  C8    D T 705     -30.764  51.351  34.942  1.00 53.50     0.111 A 
HETATM   11  C9    D T 705     -31.022  51.759  33.549  1.00 52.76     0.081 A 
HETATM   12  C10   D T 705     -32.199  52.399  33.260  1.00 53.10     0.025 A 
HETATM   13 CL16   D T 705     -29.865  51.419  32.224  1.00 54.87    -0.080 Cl
HETATM   14  C11   D T 705     -33.104  52.665  34.270  1.00 52.79     0.059 A 
HETATM   15  C12   D T 705     -32.855  52.295  35.584  1.00 53.52     0.013 A 
HETATM   16 CL15   D T 705     -34.618  53.512  33.814  1.00 52.95    -0.082 Cl
HETATM   17  C13   D T 705     -31.695  51.629  35.940  1.00 52.90     0.026 A 
ENDBRANCH   1  10
TORSDOF 2
ENDMDL
MODEL 2
REMARK VINA RESULT:      -7.7      1.188      5.849
REMARK  2 active torsions:
REMARK  status: ('A' for Active; 'I' for Inactive)
REMARK    1  A    between atoms: C5_4  and  O7_13 
REMARK    2  A    between atoms: C8_10  and  O7_13 
ROOT
HETATM    1  O7    D T 705     -29.844  50.289  35.514  1.00 53.87    -0.304 OA
ENDROOT
BRANCH   1   2
HETATM    2  C5    D T 705     -30.893  51.033  35.111  1.00 53.80     0.125 A 
HETATM    3  C6    D T 705     -31.992  51.207  36.067  1.00 53.82     0.154 A 
HETATM    4  C1    D T 705     -33.081  51.946  35.652  1.00 52.44     0.041 A 
HETATM    5  O17   D T 705     -31.871  50.627  37.258  1.00 52.72    -0.188 OA
HETATM    6  C2    D T 705     -33.066  52.500  34.379  1.00 52.70     0.060 A 
HETATM    7  C3    D T 705     -32.036  52.321  33.481  1.00 52.61     0.014 A 
HETATM    8 CL14   D T 705     -34.421  53.497  33.808  1.00 53.97    -0.082 Cl
HETATM    9  C4    D T 705     -30.934  51.574  33.839  1.00 53.27     0.028 A 
ENDBRANCH   1   2
BRANCH   1  10
HETATM   10  C8    D T 705     -29.630  49.073  34.957  1.00 53.50     0.111 A 
HETATM   11  C9    D T 705     -28.382  48.887  34.195  1.00 52.76     0.081 A 
HETATM   12  C10   D T 705     -28.131  47.661  33.635  1.00 53.10     0.025 A 
HETATM   13 CL16   D T 705     -27.174  50.196  34.003  1.00 54.87    -0.080 Cl
HETATM   14  C11   D T 705     -29.051  46.639  33.776  1.00 52.79     0.059 A 
HETATM   15  C12   D T 705     -30.233  46.818  34.481  1.00 53.52     0.013 A 
HETATM   16 CL15   D T 705     -28.656  45.067  33.010  1.00 52.95    -0.082 Cl
HETATM   17  C13   D T 705     -30.538  48.025  35.086  1.00 52.90     0.026 A 
ENDBRANCH   1  10
TORSDOF 2
ENDMDL
MODEL 3
REMARK VINA RESULT:      -7.7      9.493     12.370
REMARK  2 active torsions:
REMARK  status: ('A' for Active; 'I' for Inactive)
REMARK    1  A    between atoms: C5_4  and  O7_13 
REMARK    2  A    between atoms: C8_10  and  O7_13 
ROOT
HETATM    1  O7    D T 705     -27.299  39.878  39.760  1.00 53.87    -0.304 OA
ENDROOT
BRANCH   1   2
HETATM    2  C5    D T 705     -27.838  40.764  38.899  1.00 53.80     0.125 A 
HETATM    3  C6    D T 705     -28.441  40.221  37.677  1.00 53.82     0.154 A 
HETATM    4  C1    D T 705     -28.973  41.123  36.779  1.00 52.44     0.041 A 
HETATM    5  O17   D T 705     -28.418  38.901  37.511  1.00 52.72    -0.188 OA
HETATM    6  C2    D T 705     -28.933  42.476  37.089  1.00 52.70     0.060 A 
HETATM    7  C3    D T 705     -28.352  42.980  38.232  1.00 52.61     0.014 A 
HETATM    8 CL14   D T 705     -29.642  43.678  35.990  1.00 53.97    -0.082 Cl
HETATM    9  C4    D T 705     -27.789  42.122  39.152  1.00 53.27     0.028 A 
ENDBRANCH   1   2
BRANCH   1  10
HETATM   10  C8    D T 705     -26.488  40.317  40.753  1.00 53.50     0.111 A 
HETATM   11  C9    D T 705     -25.044  40.052  40.616  1.00 52.76     0.081 A 
HETATM   12  C10   D T 705     -24.199  40.500  41.597  1.00 53.10     0.025 A 
HETATM   13 CL16   D T 705     -24.360  39.193  39.200  1.00 54.87    -0.080 Cl
HETATM   14  C11   D T 705     -24.709  41.168  42.694  1.00 52.79     0.059 A 
HETATM   15  C12   D T 705     -26.070  41.405  42.830  1.00 53.52     0.013 A 
HETATM   16 CL15   D T 705     -23.541  41.718  43.939  1.00 52.95    -0.082 Cl
HETATM   17  C13   D T 705     -26.976  40.995  41.867  1.00 52.90     0.026 A 
ENDBRANCH   1  10
TORSDOF 2
ENDMDL
MODEL 4
REMARK VINA RESULT:      -7.7      3.665      6.055
REMARK  2 active torsions:
REMARK  status: ('A' for Active; 'I' for Inactive)
REMARK    1  A    between atoms: C5_4  and  O7_13 
REMARK    2  A    between atoms: C8_10  and  O7_13 
ROOT
HETATM    1  O7    D T 705     -31.251  49.454  35.646  1.00 53.87    -0.304 OA
ENDROOT
BRANCH   1   2
HETATM    2  C5    D T 705     -32.017  50.468  35.197  1.00 53.80     0.125 A 
HETATM    3  C6    D T 705     -32.978  50.157  34.133  1.00 53.82     0.154 A 
HETATM    4  C1    D T 705     -33.748  51.195  33.652  1.00 52.44     0.041 A 
HETATM    5  O17   D T 705     -33.027  48.901  33.696  1.00 52.72    -0.188 OA
HETATM    6  C2    D T 705     -33.593  52.456  34.211  1.00 52.70     0.060 A 
HETATM    7  C3    D T 705     -32.679  52.746  35.200  1.00 52.61     0.014 A 
HETATM    8 CL14   D T 705     -34.589  53.820  33.660  1.00 53.97    -0.082 Cl
HETATM    9  C4    D T 705     -31.871  51.747  35.702  1.00 53.27     0.028 A 
ENDBRANCH   1   2
BRANCH   1  10
HETATM   10  C8    D T 705     -31.190  49.196  36.974  1.00 53.50     0.111 A 
HETATM   11  C9    D T 705     -29.857  49.191  37.603  1.00 52.76     0.081 A 
HETATM   12  C10   D T 705     -29.768  48.950  38.950  1.00 53.10     0.025 A 
HETATM   13 CL16   D T 705     -28.360  49.518  36.675  1.00 54.87    -0.080 Cl
HETATM   14  C11   D T 705     -30.913  48.700  39.682  1.00 52.79     0.059 A 
HETATM   15  C12   D T 705     -32.167  48.690  39.087  1.00 53.52     0.013 A 
HETATM   16 CL15   D T 705     -30.715  48.387  41.437  1.00 52.95    -0.082 Cl
HETATM   17  C13   D T 705     -32.328  48.944  37.736  1.00 52.90     0.026 A 
ENDBRANCH   1  10
TORSDOF 2
ENDMDL
MODEL 5
REMARK VINA RESULT:      -7.7      1.386      1.824
REMARK  2 active torsions:
REMARK  status: ('A' for Active; 'I' for Inactive)
REMARK    1  A    between atoms: C5_4  and  O7_13 
REMARK    2  A    between atoms: C8_10  and  O7_13 
ROOT
HETATM    1  O7    D T 705     -29.606  50.390  35.166  1.00 53.87    -0.304 OA
ENDROOT
BRANCH   1   2
HETATM    2  C5    D T 705     -29.401  49.153  34.671  1.00 53.80     0.125 A 
HETATM    3  C6    D T 705     -28.069  48.864  34.132  1.00 53.82     0.154 A 
HETATM    4  C1    D T 705     -27.859  47.608  33.601  1.00 52.44     0.041 A 
HETATM    5  O17   D T 705     -27.161  49.836  34.176  1.00 52.72    -0.188 OA
HETATM    6  C2    D T 705     -28.900  46.690  33.629  1.00 52.70     0.060 A 
HETATM    7  C3    D T 705     -30.155  46.972  34.124  1.00 52.61     0.014 A 
HETATM    8 CL14   D T 705     -28.674  45.044  32.999  1.00 53.97    -0.082 Cl
HETATM    9  C4    D T 705     -30.421  48.220  34.648  1.00 53.27     0.028 A 
ENDBRANCH   1   2
BRANCH   1  10
HETATM   10  C8    D T 705     -30.718  51.079  34.813  1.00 53.50     0.111 A 
HETATM   11  C9    D T 705     -31.787  51.202  35.820  1.00 52.76     0.081 A 
HETATM   12  C10   D T 705     -32.917  51.908  35.495  1.00 53.10     0.025 A 
HETATM   13 CL16   D T 705     -31.647  50.486  37.456  1.00 54.87    -0.080 Cl
HETATM   14  C11   D T 705     -33.039  52.470  34.238  1.00 52.79     0.059 A 
HETATM   15  C12   D T 705     -32.039  52.342  33.285  1.00 53.52     0.013 A 
HETATM   16 CL15   D T 705     -34.548  53.373  33.886  1.00 52.95    -0.082 Cl
HETATM   17  C13   D T 705     -30.867  51.657  33.555  1.00 52.90     0.026 A 
ENDBRANCH   1  10
TORSDOF 2
ENDMDL
MODEL 6
REMARK VINA RESULT:      -7.7     10.253     12.833
REMARK  2 active torsions:
REMARK  status: ('A' for Active; 'I' for Inactive)
REMARK    1  A    between atoms: C5_4  and  O7_13 
REMARK    2  A    between atoms: C8_10  and  O7_13 
ROOT
HETATM    1  O7    D T 705     -26.653  39.818  38.909  1.00 53.87    -0.304 OA
ENDROOT
BRANCH   1   2
HETATM    2  C5    D T 705     -27.991  39.973  38.843  1.00 53.80     0.125 A 
HETATM    3  C6    D T 705     -28.494  41.068  38.008  1.00 53.82     0.154 A 
HETATM    4  C1    D T 705     -29.861  41.248  37.955  1.00 52.44     0.041 A 
HETATM    5  O17   D T 705     -27.599  41.821  37.373  1.00 52.72    -0.188 OA
HETATM    6  C2    D T 705     -30.676  40.377  38.666  1.00 52.70     0.060 A 
HETATM    7  C3    D T 705     -30.196  39.360  39.462  1.00 52.61     0.014 A 
HETATM    8 CL14   D T 705     -32.445  40.535  38.601  1.00 53.97    -0.082 Cl
HETATM    9  C4    D T 705     -28.837  39.150  39.564  1.00 53.27     0.028 A 
ENDBRANCH   1   2
BRANCH   1  10
HETATM   10  C8    D T 705     -25.995  40.149  40.046  1.00 53.50     0.111 A 
HETATM   11  C9    D T 705     -24.647  39.583  40.237  1.00 52.76     0.081 A 
HETATM   12  C10   D T 705     -23.951  39.916  41.371  1.00 53.10     0.025 A 
HETATM   13 CL16   D T 705     -23.882  38.505  39.029  1.00 54.87    -0.080 Cl
HETATM   14  C11   D T 705     -24.524  40.750  42.311  1.00 52.79     0.059 A 
HETATM   15  C12   D T 705     -25.799  41.271  42.138  1.00 53.52     0.013 A 
HETATM   16 CL15   D T 705     -23.555  41.133  43.770  1.00 52.95    -0.082 Cl
HETATM   17  C13   D T 705     -26.548  40.990  41.009  1.00 52.90     0.026 A 
ENDBRANCH   1  10
TORSDOF 2
ENDMDL
MODEL 7
REMARK VINA RESULT:      -7.6      3.541      4.043
REMARK  2 active torsions:
REMARK  status: ('A' for Active; 'I' for Inactive)
REMARK    1  A    between atoms: C5_4  and  O7_13 
REMARK    2  A    between atoms: C8_10  and  O7_13 
ROOT
HETATM    1  O7    D T 705     -31.000  49.720  35.836  1.00 53.87    -0.304 OA
ENDROOT
BRANCH   1   2
HETATM    2  C5    D T 705     -31.070  49.375  37.137  1.00 53.80     0.125 A 
HETATM    3  C6    D T 705     -29.824  49.432  37.909  1.00 53.82     0.154 A 
HETATM    4  C1    D T 705     -29.883  49.057  39.235  1.00 52.44     0.041 A 
HETATM    5  O17   D T 705     -28.722  49.823  37.273  1.00 52.72    -0.188 OA
HETATM    6  C2    D T 705     -31.107  48.676  39.767  1.00 52.70     0.060 A 
HETATM    7  C3    D T 705     -32.272  48.612  39.033  1.00 52.61     0.014 A 
HETATM    8 CL14   D T 705     -31.250  48.226  41.480  1.00 53.97    -0.082 Cl
HETATM    9  C4    D T 705     -32.262  48.957  37.698  1.00 53.27     0.028 A 
ENDBRANCH   1   2
BRANCH   1  10
HETATM   10  C8    D T 705     -31.808  50.695  35.356  1.00 53.50     0.111 A 
HETATM   11  C9    D T 705     -32.719  50.338  34.252  1.00 52.76     0.081 A 
HETATM   12  C10   D T 705     -33.561  51.301  33.759  1.00 53.10     0.025 A 
HETATM   13 CL16   D T 705     -32.782  48.687  33.560  1.00 54.87    -0.080 Cl
HETATM   14  C11   D T 705     -33.528  52.579  34.284  1.00 52.79     0.059 A 
HETATM   15  C12   D T 705     -32.660  52.919  35.313  1.00 53.52     0.013 A 
HETATM   16 CL15   D T 705     -34.654  53.785  33.582  1.00 52.95    -0.082 Cl
HETATM   17  C13   D T 705     -31.798  51.990  35.868  1.00 52.90     0.026 A 
ENDBRANCH   1  10
TORSDOF 2
ENDMDL
MODEL 8
REMARK VINA RESULT:      -7.6      1.142      5.684
REMARK  2 active torsions:
REMARK  status: ('A' for Active; 'I' for Inactive)
REMARK    1  A    between atoms: C5_4  and  O7_13 
REMARK    2  A    between atoms: C8_10  and  O7_13 
ROOT
HETATM    1  O7    D T 705     -29.796  50.669  34.889  1.00 53.87    -0.304 OA
ENDROOT
BRANCH   1   2
HETATM    2  C5    D T 705     -30.933  51.354  34.653  1.00 53.80     0.125 A 
HETATM    3  C6    D T 705     -31.200  51.743  33.265  1.00 53.82     0.154 A 
HETATM    4  C1    D T 705     -32.349  52.466  33.020  1.00 52.44     0.041 A 
HETATM    5  O17   D T 705     -30.309  51.387  32.342  1.00 52.72    -0.188 OA
HETATM    6  C2    D T 705     -33.192  52.760  34.083  1.00 52.70     0.060 A 
HETATM    7  C3    D T 705     -32.928  52.404  35.388  1.00 52.61     0.014 A 
HETATM    8 CL14   D T 705     -34.707  53.650  33.819  1.00 53.97    -0.082 Cl
HETATM    9  C4    D T 705     -31.783  51.697  35.689  1.00 53.27     0.028 A 
ENDBRANCH   1   2
BRANCH   1  10
HETATM   10  C8    D T 705     -29.719  49.360  34.549  1.00 53.50     0.111 A 
HETATM   11  C9    D T 705     -28.512  48.917  33.827  1.00 52.76     0.081 A 
HETATM   12  C10   D T 705     -28.399  47.594  33.486  1.00 53.10     0.025 A 
HETATM   13 CL16   D T 705     -27.181  50.041  33.411  1.00 54.87    -0.080 Cl
HETATM   14  C11   D T 705     -29.415  46.713  33.803  1.00 52.79     0.059 A 
HETATM   15  C12   D T 705     -30.558  47.132  34.469  1.00 53.52     0.013 A 
HETATM   16 CL15   D T 705     -29.199  45.000  33.317  1.00 52.95    -0.082 Cl
HETATM   17  C13   D T 705     -30.726  48.450  34.858  1.00 52.90     0.026 A 
ENDBRANCH   1  10
TORSDOF 2
ENDMDL
MODEL 9
REMARK VINA RESULT:      -7.6      9.355     11.688
REMARK  2 active torsions:
REMARK  status: ('A' for Active; 'I' for Inactive)
REMARK    1  A    between atoms: C5_4  and  O7_13 
REMARK    2  A    between atoms: C8_10  and  O7_13 
ROOT
HETATM    1  O7    D T 705     -27.457  39.660  39.353  1.00 53.87    -0.304 OA
ENDROOT
BRANCH   1   2
HETATM    2  C5    D T 705     -26.721  40.179  40.357  1.00 53.80     0.125 A 
HETATM    3  C6    D T 705     -25.269  39.989  40.285  1.00 53.82     0.154 A 
HETATM    4  C1    D T 705     -24.513  40.495  41.321  1.00 52.44     0.041 A 
HETATM    5  O17   D T 705     -24.785  39.328  39.236  1.00 52.72    -0.188 OA
HETATM    6  C2    D T 705     -25.156  41.171  42.349  1.00 52.70     0.060 A 
HETATM    7  C3    D T 705     -26.523  41.334  42.418  1.00 52.61     0.014 A 
HETATM    8 CL14   D T 705     -24.228  41.882  43.687  1.00 53.97    -0.082 Cl
HETATM    9  C4    D T 705     -27.326  40.829  41.417  1.00 53.27     0.028 A 
ENDBRANCH   1   2
BRANCH   1  10
HETATM   10  C8    D T 705     -28.181  40.483  38.557  1.00 53.50     0.111 A 
HETATM   11  C9    D T 705     -29.649  40.352  38.603  1.00 52.76     0.081 A 
HETATM   12  C10   D T 705     -30.407  41.184  37.821  1.00 53.10     0.025 A 
HETATM   13 CL16   D T 705     -30.470  39.166  39.665  1.00 54.87    -0.080 Cl
HETATM   14  C11   D T 705     -29.790  42.108  36.999  1.00 52.79     0.059 A 
HETATM   15  C12   D T 705     -28.408  42.221  36.944  1.00 53.52     0.013 A 
HETATM   16 CL15   D T 705     -30.848  43.157  36.001  1.00 52.95    -0.082 Cl
HETATM   17  C13   D T 705     -27.585  41.424  37.722  1.00 52.90     0.026 A 
ENDBRANCH   1  10
TORSDOF 2
ENDMDL
