MODEL 1
REMARK VINA RESULT:    -7.670      0.000      0.000
REMARK INTER + INTRA:          -8.920
REMARK INTER:                  -8.566
REMARK INTRA:                  -0.354
REMARK UNBOUND:                -0.354
REMARK  2 active torsions:
REMARK  status: ('A' for Active; 'I' for Inactive)
REMARK    1  A    between atoms: C5_4  and  O7_13 
REMARK    2  A    between atoms: C8_10  and  O7_13 
ROOT
HETATM    1  O7    D T 705       5.862   0.205  -7.326  1.00 53.87    -0.304 OA
ENDROOT
BRANCH   1   2
HETATM    2  C5    D T 705       5.100   1.083  -6.644  1.00 53.80     0.125 A 
HETATM    3  C6    D T 705       4.009   0.530  -5.835  1.00 53.82     0.154 A 
HETATM    4  C1    D T 705       3.211   1.425  -5.153  1.00 52.44     0.041 A 
HETATM    5  O17   D T 705       3.855  -0.792  -5.829  1.00 52.72    -0.188 OA
HETATM    6  C2    D T 705       3.495   2.781  -5.247  1.00 52.70     0.060 A 
HETATM    7  C3    D T 705       4.513   3.294  -6.020  1.00 52.61     0.014 A 
HETATM    8 CL14   D T 705       2.527   3.974  -4.356  1.00 53.97    -0.082 Cl
HETATM    9  C4    D T 705       5.328   2.444  -6.737  1.00 53.27     0.028 A 
ENDBRANCH   1   2
BRANCH   1  10
HETATM   10  C8    D T 705       6.274   0.509  -8.581  1.00 53.50     0.111 A 
HETATM   11  C9    D T 705       5.295   0.347  -9.672  1.00 52.76     0.081 A 
HETATM   12  C10   D T 705       5.679   0.663 -10.950  1.00 53.10     0.025 A 
HETATM   13 CL16   D T 705       3.621  -0.218  -9.379  1.00 54.87    -0.080 Cl
HETATM   14  C11   D T 705       6.967   1.105 -11.193  1.00 52.79     0.059 A 
HETATM   15  C12   D T 705       7.892   1.242 -10.168  1.00 53.52     0.013 A 
HETATM   16 CL15   D T 705       7.396   1.492 -12.890  1.00 52.95    -0.082 Cl
HETATM   17  C13   D T 705       7.564   0.957  -8.853  1.00 52.90     0.026 A 
ENDBRANCH   1  10
TORSDOF 2
ENDMDL
MODEL 2
REMARK VINA RESULT:    -7.582      9.447     12.303
REMARK INTER + INTRA:          -8.822
REMARK INTER:                  -8.512
REMARK INTRA:                  -0.310
REMARK UNBOUND:                -0.354
REMARK  2 active torsions:
REMARK  status: ('A' for Active; 'I' for Inactive)
REMARK    1  A    between atoms: C5_4  and  O7_13 
REMARK    2  A    between atoms: C8_10  and  O7_13 
ROOT
HETATM    1  O7    D T 705       5.562   5.429   3.201  1.00 53.87    -0.304 OA
ENDROOT
BRANCH   1   2
HETATM    2  C5    D T 705       5.496   5.792   1.904  1.00 53.80     0.125 A 
HETATM    3  C6    D T 705       5.692   7.212   1.599  1.00 53.82     0.154 A 
HETATM    4  C1    D T 705       5.601   7.594   0.276  1.00 52.44     0.041 A 
HETATM    5  O17   D T 705       5.925   8.036   2.618  1.00 52.72    -0.188 OA
HETATM    6  C2    D T 705       5.359   6.621  -0.685  1.00 52.70     0.060 A 
HETATM    7  C3    D T 705       5.161   5.290  -0.389  1.00 52.61     0.014 A 
HETATM    8 CL14   D T 705       5.275   7.049  -2.407  1.00 53.97    -0.082 Cl
HETATM    9  C4    D T 705       5.222   4.860   0.919  1.00 53.27     0.028 A 
ENDBRANCH   1   2
BRANCH   1  10
HETATM   10  C8    D T 705       6.613   4.696   3.639  1.00 53.50     0.111 A 
HETATM   11  C9    D T 705       6.386   3.812   4.797  1.00 52.76     0.081 A 
HETATM   12  C10   D T 705       7.428   3.045   5.251  1.00 53.10     0.025 A 
HETATM   13 CL16   D T 705       4.793   3.687   5.607  1.00 54.87    -0.080 Cl
HETATM   14  C11   D T 705       8.663   3.127   4.635  1.00 52.79     0.059 A 
HETATM   15  C12   D T 705       8.880   3.969   3.555  1.00 53.52     0.013 A 
HETATM   16 CL15   D T 705       9.977   2.098   5.290  1.00 52.95    -0.082 Cl
HETATM   17  C13   D T 705       7.866   4.757   3.035  1.00 52.90     0.026 A 
ENDBRANCH   1  10
TORSDOF 2
ENDMDL
MODEL 3
REMARK VINA RESULT:    -7.429      9.344     11.793
REMARK INTER + INTRA:          -8.651
REMARK INTER:                  -8.123
REMARK INTRA:                  -0.529
REMARK UNBOUND:                -0.354
REMARK  2 active torsions:
REMARK  status: ('A' for Active; 'I' for Inactive)
REMARK    1  A    between atoms: C5_4  and  O7_13 
REMARK    2  A    between atoms: C8_10  and  O7_13 
ROOT
HETATM    1  O7    D T 705       7.699   5.906   2.720  1.00 53.87    -0.304 OA
ENDROOT
BRANCH   1   2
HETATM    2  C5    D T 705       7.736   4.740   3.396  1.00 53.80     0.125 A 
HETATM    3  C6    D T 705       9.037   4.073   3.503  1.00 53.82     0.154 A 
HETATM    4  C1    D T 705       9.077   2.868   4.173  1.00 52.44     0.041 A 
HETATM    5  O17   D T 705      10.083   4.665   2.932  1.00 52.72    -0.188 OA
HETATM    6  C2    D T 705       7.904   2.371   4.726  1.00 52.70     0.060 A 
HETATM    7  C3    D T 705       6.682   2.997   4.610  1.00 52.61     0.014 A 
HETATM    8 CL14   D T 705       7.905   0.846   5.637  1.00 53.97    -0.082 Cl
HETATM    9  C4    D T 705       6.584   4.194   3.933  1.00 53.27     0.028 A 
ENDBRANCH   1   2
BRANCH   1  10
HETATM   10  C8    D T 705       6.928   6.013   1.611  1.00 53.50     0.111 A 
HETATM   11  C9    D T 705       5.704   6.829   1.714  1.00 52.76     0.081 A 
HETATM   12  C10   D T 705       4.914   6.969   0.602  1.00 53.10     0.025 A 
HETATM   13 CL16   D T 705       5.235   7.662   3.228  1.00 54.87    -0.080 Cl
HETATM   14  C11   D T 705       5.264   6.336  -0.576  1.00 52.79     0.059 A 
HETATM   15  C12   D T 705       6.407   5.557  -0.668  1.00 53.52     0.013 A 
HETATM   16 CL15   D T 705       4.177   6.562  -1.984  1.00 52.95    -0.082 Cl
HETATM   17  C13   D T 705       7.259   5.388   0.411  1.00 52.90     0.026 A 
ENDBRANCH   1  10
TORSDOF 2
ENDMDL
MODEL 4
REMARK VINA RESULT:    -7.409      1.135      5.843
REMARK INTER + INTRA:          -8.629
REMARK INTER:                  -8.181
REMARK INTRA:                  -0.448
REMARK UNBOUND:                -0.354
REMARK  2 active torsions:
REMARK  status: ('A' for Active; 'I' for Inactive)
REMARK    1  A    between atoms: C5_4  and  O7_13 
REMARK    2  A    between atoms: C8_10  and  O7_13 
ROOT
HETATM    1  O7    D T 705       6.019   0.462  -7.266  1.00 53.87    -0.304 OA
ENDROOT
BRANCH   1   2
HETATM    2  C5    D T 705       6.293   0.678  -8.568  1.00 53.80     0.125 A 
HETATM    3  C6    D T 705       7.624   1.202  -8.890  1.00 53.82     0.154 A 
HETATM    4  C1    D T 705       7.902   1.449 -10.219  1.00 52.44     0.041 A 
HETATM    5  O17   D T 705       8.462   1.421  -7.880  1.00 52.72    -0.188 OA
HETATM    6  C2    D T 705       6.930   1.165 -11.169  1.00 52.70     0.060 A 
HETATM    7  C3    D T 705       5.677   0.686 -10.857  1.00 52.61     0.014 A 
HETATM    8 CL14   D T 705       7.250   1.422 -12.897  1.00 53.97    -0.082 Cl
HETATM    9  C4    D T 705       5.341   0.442  -9.543  1.00 53.27     0.028 A 
ENDBRANCH   1   2
BRANCH   1  10
HETATM   10  C8    D T 705       5.219   1.327  -6.597  1.00 53.50     0.111 A 
HETATM   11  C9    D T 705       4.048   0.765  -5.900  1.00 52.76     0.081 A 
HETATM   12  C10   D T 705       3.231   1.615  -5.200  1.00 53.10     0.025 A 
HETATM   13 CL16   D T 705       3.676  -0.987  -5.913  1.00 54.87    -0.080 Cl
HETATM   14  C11   D T 705       3.504   2.970  -5.177  1.00 52.79     0.059 A 
HETATM   15  C12   D T 705       4.598   3.501  -5.845  1.00 53.52     0.013 A 
HETATM   16 CL15   D T 705       2.386   4.018  -4.246  1.00 52.95    -0.082 Cl
HETATM   17  C13   D T 705       5.474   2.696  -6.555  1.00 52.90     0.026 A 
ENDBRANCH   1  10
TORSDOF 2
ENDMDL
MODEL 5
REMARK VINA RESULT:    -7.325      2.514      3.074
REMARK INTER + INTRA:          -8.535
REMARK INTER:                  -8.170
REMARK INTRA:                  -0.364
REMARK UNBOUND:                -0.354
REMARK  2 active torsions:
REMARK  status: ('A' for Active; 'I' for Inactive)
REMARK    1  A    between atoms: C5_4  and  O7_13 
REMARK    2  A    between atoms: C8_10  and  O7_13 
ROOT
HETATM    1  O7    D T 705       4.998   3.401  -7.476  1.00 53.87    -0.304 OA
ENDROOT
BRANCH   1   2
HETATM    2  C5    D T 705       4.595   2.601  -6.469  1.00 53.80     0.125 A 
HETATM    3  C6    D T 705       4.861   3.065  -5.104  1.00 53.82     0.154 A 
HETATM    4  C1    D T 705       4.473   2.240  -4.068  1.00 52.44     0.041 A 
HETATM    5  O17   D T 705       5.472   4.238  -4.958  1.00 52.72    -0.188 OA
HETATM    6  C2    D T 705       3.836   1.043  -4.370  1.00 52.70     0.060 A 
HETATM    7  C3    D T 705       3.603   0.607  -5.656  1.00 52.61     0.014 A 
HETATM    8 CL14   D T 705       3.277  -0.037  -3.076  1.00 53.97    -0.082 Cl
HETATM    9  C4    D T 705       3.989   1.385  -6.726  1.00 53.27     0.028 A 
ENDBRANCH   1   2
BRANCH   1  10
HETATM   10  C8    D T 705       5.555   2.855  -8.584  1.00 53.50     0.111 A 
HETATM   11  C9    D T 705       6.977   2.473  -8.509  1.00 52.76     0.081 A 
HETATM   12  C10   D T 705       7.562   1.902  -9.610  1.00 53.10     0.025 A 
HETATM   13 CL16   D T 705       7.953   2.704  -7.025  1.00 54.87    -0.080 Cl
HETATM   14  C11   D T 705       6.823   1.713 -10.763  1.00 52.79     0.059 A 
HETATM   15  C12   D T 705       5.489   2.086 -10.838  1.00 53.52     0.013 A 
HETATM   16 CL15   D T 705       7.659   0.967 -12.162  1.00 52.95    -0.082 Cl
HETATM   17  C13   D T 705       4.833   2.651  -9.757  1.00 52.90     0.026 A 
ENDBRANCH   1  10
TORSDOF 2
ENDMDL
MODEL 6
REMARK VINA RESULT:    -7.231      2.135      5.913
REMARK INTER + INTRA:          -8.431
REMARK INTER:                  -7.904
REMARK INTRA:                  -0.526
REMARK UNBOUND:                -0.354
REMARK  2 active torsions:
REMARK  status: ('A' for Active; 'I' for Inactive)
REMARK    1  A    between atoms: C5_4  and  O7_13 
REMARK    2  A    between atoms: C8_10  and  O7_13 
ROOT
HETATM    1  O7    D T 705       4.354   1.408  -8.050  1.00 53.87    -0.304 OA
ENDROOT
BRANCH   1   2
HETATM    2  C5    D T 705       5.200   1.294  -9.095  1.00 53.80     0.125 A 
HETATM    3  C6    D T 705       5.090   2.303 -10.153  1.00 53.82     0.154 A 
HETATM    4  C1    D T 705       5.935   2.179 -11.236  1.00 52.44     0.041 A 
HETATM    5  O17   D T 705       4.173   3.256 -10.004  1.00 52.72    -0.188 OA
HETATM    6  C2    D T 705       6.850   1.135 -11.253  1.00 52.70     0.060 A 
HETATM    7  C3    D T 705       6.938   0.182 -10.262  1.00 52.61     0.014 A 
HETATM    8 CL14   D T 705       7.991   0.952 -12.602  1.00 53.97    -0.082 Cl
HETATM    9  C4    D T 705       6.102   0.249  -9.168  1.00 53.27     0.028 A 
ENDBRANCH   1   2
BRANCH   1  10
HETATM   10  C8    D T 705       4.829   1.802  -6.844  1.00 53.50     0.111 A 
HETATM   11  C9    D T 705       4.740   0.836  -5.734  1.00 52.76     0.081 A 
HETATM   12  C10   D T 705       5.228   1.202  -4.506  1.00 53.10     0.025 A 
HETATM   13 CL16   D T 705       4.046  -0.802  -5.943  1.00 54.87    -0.080 Cl
HETATM   14  C11   D T 705       5.771   2.461  -4.327  1.00 52.79     0.059 A 
HETATM   15  C12   D T 705       5.841   3.375  -5.369  1.00 53.52     0.013 A 
HETATM   16 CL15   D T 705       6.382   2.868  -2.692  1.00 52.95    -0.082 Cl
HETATM   17  C13   D T 705       5.383   3.063  -6.638  1.00 52.90     0.026 A 
ENDBRANCH   1  10
TORSDOF 2
ENDMDL
MODEL 7
REMARK VINA RESULT:    -7.090      2.147      6.070
REMARK INTER + INTRA:          -8.273
REMARK INTER:                  -7.856
REMARK INTRA:                  -0.417
REMARK UNBOUND:                -0.354
REMARK  2 active torsions:
REMARK  status: ('A' for Active; 'I' for Inactive)
REMARK    1  A    between atoms: C5_4  and  O7_13 
REMARK    2  A    between atoms: C8_10  and  O7_13 
ROOT
HETATM    1  O7    D T 705       5.897   3.237  -6.936  1.00 53.87    -0.304 OA
ENDROOT
BRANCH   1   2
HETATM    2  C5    D T 705       6.121   2.795  -8.190  1.00 53.80     0.125 A 
HETATM    3  C6    D T 705       7.495   2.402  -8.522  1.00 53.82     0.154 A 
HETATM    4  C1    D T 705       7.736   1.972  -9.810  1.00 52.44     0.041 A 
HETATM    5  O17   D T 705       8.414   2.503  -7.565  1.00 52.72    -0.188 OA
HETATM    6  C2    D T 705       6.675   1.911 -10.704  1.00 52.70     0.060 A 
HETATM    7  C3    D T 705       5.390   2.295 -10.389  1.00 52.61     0.014 A 
HETATM    8 CL14   D T 705       6.920   1.324 -12.363  1.00 53.97    -0.082 Cl
HETATM    9  C4    D T 705       5.100   2.751  -9.121  1.00 53.27     0.028 A 
ENDBRANCH   1   2
BRANCH   1  10
HETATM   10  C8    D T 705       5.302   2.419  -6.034  1.00 53.50     0.111 A 
HETATM   11  C9    D T 705       4.129   2.947  -5.314  1.00 52.76     0.081 A 
HETATM   12  C10   D T 705       3.496   2.136  -4.408  1.00 53.10     0.025 A 
HETATM   13 CL16   D T 705       3.489   4.595  -5.604  1.00 54.87    -0.080 Cl
HETATM   14  C11   D T 705       3.974   0.860  -4.174  1.00 52.79     0.059 A 
HETATM   15  C12   D T 705       5.087   0.369  -4.841  1.00 53.52     0.013 A 
HETATM   16 CL15   D T 705       3.097  -0.139  -2.970  1.00 52.95    -0.082 Cl
HETATM   17  C13   D T 705       5.761   1.129  -5.782  1.00 52.90     0.026 A 
ENDBRANCH   1  10
TORSDOF 2
ENDMDL
MODEL 8
REMARK VINA RESULT:    -7.072      2.127      2.658
REMARK INTER + INTRA:          -8.253
REMARK INTER:                  -7.700
REMARK INTRA:                  -0.552
REMARK UNBOUND:                -0.354
REMARK  2 active torsions:
REMARK  status: ('A' for Active; 'I' for Inactive)
REMARK    1  A    between atoms: C5_4  and  O7_13 
REMARK    2  A    between atoms: C8_10  and  O7_13 
ROOT
HETATM    1  O7    D T 705       5.816   0.906  -5.181  1.00 53.87    -0.304 OA
ENDROOT
BRANCH   1   2
HETATM    2  C5    D T 705       5.088   1.953  -4.744  1.00 53.80     0.125 A 
HETATM    3  C6    D T 705       5.708   2.821  -3.738  1.00 53.82     0.154 A 
HETATM    4  C1    D T 705       4.959   3.880  -3.268  1.00 52.44     0.041 A 
HETATM    5  O17   D T 705       6.940   2.518  -3.336  1.00 52.72    -0.188 OA
HETATM    6  C2    D T 705       3.686   4.080  -3.785  1.00 52.70     0.060 A 
HETATM    7  C3    D T 705       3.104   3.251  -4.719  1.00 52.61     0.014 A 
HETATM    8 CL14   D T 705       2.694   5.452  -3.248  1.00 53.97    -0.082 Cl
HETATM    9  C4    D T 705       3.803   2.167  -5.207  1.00 53.27     0.028 A 
ENDBRANCH   1   2
BRANCH   1  10
HETATM   10  C8    D T 705       6.237   0.873  -6.468  1.00 53.50     0.111 A 
HETATM   11  C9    D T 705       5.660  -0.165  -7.342  1.00 52.76     0.081 A 
HETATM   12  C10   D T 705       6.054  -0.210  -8.655  1.00 53.10     0.025 A 
HETATM   13 CL16   D T 705       4.444  -1.342  -6.756  1.00 54.87    -0.080 Cl
HETATM   14  C11   D T 705       6.988   0.693  -9.125  1.00 52.79     0.059 A 
HETATM   15  C12   D T 705       7.543   1.660  -8.298  1.00 53.52     0.013 A 
HETATM   16 CL15   D T 705       7.459   0.566 -10.851  1.00 52.95    -0.082 Cl
HETATM   17  C13   D T 705       7.175   1.773  -6.968  1.00 52.90     0.026 A 
ENDBRANCH   1  10
TORSDOF 2
ENDMDL
MODEL 9
REMARK VINA RESULT:    -7.069      2.093      2.253
REMARK INTER + INTRA:          -8.250
REMARK INTER:                  -7.778
REMARK INTRA:                  -0.471
REMARK UNBOUND:                -0.354
REMARK  2 active torsions:
REMARK  status: ('A' for Active; 'I' for Inactive)
REMARK    1  A    between atoms: C5_4  and  O7_13 
REMARK    2  A    between atoms: C8_10  and  O7_13 
ROOT
HETATM    1  O7    D T 705       4.033   1.655  -7.134  1.00 53.87    -0.304 OA
ENDROOT
BRANCH   1   2
HETATM    2  C5    D T 705       4.431   2.072  -5.915  1.00 53.80     0.125 A 
HETATM    3  C6    D T 705       4.209   1.156  -4.793  1.00 53.82     0.154 A 
HETATM    4  C1    D T 705       4.592   1.586  -3.539  1.00 52.44     0.041 A 
HETATM    5  O17   D T 705       3.638  -0.017  -5.057  1.00 52.72    -0.188 OA
HETATM    6  C2    D T 705       5.184   2.836  -3.413  1.00 52.70     0.060 A 
HETATM    7  C3    D T 705       5.376   3.698  -4.471  1.00 52.61     0.014 A 
HETATM    8 CL14   D T 705       5.735   3.423  -1.830  1.00 53.97    -0.082 Cl
HETATM    9  C4    D T 705       4.993   3.324  -5.741  1.00 53.27     0.028 A 
ENDBRANCH   1   2
BRANCH   1  10
HETATM   10  C8    D T 705       4.960   1.317  -8.063  1.00 53.50     0.111 A 
HETATM   11  C9    D T 705       5.256   2.307  -9.115  1.00 52.76     0.081 A 
HETATM   12  C10   D T 705       6.202   1.999 -10.058  1.00 53.10     0.025 A 
HETATM   13 CL16   D T 705       4.444   3.903  -9.183  1.00 54.87    -0.080 Cl
HETATM   14  C11   D T 705       6.841   0.774 -10.018  1.00 52.79     0.059 A 
HETATM   15  C12   D T 705       6.551  -0.163  -9.037  1.00 53.52     0.013 A 
HETATM   16 CL15   D T 705       8.061   0.441 -11.289  1.00 52.95    -0.082 Cl
HETATM   17  C13   D T 705       5.620   0.091  -8.044  1.00 52.90     0.026 A 
ENDBRANCH   1  10
TORSDOF 2
ENDMDL
