MODEL 1
REMARK VINA RESULT:    -7.973      0.000      0.000
REMARK INTER + INTRA:          -9.174
REMARK INTER:                  -8.905
REMARK INTRA:                  -0.269
REMARK UNBOUND:                -0.269
REMARK  2 active torsions:
REMARK  status: ('A' for Active; 'I' for Inactive)
REMARK    1  A    between atoms: C5_4  and  O7_13 
REMARK    2  A    between atoms: C8_10  and  O7_13 
ROOT
HETATM    1  O7    D T 705     -29.654  50.835  35.061  1.00 53.87    -0.304 OA
ENDROOT
BRANCH   1   2
HETATM    2  C5    D T 705     -29.488  49.568  34.632  1.00 53.80     0.125 A 
HETATM    3  C6    D T 705     -28.190  49.230  34.039  1.00 53.82     0.154 A 
HETATM    4  C1    D T 705     -28.022  47.942  33.576  1.00 52.44     0.041 A 
HETATM    5  O17   D T 705     -27.273  50.192  33.973  1.00 52.72    -0.188 OA
HETATM    6  C2    D T 705     -29.067  47.039  33.719  1.00 52.70     0.060 A 
HETATM    7  C3    D T 705     -30.289  47.367  34.264  1.00 52.61     0.014 A 
HETATM    8 CL14   D T 705     -28.890  45.355  33.180  1.00 53.97    -0.082 Cl
HETATM    9  C4    D T 705     -30.515  48.647  34.724  1.00 53.27     0.028 A 
ENDBRANCH   1   2
BRANCH   1  10
HETATM   10  C8    D T 705     -30.836  51.464  34.853  1.00 53.50     0.111 A 
HETATM   11  C9    D T 705     -31.177  51.823  33.465  1.00 52.76     0.081 A 
HETATM   12  C10   D T 705     -32.376  52.445  33.224  1.00 53.10     0.025 A 
HETATM   13 CL16   D T 705     -30.096  51.449  32.086  1.00 54.87    -0.080 Cl
HETATM   14  C11   D T 705     -33.223  52.737  34.275  1.00 52.79     0.059 A 
HETATM   15  C12   D T 705     -32.895  52.412  35.584  1.00 53.52     0.013 A 
HETATM   16 CL15   D T 705     -34.769  53.557  33.881  1.00 52.95    -0.082 Cl
HETATM   17  C13   D T 705     -31.710  51.768  35.894  1.00 52.90     0.026 A 
ENDBRANCH   1  10
TORSDOF 2
ENDMDL
MODEL 2
REMARK VINA RESULT:    -7.673      1.329      5.876
REMARK INTER + INTRA:          -8.839
REMARK INTER:                  -8.307
REMARK INTRA:                  -0.533
REMARK UNBOUND:                -0.269
REMARK  2 active torsions:
REMARK  status: ('A' for Active; 'I' for Inactive)
REMARK    1  A    between atoms: C5_4  and  O7_13 
REMARK    2  A    between atoms: C8_10  and  O7_13 
ROOT
HETATM    1  O7    D T 705     -29.806  50.128  35.564  1.00 53.87    -0.304 OA
ENDROOT
BRANCH   1   2
HETATM    2  C5    D T 705     -30.831  50.901  35.153  1.00 53.80     0.125 A 
HETATM    3  C6    D T 705     -31.943  51.085  36.091  1.00 53.82     0.154 A 
HETATM    4  C1    D T 705     -33.007  51.855  35.668  1.00 52.44     0.041 A 
HETATM    5  O17   D T 705     -31.857  50.485  37.276  1.00 52.72    -0.188 OA
HETATM    6  C2    D T 705     -32.956  52.427  34.404  1.00 52.70     0.060 A 
HETATM    7  C3    D T 705     -31.914  52.238  33.522  1.00 52.61     0.014 A 
HETATM    8 CL14   D T 705     -34.278  53.463  33.824  1.00 53.97    -0.082 Cl
HETATM    9  C4    D T 705     -30.836  51.462  33.889  1.00 53.27     0.028 A 
ENDBRANCH   1   2
BRANCH   1  10
HETATM   10  C8    D T 705     -29.626  48.904  35.013  1.00 53.50     0.111 A 
HETATM   11  C9    D T 705     -28.426  48.707  34.178  1.00 52.76     0.081 A 
HETATM   12  C10   D T 705     -28.210  47.473  33.621  1.00 53.10     0.025 A 
HETATM   13 CL16   D T 705     -27.234  50.013  33.893  1.00 54.87    -0.080 Cl
HETATM   14  C11   D T 705     -29.118  46.453  33.834  1.00 52.79     0.059 A 
HETATM   15  C12   D T 705     -30.254  46.643  34.608  1.00 53.52     0.013 A 
HETATM   16 CL15   D T 705     -28.770  44.869  33.068  1.00 52.95    -0.082 Cl
HETATM   17  C13   D T 705     -30.523  47.858  35.213  1.00 52.90     0.026 A 
ENDBRANCH   1  10
TORSDOF 2
ENDMDL
MODEL 3
REMARK VINA RESULT:    -7.577      3.559      6.055
REMARK INTER + INTRA:          -8.732
REMARK INTER:                  -8.336
REMARK INTRA:                  -0.397
REMARK UNBOUND:                -0.269
REMARK  2 active torsions:
REMARK  status: ('A' for Active; 'I' for Inactive)
REMARK    1  A    between atoms: C5_4  and  O7_13 
REMARK    2  A    between atoms: C8_10  and  O7_13 
ROOT
HETATM    1  O7    D T 705     -31.106  49.557  35.539  1.00 53.87    -0.304 OA
ENDROOT
BRANCH   1   2
HETATM    2  C5    D T 705     -31.921  50.552  35.136  1.00 53.80     0.125 A 
HETATM    3  C6    D T 705     -32.935  50.216  34.131  1.00 53.82     0.154 A 
HETATM    4  C1    D T 705     -33.757  51.234  33.696  1.00 52.44     0.041 A 
HETATM    5  O17   D T 705     -32.982  48.958  33.699  1.00 52.72    -0.188 OA
HETATM    6  C2    D T 705     -33.599  52.501  34.243  1.00 52.70     0.060 A 
HETATM    7  C3    D T 705     -32.634  52.813  35.176  1.00 52.61     0.014 A 
HETATM    8 CL14   D T 705     -34.658  53.840  33.751  1.00 53.97    -0.082 Cl
HETATM    9  C4    D T 705     -31.775  51.835  35.630  1.00 53.27     0.028 A 
ENDBRANCH   1   2
BRANCH   1  10
HETATM   10  C8    D T 705     -31.094  49.186  36.842  1.00 53.50     0.111 A 
HETATM   11  C9    D T 705     -29.782  48.912  37.457  1.00 52.76     0.081 A 
HETATM   12  C10   D T 705     -29.739  48.552  38.779  1.00 53.10     0.025 A 
HETATM   13 CL16   D T 705     -28.248  49.064  36.544  1.00 54.87    -0.080 Cl
HETATM   14  C11   D T 705     -30.913  48.434  39.499  1.00 52.79     0.059 A 
HETATM   15  C12   D T 705     -32.149  48.678  38.916  1.00 53.52     0.013 A 
HETATM   16 CL15   D T 705     -30.776  47.952  41.220  1.00 52.95    -0.082 Cl
HETATM   17  C13   D T 705     -32.261  49.063  37.591  1.00 52.90     0.026 A 
ENDBRANCH   1  10
TORSDOF 2
ENDMDL
MODEL 4
REMARK VINA RESULT:    -7.557      1.207      5.689
REMARK INTER + INTRA:          -8.710
REMARK INTER:                  -8.550
REMARK INTRA:                  -0.160
REMARK UNBOUND:                -0.269
REMARK  2 active torsions:
REMARK  status: ('A' for Active; 'I' for Inactive)
REMARK    1  A    between atoms: C5_4  and  O7_13 
REMARK    2  A    between atoms: C8_10  and  O7_13 
ROOT
HETATM    1  O7    D T 705     -29.938  50.578  35.084  1.00 53.87    -0.304 OA
ENDROOT
BRANCH   1   2
HETATM    2  C5    D T 705     -31.048  51.291  34.808  1.00 53.80     0.125 A 
HETATM    3  C6    D T 705     -31.217  51.751  33.425  1.00 53.82     0.154 A 
HETATM    4  C1    D T 705     -32.338  52.502  33.141  1.00 52.44     0.041 A 
HETATM    5  O17   D T 705     -30.271  51.426  32.547  1.00 52.72    -0.188 OA
HETATM    6  C2    D T 705     -33.247  52.757  34.159  1.00 52.70     0.060 A 
HETATM    7  C3    D T 705     -33.075  52.335  35.459  1.00 52.61     0.014 A 
HETATM    8 CL14   D T 705     -34.730  53.682  33.839  1.00 53.97    -0.082 Cl
HETATM    9  C4    D T 705     -31.961  51.598  35.800  1.00 53.27     0.028 A 
ENDBRANCH   1   2
BRANCH   1  10
HETATM   10  C8    D T 705     -29.860  49.282  34.699  1.00 53.50     0.111 A 
HETATM   11  C9    D T 705     -28.603  48.837  34.068  1.00 52.76     0.081 A 
HETATM   12  C10   D T 705     -28.490  47.526  33.685  1.00 53.10     0.025 A 
HETATM   13 CL16   D T 705     -27.216  49.942  33.817  1.00 54.87    -0.080 Cl
HETATM   14  C11   D T 705     -29.549  46.659  33.875  1.00 52.79     0.059 A 
HETATM   15  C12   D T 705     -30.737  47.081  34.455  1.00 53.52     0.013 A 
HETATM   16 CL15   D T 705     -29.328  44.961  33.341  1.00 52.95    -0.082 Cl
HETATM   17  C13   D T 705     -30.910  48.387  34.882  1.00 52.90     0.026 A 
ENDBRANCH   1  10
TORSDOF 2
ENDMDL
MODEL 5
REMARK VINA RESULT:    -7.484      2.340      2.736
REMARK INTER + INTRA:          -8.628
REMARK INTER:                  -8.139
REMARK INTRA:                  -0.489
REMARK UNBOUND:                -0.269
REMARK  2 active torsions:
REMARK  status: ('A' for Active; 'I' for Inactive)
REMARK    1  A    between atoms: C5_4  and  O7_13 
REMARK    2  A    between atoms: C8_10  and  O7_13 
ROOT
HETATM    1  O7    D T 705     -30.681  48.750  33.127  1.00 53.87    -0.304 OA
ENDROOT
BRANCH   1   2
HETATM    2  C5    D T 705     -30.296  48.003  34.181  1.00 53.80     0.125 A 
HETATM    3  C6    D T 705     -30.438  46.549  34.053  1.00 53.82     0.154 A 
HETATM    4  C1    D T 705     -30.069  45.779  35.137  1.00 52.44     0.041 A 
HETATM    5  O17   D T 705     -30.927  46.075  32.910  1.00 52.72    -0.188 OA
HETATM    6  C2    D T 705     -29.566  46.413  36.265  1.00 52.70     0.060 A 
HETATM    7  C3    D T 705     -29.449  47.781  36.384  1.00 52.61     0.014 A 
HETATM    8 CL14   D T 705     -29.035  45.469  37.674  1.00 53.97    -0.082 Cl
HETATM    9  C4    D T 705     -29.822  48.596  35.337  1.00 53.27     0.028 A 
ENDBRANCH   1   2
BRANCH   1  10
HETATM   10  C8    D T 705     -31.544  49.777  33.313  1.00 53.50     0.111 A 
HETATM   11  C9    D T 705     -31.031  51.142  33.090  1.00 52.76     0.081 A 
HETATM   12  C10   D T 705     -31.888  52.200  33.254  1.00 53.10     0.025 A 
HETATM   13 CL16   D T 705     -29.342  51.458  32.586  1.00 54.87    -0.080 Cl
HETATM   14  C11   D T 705     -33.196  51.973  33.639  1.00 52.79     0.059 A 
HETATM   15  C12   D T 705     -33.675  50.690  33.863  1.00 53.52     0.013 A 
HETATM   16 CL15   D T 705     -34.254  53.407  33.839  1.00 52.95    -0.082 Cl
HETATM   17  C13   D T 705     -32.868  49.578  33.697  1.00 52.90     0.026 A 
ENDBRANCH   1  10
TORSDOF 2
ENDMDL
MODEL 6
REMARK VINA RESULT:    -7.428      4.020      6.148
REMARK INTER + INTRA:          -8.566
REMARK INTER:                  -8.323
REMARK INTRA:                  -0.243
REMARK UNBOUND:                -0.269
REMARK  2 active torsions:
REMARK  status: ('A' for Active; 'I' for Inactive)
REMARK    1  A    between atoms: C5_4  and  O7_13 
REMARK    2  A    between atoms: C8_10  and  O7_13 
ROOT
HETATM    1  O7    D T 705     -30.392  49.355  36.821  1.00 53.87    -0.304 OA
ENDROOT
BRANCH   1   2
HETATM    2  C5    D T 705     -31.234  50.186  36.176  1.00 53.80     0.125 A 
HETATM    3  C6    D T 705     -30.643  51.359  35.524  1.00 53.82     0.154 A 
HETATM    4  C1    D T 705     -31.503  52.227  34.882  1.00 52.44     0.041 A 
HETATM    5  O17   D T 705     -29.324  51.513  35.610  1.00 52.72    -0.188 OA
HETATM    6  C2    D T 705     -32.860  51.933  34.867  1.00 52.70     0.060 A 
HETATM    7  C3    D T 705     -33.410  50.837  35.495  1.00 52.61     0.014 A 
HETATM    8 CL14   D T 705     -34.007  52.993  34.019  1.00 53.97    -0.082 Cl
HETATM    9  C4    D T 705     -32.597  49.949  36.166  1.00 53.27     0.028 A 
ENDBRANCH   1   2
BRANCH   1  10
HETATM   10  C8    D T 705     -30.497  49.202  38.163  1.00 53.50     0.111 A 
HETATM   11  C9    D T 705     -30.066  47.912  38.733  1.00 52.76     0.081 A 
HETATM   12  C10   D T 705     -30.146  47.736  40.091  1.00 53.10     0.025 A 
HETATM   13 CL16   D T 705     -29.416  46.587  37.718  1.00 54.87    -0.080 Cl
HETATM   14  C11   D T 705     -30.641  48.750  40.889  1.00 52.79     0.059 A 
HETATM   15  C12   D T 705     -31.061  49.958  40.350  1.00 53.52     0.013 A 
HETATM   16 CL15   D T 705     -30.721  48.442  42.654  1.00 52.95    -0.082 Cl
HETATM   17  C13   D T 705     -30.990  50.207  38.991  1.00 52.90     0.026 A 
ENDBRANCH   1  10
TORSDOF 2
ENDMDL
MODEL 7
REMARK VINA RESULT:    -7.374      4.086      4.722
REMARK INTER + INTRA:          -8.505
REMARK INTER:                  -8.361
REMARK INTRA:                  -0.144
REMARK UNBOUND:                -0.269
REMARK  2 active torsions:
REMARK  status: ('A' for Active; 'I' for Inactive)
REMARK    1  A    between atoms: C5_4  and  O7_13 
REMARK    2  A    between atoms: C8_10  and  O7_13 
ROOT
HETATM    1  O7    D T 705     -30.671  49.184  36.756  1.00 53.87    -0.304 OA
ENDROOT
BRANCH   1   2
HETATM    2  C5    D T 705     -30.709  49.059  38.098  1.00 53.80     0.125 A 
HETATM    3  C6    D T 705     -30.126  47.842  38.670  1.00 53.82     0.154 A 
HETATM    4  C1    D T 705     -30.183  47.697  40.041  1.00 52.44     0.041 A 
HETATM    5  O17   D T 705     -29.598  46.956  37.829  1.00 52.72    -0.188 OA
HETATM    6  C2    D T 705     -30.759  48.709  40.796  1.00 52.70     0.060 A 
HETATM    7  C3    D T 705     -31.318  49.844  40.251  1.00 52.61     0.014 A 
HETATM    8 CL14   D T 705     -30.821  48.595  42.568  1.00 53.97    -0.082 Cl
HETATM    9  C4    D T 705     -31.305  50.028  38.884  1.00 53.27     0.028 A 
ENDBRANCH   1   2
BRANCH   1  10
HETATM   10  C8    D T 705     -31.459  50.100  36.145  1.00 53.50     0.111 A 
HETATM   11  C9    D T 705     -30.791  51.239  35.489  1.00 52.76     0.081 A 
HETATM   12  C10   D T 705     -31.563  52.173  34.847  1.00 53.10     0.025 A 
HETATM   13 CL16   D T 705     -29.009  51.425  35.478  1.00 54.87    -0.080 Cl
HETATM   14  C11   D T 705     -32.939  52.042  34.843  1.00 52.79     0.059 A 
HETATM   15  C12   D T 705     -33.569  50.978  35.473  1.00 53.52     0.013 A 
HETATM   16 CL15   D T 705     -33.881  53.306  33.989  1.00 52.95    -0.082 Cl
HETATM   17  C13   D T 705     -32.847  49.992  36.122  1.00 52.90     0.026 A 
ENDBRANCH   1  10
TORSDOF 2
ENDMDL
MODEL 8
REMARK VINA RESULT:    -7.364     10.419     12.309
REMARK INTER + INTRA:          -8.494
REMARK INTER:                  -8.017
REMARK INTRA:                  -0.477
REMARK UNBOUND:                -0.269
REMARK  2 active torsions:
REMARK  status: ('A' for Active; 'I' for Inactive)
REMARK    1  A    between atoms: C5_4  and  O7_13 
REMARK    2  A    between atoms: C8_10  and  O7_13 
ROOT
HETATM    1  O7    D T 705     -27.196  40.698  39.072  1.00 53.87    -0.304 OA
ENDROOT
BRANCH   1   2
HETATM    2  C5    D T 705     -26.479  40.746  40.212  1.00 53.80     0.125 A 
HETATM    3  C6    D T 705     -25.179  40.068  40.211  1.00 53.82     0.154 A 
HETATM    4  C1    D T 705     -24.451  40.092  41.382  1.00 52.44     0.041 A 
HETATM    5  O17   D T 705     -24.800  39.464  39.087  1.00 52.72    -0.188 OA
HETATM    6  C2    D T 705     -24.970  40.770  42.477  1.00 52.70     0.060 A 
HETATM    7  C3    D T 705     -26.200  41.393  42.477  1.00 52.61     0.014 A 
HETATM    8 CL14   D T 705     -24.057  40.870  43.998  1.00 53.97    -0.082 Cl
HETATM    9  C4    D T 705     -26.975  41.381  41.337  1.00 53.27     0.028 A 
ENDBRANCH   1   2
BRANCH   1  10
HETATM   10  C8    D T 705     -28.493  40.310  39.110  1.00 53.50     0.111 A 
HETATM   11  C9    D T 705     -29.518  41.343  38.873  1.00 52.76     0.081 A 
HETATM   12  C10   D T 705     -30.838  40.974  38.889  1.00 53.10     0.025 A 
HETATM   13 CL16   D T 705     -29.093  43.051  38.537  1.00 54.87    -0.080 Cl
HETATM   14  C11   D T 705     -31.183  39.660  39.143  1.00 52.79     0.059 A 
HETATM   15  C12   D T 705     -30.219  38.690  39.381  1.00 53.52     0.013 A 
HETATM   16 CL15   D T 705     -32.930  39.256  39.154  1.00 52.95    -0.082 Cl
HETATM   17  C13   D T 705     -28.868  38.992  39.361  1.00 52.90     0.026 A 
ENDBRANCH   1  10
TORSDOF 2
ENDMDL
MODEL 9
REMARK VINA RESULT:    -7.209      2.236      6.092
REMARK INTER + INTRA:          -8.321
REMARK INTER:                  -7.822
REMARK INTRA:                  -0.499
REMARK UNBOUND:                -0.269
REMARK  2 active torsions:
REMARK  status: ('A' for Active; 'I' for Inactive)
REMARK    1  A    between atoms: C5_4  and  O7_13 
REMARK    2  A    between atoms: C8_10  and  O7_13 
ROOT
HETATM    1  O7    D T 705     -29.951  49.129  33.345  1.00 53.87    -0.304 OA
ENDROOT
BRANCH   1   2
HETATM    2  C5    D T 705     -30.719  50.107  33.865  1.00 53.80     0.125 A 
HETATM    3  C6    D T 705     -32.080  50.238  33.336  1.00 53.82     0.154 A 
HETATM    4  C1    D T 705     -32.863  51.253  33.847  1.00 52.44     0.041 A 
HETATM    5  O17   D T 705     -32.460  49.381  32.391  1.00 52.72    -0.188 OA
HETATM    6  C2    D T 705     -32.336  52.068  34.839  1.00 52.70     0.060 A 
HETATM    7  C3    D T 705     -31.050  51.950  35.321  1.00 52.61     0.014 A 
HETATM    8 CL14   D T 705     -33.313  53.363  35.563  1.00 53.97    -0.082 Cl
HETATM    9  C4    D T 705     -30.220  50.964  34.830  1.00 53.27     0.028 A 
ENDBRANCH   1   2
BRANCH   1  10
HETATM   10  C8    D T 705     -29.648  48.043  34.096  1.00 53.50     0.111 A 
HETATM   11  C9    D T 705     -28.293  47.976  34.674  1.00 52.76     0.081 A 
HETATM   12  C10   D T 705     -27.965  46.897  35.453  1.00 53.10     0.025 A 
HETATM   13 CL16   D T 705     -27.079  49.268  34.416  1.00 54.87    -0.080 Cl
HETATM   14  C11   D T 705     -28.891  45.894  35.664  1.00 52.79     0.059 A 
HETATM   15  C12   D T 705     -30.161  45.949  35.108  1.00 53.52     0.013 A 
HETATM   16 CL15   D T 705     -28.385  44.511  36.688  1.00 52.95    -0.082 Cl
HETATM   17  C13   D T 705     -30.563  47.019  34.327  1.00 52.90     0.026 A 
ENDBRANCH   1  10
TORSDOF 2
ENDMDL
