MODEL 1
REMARK VINA RESULT:    -7.595      0.000      0.000
REMARK INTER + INTRA:          -8.752
REMARK INTER:                  -8.483
REMARK INTRA:                  -0.269
REMARK UNBOUND:                -0.269
REMARK  2 active torsions:
REMARK  status: ('A' for Active; 'I' for Inactive)
REMARK    1  A    between atoms: C5_4  and  O7_13 
REMARK    2  A    between atoms: C8_10  and  O7_13 
ROOT
HETATM    1  O7    D T 705       4.471   0.570  -7.936  1.00 22.05    -0.304 OA
ENDROOT
BRANCH   1   2
HETATM    2  C5    D T 705       3.746   1.396  -7.145  1.00 22.37     0.125 A 
HETATM    3  C6    D T 705       2.860   0.755  -6.160  1.00 22.42     0.154 A 
HETATM    4  C1    D T 705       2.098   1.576  -5.336  1.00 22.18     0.041 A 
HETATM    5  O17   D T 705       2.832  -0.578  -6.104  1.00 21.45    -0.188 OA
HETATM    6  C2    D T 705       2.183   2.952  -5.457  1.00 22.53     0.060 A 
HETATM    7  C3    D T 705       3.024   3.558  -6.399  1.00 22.56     0.014 A 
HETATM    8 CL14   D T 705       1.191   3.967  -4.376  1.00 21.73    -0.082 Cl
HETATM    9  C4    D T 705       3.806   2.778  -7.246  1.00 22.81     0.028 A 
ENDBRANCH   1   2
BRANCH   1  10
HETATM   10  C8    D T 705       4.788   0.956  -9.192  1.00 21.94     0.111 A 
HETATM   11  C9    D T 705       3.742   0.820 -10.214  1.00 22.85     0.081 A 
HETATM   12  C10   D T 705       4.001   1.198 -11.520  1.00 22.60     0.025 A 
HETATM   13 CL16   D T 705       2.167   0.168  -9.708  1.00 21.30    -0.080 Cl
HETATM   14  C11   D T 705       5.254   1.691 -11.825  1.00 22.34     0.059 A 
HETATM   15  C12   D T 705       6.252   1.829 -10.861  1.00 22.46     0.013 A 
HETATM   16 CL15   D T 705       5.610   2.167 -13.494  1.00 24.32    -0.082 Cl
HETATM   17  C13   D T 705       6.031   1.459  -9.544  1.00 21.87     0.026 A 
ENDBRANCH   1  10
TORSDOF 2
ENDMDL
MODEL 2
REMARK VINA RESULT:    -7.589      1.280      5.924
REMARK INTER + INTRA:          -8.745
REMARK INTER:                  -8.188
REMARK INTRA:                  -0.557
REMARK UNBOUND:                -0.269
REMARK  2 active torsions:
REMARK  status: ('A' for Active; 'I' for Inactive)
REMARK    1  A    between atoms: C5_4  and  O7_13 
REMARK    2  A    between atoms: C8_10  and  O7_13 
ROOT
HETATM    1  O7    D T 705       5.037   1.055  -7.512  1.00 22.05    -0.304 OA
ENDROOT
BRANCH   1   2
HETATM    2  C5    D T 705       5.098   1.233  -8.853  1.00 22.37     0.125 A 
HETATM    3  C6    D T 705       6.330   1.841  -9.381  1.00 22.42     0.154 A 
HETATM    4  C1    D T 705       6.422   2.042 -10.754  1.00 22.18     0.041 A 
HETATM    5  O17   D T 705       7.297   2.168  -8.521  1.00 21.45    -0.188 OA
HETATM    6  C2    D T 705       5.374   1.677 -11.580  1.00 22.53     0.060 A 
HETATM    7  C3    D T 705       4.201   1.104 -11.073  1.00 22.56     0.014 A 
HETATM    8 CL14   D T 705       5.536   1.949 -13.336  1.00 21.73    -0.082 Cl
HETATM    9  C4    D T 705       4.063   0.883  -9.706  1.00 22.81     0.028 A 
ENDBRANCH   1   2
BRANCH   1  10
HETATM   10  C8    D T 705       4.143   1.762  -6.784  1.00 21.94     0.111 A 
HETATM   11  C9    D T 705       3.082   1.002  -6.113  1.00 22.85     0.081 A 
HETATM   12  C10   D T 705       2.134   1.665  -5.352  1.00 22.60     0.025 A 
HETATM   13 CL16   D T 705       3.071  -0.765  -6.314  1.00 21.30    -0.080 Cl
HETATM   14  C11   D T 705       2.216   3.040  -5.253  1.00 22.34     0.059 A 
HETATM   15  C12   D T 705       3.224   3.771  -5.883  1.00 22.46     0.013 A 
HETATM   16 CL15   D T 705       1.006   3.909  -4.296  1.00 24.32    -0.082 Cl
HETATM   17  C13   D T 705       4.187   3.142  -6.654  1.00 21.87     0.026 A 
ENDBRANCH   1  10
TORSDOF 2
ENDMDL
MODEL 3
REMARK VINA RESULT:    -7.585      1.661      2.159
REMARK INTER + INTRA:          -8.742
REMARK INTER:                  -8.186
REMARK INTRA:                  -0.556
REMARK UNBOUND:                -0.269
REMARK  2 active torsions:
REMARK  status: ('A' for Active; 'I' for Inactive)
REMARK    1  A    between atoms: C5_4  and  O7_13 
REMARK    2  A    between atoms: C8_10  and  O7_13 
ROOT
HETATM    1  O7    D T 705       5.546   1.523  -7.287  1.00 22.05    -0.304 OA
ENDROOT
BRANCH   1   2
HETATM    2  C5    D T 705       4.518   2.104  -6.625  1.00 22.37     0.125 A 
HETATM    3  C6    D T 705       3.629   1.205  -5.871  1.00 22.42     0.154 A 
HETATM    4  C1    D T 705       2.560   1.769  -5.183  1.00 22.18     0.041 A 
HETATM    5  O17   D T 705       3.892  -0.104  -5.882  1.00 21.45    -0.188 OA
HETATM    6  C2    D T 705       2.355   3.137  -5.223  1.00 22.53     0.060 A 
HETATM    7  C3    D T 705       3.199   3.988  -5.946  1.00 22.56     0.014 A 
HETATM    8 CL14   D T 705       0.974   3.819  -4.323  1.00 21.73    -0.082 Cl
HETATM    9  C4    D T 705       4.282   3.470  -6.649  1.00 22.81     0.028 A 
ENDBRANCH   1   2
BRANCH   1  10
HETATM   10  C8    D T 705       5.575   1.560  -8.639  1.00 21.94     0.111 A 
HETATM   11  C9    D T 705       6.607   2.400  -9.260  1.00 22.85     0.081 A 
HETATM   12  C10   D T 705       6.691   2.481 -10.639  1.00 22.60     0.025 A 
HETATM   13 CL16   D T 705       7.716   3.283  -8.187  1.00 21.30    -0.080 Cl
HETATM   14  C11   D T 705       5.786   1.764 -11.396  1.00 22.34     0.059 A 
HETATM   15  C12   D T 705       4.806   0.959 -10.815  1.00 22.46     0.013 A 
HETATM   16 CL15   D T 705       5.868   1.865 -13.163  1.00 24.32    -0.082 Cl
HETATM   17  C13   D T 705       4.689   0.855  -9.439  1.00 21.87     0.026 A 
ENDBRANCH   1  10
TORSDOF 2
ENDMDL
MODEL 4
REMARK VINA RESULT:    -7.419      9.182     11.544
REMARK INTER + INTRA:          -8.556
REMARK INTER:                  -7.999
REMARK INTRA:                  -0.556
REMARK UNBOUND:                -0.269
REMARK  2 active torsions:
REMARK  status: ('A' for Active; 'I' for Inactive)
REMARK    1  A    between atoms: C5_4  and  O7_13 
REMARK    2  A    between atoms: C8_10  and  O7_13 
ROOT
HETATM    1  O7    D T 705       5.478   7.005   1.978  1.00 22.05    -0.304 OA
ENDROOT
BRANCH   1   2
HETATM    2  C5    D T 705       6.486   6.183   2.358  1.00 22.37     0.125 A 
HETATM    3  C6    D T 705       6.147   5.134   3.334  1.00 22.42     0.154 A 
HETATM    4  C1    D T 705       7.160   4.277   3.748  1.00 22.18     0.041 A 
HETATM    5  O17   D T 705       4.888   5.056   3.771  1.00 21.45    -0.188 OA
HETATM    6  C2    D T 705       8.442   4.424   3.248  1.00 22.53     0.060 A 
HETATM    7  C3    D T 705       8.761   5.427   2.324  1.00 22.56     0.014 A 
HETATM    8 CL14   D T 705       9.709   3.299   3.804  1.00 21.73    -0.082 Cl
HETATM    9  C4    D T 705       7.780   6.308   1.879  1.00 22.81     0.028 A 
ENDBRANCH   1   2
BRANCH   1  10
HETATM   10  C8    D T 705       5.108   7.050   0.678  1.00 21.94     0.111 A 
HETATM   11  C9    D T 705       5.350   8.307  -0.040  1.00 22.85     0.081 A 
HETATM   12  C10   D T 705       4.993   8.419  -1.373  1.00 22.60     0.025 A 
HETATM   13 CL16   D T 705       6.105   9.644   0.857  1.00 21.30    -0.080 Cl
HETATM   14  C11   D T 705       4.409   7.332  -1.990  1.00 22.34     0.059 A 
HETATM   15  C12   D T 705       4.179   6.131  -1.318  1.00 22.46     0.013 A 
HETATM   16 CL15   D T 705       3.933   7.459  -3.691  1.00 24.32    -0.082 Cl
HETATM   17  C13   D T 705       4.519   5.982   0.017  1.00 21.87     0.026 A 
ENDBRANCH   1  10
TORSDOF 2
ENDMDL
MODEL 5
REMARK VINA RESULT:    -7.317      2.093      6.021
REMARK INTER + INTRA:          -8.442
REMARK INTER:                  -7.918
REMARK INTRA:                  -0.524
REMARK UNBOUND:                -0.269
REMARK  2 active torsions:
REMARK  status: ('A' for Active; 'I' for Inactive)
REMARK    1  A    between atoms: C5_4  and  O7_13 
REMARK    2  A    between atoms: C8_10  and  O7_13 
ROOT
HETATM    1  O7    D T 705       2.813   1.764  -8.044  1.00 22.05    -0.304 OA
ENDROOT
BRANCH   1   2
HETATM    2  C5    D T 705       3.657   1.651  -9.097  1.00 22.37     0.125 A 
HETATM    3  C6    D T 705       3.474   2.614 -10.194  1.00 22.42     0.154 A 
HETATM    4  C1    D T 705       4.321   2.522 -11.293  1.00 22.18     0.041 A 
HETATM    5  O17   D T 705       2.506   3.528 -10.083  1.00 21.45    -0.188 OA
HETATM    6  C2    D T 705       5.299   1.543 -11.334  1.00 22.53     0.060 A 
HETATM    7  C3    D T 705       5.467   0.625 -10.290  1.00 22.56     0.014 A 
HETATM    8 CL14   D T 705       6.367   1.464 -12.760  1.00 21.73    -0.082 Cl
HETATM    9  C4    D T 705       4.643   0.679  -9.169  1.00 22.81     0.028 A 
ENDBRANCH   1   2
BRANCH   1  10
HETATM   10  C8    D T 705       3.267   2.271  -6.876  1.00 21.94     0.111 A 
HETATM   11  C9    D T 705       3.419   1.333  -5.757  1.00 22.85     0.081 A 
HETATM   12  C10   D T 705       3.880   1.788  -4.533  1.00 22.60     0.025 A 
HETATM   13 CL16   D T 705       2.997  -0.371  -6.039  1.00 21.30    -0.080 Cl
HETATM   14  C11   D T 705       4.180   3.129  -4.402  1.00 22.34     0.059 A 
HETATM   15  C12   D T 705       4.045   4.027  -5.460  1.00 22.46     0.013 A 
HETATM   16 CL15   D T 705       4.759   3.734  -2.840  1.00 24.32    -0.082 Cl
HETATM   17  C13   D T 705       3.584   3.610  -6.698  1.00 21.87     0.026 A 
ENDBRANCH   1  10
TORSDOF 2
ENDMDL
MODEL 6
REMARK VINA RESULT:    -7.260      2.509      3.087
REMARK INTER + INTRA:          -8.379
REMARK INTER:                  -7.877
REMARK INTRA:                  -0.502
REMARK UNBOUND:                -0.269
REMARK  2 active torsions:
REMARK  status: ('A' for Active; 'I' for Inactive)
REMARK    1  A    between atoms: C5_4  and  O7_13 
REMARK    2  A    between atoms: C8_10  and  O7_13 
ROOT
HETATM    1  O7    D T 705       4.631   3.591  -7.563  1.00 22.05    -0.304 OA
ENDROOT
BRANCH   1   2
HETATM    2  C5    D T 705       4.256   2.705  -6.610  1.00 22.37     0.125 A 
HETATM    3  C6    D T 705       3.075   3.061  -5.808  1.00 22.42     0.154 A 
HETATM    4  C1    D T 705       2.667   2.175  -4.817  1.00 22.18     0.041 A 
HETATM    5  O17   D T 705       2.453   4.213  -6.069  1.00 21.45    -0.188 OA
HETATM    6  C2    D T 705       3.367   1.000  -4.607  1.00 22.53     0.060 A 
HETATM    7  C3    D T 705       4.494   0.667  -5.369  1.00 22.56     0.014 A 
HETATM    8 CL14   D T 705       2.807  -0.110  -3.328  1.00 21.73    -0.082 Cl
HETATM    9  C4    D T 705       4.940   1.523  -6.372  1.00 22.81     0.028 A 
ENDBRANCH   1   2
BRANCH   1  10
HETATM   10  C8    D T 705       4.759   3.179  -8.845  1.00 21.94     0.111 A 
HETATM   11  C9    D T 705       6.125   3.018  -9.359  1.00 22.85     0.081 A 
HETATM   12  C10   D T 705       6.326   2.599 -10.663  1.00 22.60     0.025 A 
HETATM   13 CL16   D T 705       7.475   3.376  -8.257  1.00 21.30    -0.080 Cl
HETATM   14  C11   D T 705       5.221   2.348 -11.450  1.00 22.34     0.059 A 
HETATM   15  C12   D T 705       3.918   2.492 -10.969  1.00 22.46     0.013 A 
HETATM   16 CL15   D T 705       5.456   1.823 -13.125  1.00 24.32    -0.082 Cl
HETATM   17  C13   D T 705       3.678   2.912  -9.671  1.00 21.87     0.026 A 
ENDBRANCH   1  10
TORSDOF 2
ENDMDL
MODEL 7
REMARK VINA RESULT:    -7.232      2.281      6.091
REMARK INTER + INTRA:          -8.347
REMARK INTER:                  -7.798
REMARK INTRA:                  -0.549
REMARK UNBOUND:                -0.269
REMARK  2 active torsions:
REMARK  status: ('A' for Active; 'I' for Inactive)
REMARK    1  A    between atoms: C5_4  and  O7_13 
REMARK    2  A    between atoms: C8_10  and  O7_13 
ROOT
HETATM    1  O7    D T 705       5.028   3.486  -7.781  1.00 22.05    -0.304 OA
ENDROOT
BRANCH   1   2
HETATM    2  C5    D T 705       5.077   3.095  -9.076  1.00 22.37     0.125 A 
HETATM    3  C6    D T 705       6.416   2.908  -9.657  1.00 22.42     0.154 A 
HETATM    4  C1    D T 705       6.501   2.511 -10.987  1.00 22.18     0.041 A 
HETATM    5  O17   D T 705       7.481   3.125  -8.882  1.00 21.45    -0.188 OA
HETATM    6  C2    D T 705       5.349   2.308 -11.725  1.00 22.53     0.060 A 
HETATM    7  C3    D T 705       4.076   2.493 -11.171  1.00 22.56     0.014 A 
HETATM    8 CL14   D T 705       5.505   1.795 -13.427  1.00 21.73    -0.082 Cl
HETATM    9  C4    D T 705       3.941   2.889  -9.843  1.00 22.81     0.028 A 
ENDBRANCH   1   2
BRANCH   1  10
HETATM   10  C8    D T 705       4.581   2.624  -6.840  1.00 21.94     0.111 A 
HETATM   11  C9    D T 705       3.292   2.937  -6.209  1.00 22.85     0.081 A 
HETATM   12  C10   D T 705       2.778   2.095  -5.238  1.00 22.60     0.025 A 
HETATM   13 CL16   D T 705       2.443   4.407  -6.738  1.00 21.30    -0.080 Cl
HETATM   14  C11   D T 705       3.506   0.976  -4.886  1.00 22.34     0.059 A 
HETATM   15  C12   D T 705       4.729   0.668  -5.483  1.00 22.46     0.013 A 
HETATM   16 CL15   D T 705       2.872  -0.107  -3.636  1.00 24.32    -0.082 Cl
HETATM   17  C13   D T 705       5.276   1.488  -6.456  1.00 21.87     0.026 A 
ENDBRANCH   1  10
TORSDOF 2
ENDMDL
MODEL 8
REMARK VINA RESULT:    -6.949      2.127      2.600
REMARK INTER + INTRA:          -8.030
REMARK INTER:                  -7.472
REMARK INTRA:                  -0.559
REMARK UNBOUND:                -0.269
REMARK  2 active torsions:
REMARK  status: ('A' for Active; 'I' for Inactive)
REMARK    1  A    between atoms: C5_4  and  O7_13 
REMARK    2  A    between atoms: C8_10  and  O7_13 
ROOT
HETATM    1  O7    D T 705       4.889   1.484  -5.915  1.00 22.05    -0.304 OA
ENDROOT
BRANCH   1   2
HETATM    2  C5    D T 705       4.018   2.382  -5.396  1.00 22.37     0.125 A 
HETATM    3  C6    D T 705       4.537   3.270  -4.344  1.00 22.42     0.154 A 
HETATM    4  C1    D T 705       3.667   4.201  -3.787  1.00 22.18     0.041 A 
HETATM    5  O17   D T 705       5.814   3.141  -3.976  1.00 21.45    -0.188 OA
HETATM    6  C2    D T 705       2.355   4.271  -4.223  1.00 22.53     0.060 A 
HETATM    7  C3    D T 705       1.864   3.420  -5.221  1.00 22.56     0.014 A 
HETATM    8 CL14   D T 705       1.274   5.482  -3.484  1.00 21.73    -0.082 Cl
HETATM    9  C4    D T 705       2.698   2.473  -5.808  1.00 22.81     0.028 A 
ENDBRANCH   1   2
BRANCH   1  10
HETATM   10  C8    D T 705       5.224   1.556  -7.223  1.00 21.94     0.111 A 
HETATM   11  C9    D T 705       4.772   0.459  -8.087  1.00 22.85     0.081 A 
HETATM   12  C10   D T 705       5.081   0.473  -9.437  1.00 22.60     0.025 A 
HETATM   13 CL16   D T 705       3.832  -0.853  -7.341  1.00 21.30    -0.080 Cl
HETATM   14  C11   D T 705       5.819   1.529  -9.931  1.00 22.34     0.059 A 
HETATM   15  C12   D T 705       6.249   2.580  -9.119  1.00 22.46     0.013 A 
HETATM   16 CL15   D T 705       6.237   1.559 -11.652  1.00 24.32    -0.082 Cl
HETATM   17  C13   D T 705       5.961   2.599  -7.764  1.00 21.87     0.026 A 
ENDBRANCH   1  10
TORSDOF 2
ENDMDL
MODEL 9
REMARK VINA RESULT:    -6.831      1.913      2.147
REMARK INTER + INTRA:          -7.899
REMARK INTER:                  -7.728
REMARK INTRA:                  -0.171
REMARK UNBOUND:                -0.269
REMARK  2 active torsions:
REMARK  status: ('A' for Active; 'I' for Inactive)
REMARK    1  A    between atoms: C5_4  and  O7_13 
REMARK    2  A    between atoms: C8_10  and  O7_13 
ROOT
HETATM    1  O7    D T 705       2.689   1.613  -7.337  1.00 22.05    -0.304 OA
ENDROOT
BRANCH   1   2
HETATM    2  C5    D T 705       3.091   2.303  -6.244  1.00 22.37     0.125 A 
HETATM    3  C6    D T 705       3.123   1.562  -4.972  1.00 22.42     0.154 A 
HETATM    4  C1    D T 705       3.526   2.243  -3.830  1.00 22.18     0.041 A 
HETATM    5  O17   D T 705       2.764   0.276  -4.978  1.00 21.45    -0.188 OA
HETATM    6  C2    D T 705       3.881   3.578  -3.907  1.00 22.53     0.060 A 
HETATM    7  C3    D T 705       3.845   4.281  -5.117  1.00 22.56     0.014 A 
HETATM    8 CL14   D T 705       4.398   4.412  -2.416  1.00 21.73    -0.082 Cl
HETATM    9  C4    D T 705       3.448   3.642  -6.288  1.00 22.81     0.028 A 
ENDBRANCH   1   2
BRANCH   1  10
HETATM   10  C8    D T 705       3.431   1.659  -8.466  1.00 21.94     0.111 A 
HETATM   11  C9    D T 705       4.346   0.537  -8.707  1.00 22.85     0.081 A 
HETATM   12  C10   D T 705       5.136   0.522  -9.844  1.00 22.60     0.025 A 
HETATM   13 CL16   D T 705       4.392  -0.771  -7.503  1.00 21.30    -0.080 Cl
HETATM   14  C11   D T 705       5.039   1.581 -10.724  1.00 22.34     0.059 A 
HETATM   15  C12   D T 705       4.168   2.650 -10.508  1.00 22.46     0.013 A 
HETATM   16 CL15   D T 705       6.049   1.588 -12.179  1.00 24.32    -0.082 Cl
HETATM   17  C13   D T 705       3.366   2.700  -9.380  1.00 21.87     0.026 A 
ENDBRANCH   1  10
TORSDOF 2
ENDMDL
