MODEL 1
REMARK VINA RESULT:    -7.432      0.000      0.000
REMARK INTER + INTRA:          -8.809
REMARK INTER:                  -8.300
REMARK INTRA:                  -0.509
REMARK UNBOUND:                -0.509
REMARK  2 active torsions:
REMARK  status: ('A' for Active; 'I' for Inactive)
REMARK    1  A    between atoms: C5_4  and  O7_13 
REMARK    2  A    between atoms: C8_10  and  O7_13 
ROOT
HETATM    1  O7    D T2414       5.212   1.329  -7.852  1.00 46.04    -0.304 OA
ENDROOT
BRANCH   1   2
HETATM    2  C5    D T2414       5.317   1.496  -9.206  1.00 46.04     0.125 A 
HETATM    3  C6    D T2414       6.538   2.119  -9.790  1.00 45.72     0.154 A 
HETATM    4  C1    D T2414       6.632   2.270 -11.168  1.00 44.92     0.041 A 
HETATM    5  O17   D T2414       7.539   2.545  -8.981  1.00 46.47    -0.188 OA
HETATM    6  C2    D T2414       5.585   1.839 -11.977  1.00 44.57     0.060 A 
HETATM    7  C3    D T2414       4.436   1.253 -11.435  1.00 45.65     0.014 A 
HETATM    8 CL14   D T2414       5.727   2.033 -13.747  1.00 42.89    -0.082 Cl
HETATM    9  C4    D T2414       4.294   1.073 -10.054  1.00 46.07     0.028 A 
ENDBRANCH   1   2
BRANCH   1  10
HETATM   10  C8    D T2414       4.282   1.968  -7.080  1.00 45.94     0.111 A 
HETATM   11  C9    D T2414       3.272   1.147  -6.364  1.00 45.79     0.081 A 
HETATM   12  C10   D T2414       2.313   1.769  -5.573  1.00 45.84     0.025 A 
HETATM   13 CL16   D T2414       3.302  -0.633  -6.530  1.00 44.04    -0.080 Cl
HETATM   14  C11   D T2414       2.318   3.155  -5.464  1.00 45.93     0.059 A 
HETATM   15  C12   D T2414       3.270   3.928  -6.134  1.00 45.73     0.013 A 
HETATM   16 CL15   D T2414       1.085   3.960  -4.438  1.00 45.14    -0.082 Cl
HETATM   17  C13   D T2414       4.247   3.351  -6.940  1.00 45.77     0.026 A 
ENDBRANCH   1  10
TORSDOF 2
ENDMDL
MODEL 2
REMARK VINA RESULT:    -7.404      1.316      6.086
REMARK INTER + INTRA:          -8.779
REMARK INTER:                  -8.426
REMARK INTRA:                  -0.352
REMARK UNBOUND:                -0.509
REMARK  2 active torsions:
REMARK  status: ('A' for Active; 'I' for Inactive)
REMARK    1  A    between atoms: C5_4  and  O7_13 
REMARK    2  A    between atoms: C8_10  and  O7_13 
ROOT
HETATM    1  O7    D T2414       4.514   0.896  -7.768  1.00 46.04    -0.304 OA
ENDROOT
BRANCH   1   2
HETATM    2  C5    D T2414       3.737   1.709  -6.989  1.00 46.04     0.125 A 
HETATM    3  C6    D T2414       2.928   1.129  -5.880  1.00 45.72     0.154 A 
HETATM    4  C1    D T2414       2.153   1.971  -5.090  1.00 44.92     0.041 A 
HETATM    5  O17   D T2414       2.939  -0.208  -5.654  1.00 46.47    -0.188 OA
HETATM    6  C2    D T2414       2.145   3.337  -5.350  1.00 44.57     0.060 A 
HETATM    7  C3    D T2414       2.903   3.888  -6.390  1.00 45.65     0.014 A 
HETATM    8 CL14   D T2414       1.152   4.405  -4.320  1.00 42.89    -0.082 Cl
HETATM    9  C4    D T2414       3.704   3.084  -7.211  1.00 46.07     0.028 A 
ENDBRANCH   1   2
BRANCH   1  10
HETATM   10  C8    D T2414       4.814   1.162  -9.075  1.00 45.94     0.111 A 
HETATM   11  C9    D T2414       3.781   0.894 -10.108  1.00 45.79     0.081 A 
HETATM   12  C10   D T2414       4.058   1.154 -11.445  1.00 45.84     0.025 A 
HETATM   13 CL16   D T2414       2.190   0.239  -9.617  1.00 44.04    -0.080 Cl
HETATM   14  C11   D T2414       5.304   1.664 -11.793  1.00 45.93     0.059 A 
HETATM   15  C12   D T2414       6.275   1.920 -10.822  1.00 45.73     0.013 A 
HETATM   16 CL15   D T2414       5.662   2.006 -13.518  1.00 45.14    -0.082 Cl
HETATM   17  C13   D T2414       6.045   1.673  -9.472  1.00 45.77     0.026 A 
ENDBRANCH   1  10
TORSDOF 2
ENDMDL
MODEL 3
REMARK VINA RESULT:    -7.379      1.718      6.277
REMARK INTER + INTRA:          -8.751
REMARK INTER:                  -8.229
REMARK INTRA:                  -0.522
REMARK UNBOUND:                -0.509
REMARK  2 active torsions:
REMARK  status: ('A' for Active; 'I' for Inactive)
REMARK    1  A    between atoms: C5_4  and  O7_13 
REMARK    2  A    between atoms: C8_10  and  O7_13 
ROOT
HETATM    1  O7    D T2414       5.287   1.530  -7.258  1.00 46.04    -0.304 OA
ENDROOT
BRANCH   1   2
HETATM    2  C5    D T2414       4.254   2.077  -6.547  1.00 46.04     0.125 A 
HETATM    3  C6    D T2414       3.310   1.196  -5.804  1.00 45.72     0.154 A 
HETATM    4  C1    D T2414       2.273   1.769  -5.078  1.00 44.92     0.041 A 
HETATM    5  O17   D T2414       3.455  -0.152  -5.849  1.00 46.47    -0.188 OA
HETATM    6  C2    D T2414       2.134   3.153  -5.058  1.00 44.57     0.060 A 
HETATM    7  C3    D T2414       3.018   3.986  -5.753  1.00 45.65     0.014 A 
HETATM    8 CL14   D T2414       0.802   3.873  -4.112  1.00 42.89    -0.082 Cl
HETATM    9  C4    D T2414       4.082   3.459  -6.496  1.00 46.07     0.028 A 
ENDBRANCH   1   2
BRANCH   1  10
HETATM   10  C8    D T2414       5.377   1.578  -8.622  1.00 45.94     0.111 A 
HETATM   11  C9    D T2414       6.458   2.393  -9.232  1.00 45.79     0.081 A 
HETATM   12  C10   D T2414       6.573   2.462 -10.615  1.00 45.84     0.025 A 
HETATM   13 CL16   D T2414       7.599   3.278  -8.176  1.00 44.04    -0.080 Cl
HETATM   14  C11   D T2414       5.671   1.761 -11.407  1.00 45.93     0.059 A 
HETATM   15  C12   D T2414       4.656   0.990 -10.834  1.00 45.73     0.013 A 
HETATM   16 CL15   D T2414       5.821   1.843 -13.194  1.00 45.14    -0.082 Cl
HETATM   17  C13   D T2414       4.499   0.894  -9.455  1.00 45.77     0.026 A 
ENDBRANCH   1  10
TORSDOF 2
ENDMDL
MODEL 4
REMARK VINA RESULT:    -7.260      9.070     11.894
REMARK INTER + INTRA:          -8.617
REMARK INTER:                  -8.108
REMARK INTRA:                  -0.509
REMARK UNBOUND:                -0.509
REMARK  2 active torsions:
REMARK  status: ('A' for Active; 'I' for Inactive)
REMARK    1  A    between atoms: C5_4  and  O7_13 
REMARK    2  A    between atoms: C8_10  and  O7_13 
ROOT
HETATM    1  O7    D T2414       5.585   6.954   1.928  1.00 46.04    -0.304 OA
ENDROOT
BRANCH   1   2
HETATM    2  C5    D T2414       6.563   6.107   2.373  1.00 46.04     0.125 A 
HETATM    3  C6    D T2414       6.233   5.041   3.360  1.00 45.72     0.154 A 
HETATM    4  C1    D T2414       7.236   4.181   3.794  1.00 44.92     0.041 A 
HETATM    5  O17   D T2414       4.970   4.920   3.839  1.00 46.47    -0.188 OA
HETATM    6  C2    D T2414       8.528   4.333   3.302  1.00 44.57     0.060 A 
HETATM    7  C3    D T2414       8.844   5.333   2.374  1.00 45.65     0.014 A 
HETATM    8 CL14   D T2414       9.802   3.215   3.862  1.00 42.89    -0.082 Cl
HETATM    9  C4    D T2414       7.869   6.221   1.902  1.00 46.07     0.028 A 
ENDBRANCH   1   2
BRANCH   1  10
HETATM   10  C8    D T2414       5.171   7.014   0.626  1.00 45.94     0.111 A 
HETATM   11  C9    D T2414       5.389   8.275  -0.130  1.00 45.79     0.081 A 
HETATM   12  C10   D T2414       4.977   8.365  -1.454  1.00 45.84     0.025 A 
HETATM   13 CL16   D T2414       6.178   9.662   0.677  1.00 44.04    -0.080 Cl
HETATM   14  C11   D T2414       4.368   7.268  -2.052  1.00 45.93     0.059 A 
HETATM   15  C12   D T2414       4.167   6.080  -1.344  1.00 45.73     0.013 A 
HETATM   16 CL15   D T2414       3.842   7.380  -3.764  1.00 45.14    -0.082 Cl
HETATM   17  C13   D T2414       4.559   5.943  -0.015  1.00 45.77     0.026 A 
ENDBRANCH   1  10
TORSDOF 2
ENDMDL
MODEL 5
REMARK VINA RESULT:    -7.126      3.550      4.722
REMARK INTER + INTRA:          -8.468
REMARK INTER:                  -8.396
REMARK INTRA:                  -0.072
REMARK UNBOUND:                -0.509
REMARK  2 active torsions:
REMARK  status: ('A' for Active; 'I' for Inactive)
REMARK    1  A    between atoms: C5_4  and  O7_13 
REMARK    2  A    between atoms: C8_10  and  O7_13 
ROOT
HETATM    1  O7    D T2414       6.352   2.285  -7.709  1.00 46.04    -0.304 OA
ENDROOT
BRANCH   1   2
HETATM    2  C5    D T2414       6.245   2.174  -9.069  1.00 46.04     0.125 A 
HETATM    3  C6    D T2414       5.465   1.055  -9.668  1.00 45.72     0.154 A 
HETATM    4  C1    D T2414       5.358   0.964 -11.051  1.00 44.92     0.041 A 
HETATM    5  O17   D T2414       4.879   0.128  -8.870  1.00 46.47    -0.188 OA
HETATM    6  C2    D T2414       5.981   1.918 -11.850  1.00 44.57     0.060 A 
HETATM    7  C3    D T2414       6.714   2.971 -11.293  1.00 45.65     0.014 A 
HETATM    8 CL14   D T2414       5.825   1.791 -13.624  1.00 42.89    -0.082 Cl
HETATM    9  C4    D T2414       6.849   3.111  -9.906  1.00 46.07     0.028 A 
ENDBRANCH   1   2
BRANCH   1  10
HETATM   10  C8    D T2414       7.541   2.227  -7.036  1.00 45.94     0.111 A 
HETATM   11  C9    D T2414       7.540   2.489  -5.574  1.00 45.79     0.081 A 
HETATM   12  C10   D T2414       8.733   2.438  -4.863  1.00 45.84     0.025 A 
HETATM   13 CL16   D T2414       6.000   2.869  -4.745  1.00 44.04    -0.080 Cl
HETATM   14  C11   D T2414       9.912   2.139  -5.536  1.00 45.93     0.059 A 
HETATM   15  C12   D T2414       9.913   1.888  -6.911  1.00 45.73     0.013 A 
HETATM   16 CL15   D T2414      11.453   2.067  -4.619  1.00 45.14    -0.082 Cl
HETATM   17  C13   D T2414       8.744   1.931  -7.665  1.00 45.77     0.026 A 
ENDBRANCH   1  10
TORSDOF 2
ENDMDL
MODEL 6
REMARK VINA RESULT:    -7.124      2.269      6.256
REMARK INTER + INTRA:          -8.466
REMARK INTER:                  -7.995
REMARK INTRA:                  -0.471
REMARK UNBOUND:                -0.509
REMARK  2 active torsions:
REMARK  status: ('A' for Active; 'I' for Inactive)
REMARK    1  A    between atoms: C5_4  and  O7_13 
REMARK    2  A    between atoms: C8_10  and  O7_13 
ROOT
HETATM    1  O7    D T2414       4.647   3.591  -7.735  1.00 46.04    -0.304 OA
ENDROOT
BRANCH   1   2
HETATM    2  C5    D T2414       4.228   2.757  -6.734  1.00 46.04     0.125 A 
HETATM    3  C6    D T2414       3.019   3.100  -5.934  1.00 45.72     0.154 A 
HETATM    4  C1    D T2414       2.600   2.237  -4.929  1.00 44.92     0.041 A 
HETATM    5  O17   D T2414       2.343   4.251  -6.178  1.00 46.47    -0.188 OA
HETATM    6  C2    D T2414       3.317   1.069  -4.687  1.00 44.57     0.060 A 
HETATM    7  C3    D T2414       4.453   0.741  -5.435  1.00 45.65     0.014 A 
HETATM    8 CL14   D T2414       2.760  -0.034  -3.398  1.00 42.89    -0.082 Cl
HETATM    9  C4    D T2414       4.914   1.575  -6.462  1.00 46.07     0.028 A 
ENDBRANCH   1   2
BRANCH   1  10
HETATM   10  C8    D T2414       4.853   3.184  -9.024  1.00 45.94     0.111 A 
HETATM   11  C9    D T2414       6.249   2.979  -9.488  1.00 45.79     0.081 A 
HETATM   12  C10   D T2414       6.488   2.566 -10.793  1.00 45.84     0.025 A 
HETATM   13 CL16   D T2414       7.606   3.267  -8.358  1.00 44.04    -0.080 Cl
HETATM   14  C11   D T2414       5.411   2.349 -11.645  1.00 45.93     0.059 A 
HETATM   15  C12   D T2414       4.098   2.538 -11.209  1.00 45.73     0.013 A 
HETATM   16 CL15   D T2414       5.718   1.810 -13.329  1.00 45.14    -0.082 Cl
HETATM   17  C13   D T2414       3.808   2.954  -9.912  1.00 45.77     0.026 A 
ENDBRANCH   1  10
TORSDOF 2
ENDMDL
MODEL 7
REMARK VINA RESULT:    -7.010      9.448     11.405
REMARK INTER + INTRA:          -8.338
REMARK INTER:                  -7.944
REMARK INTRA:                  -0.395
REMARK UNBOUND:                -0.509
REMARK  2 active torsions:
REMARK  status: ('A' for Active; 'I' for Inactive)
REMARK    1  A    between atoms: C5_4  and  O7_13 
REMARK    2  A    between atoms: C8_10  and  O7_13 
ROOT
HETATM    1  O7    D T2414       6.917   7.326   1.709  1.00 46.04    -0.304 OA
ENDROOT
BRANCH   1   2
HETATM    2  C5    D T2414       6.232   7.473   0.534  1.00 46.04     0.125 A 
HETATM    3  C6    D T2414       4.751   7.637   0.549  1.00 45.72     0.154 A 
HETATM    4  C1    D T2414       4.072   7.796  -0.653  1.00 44.92     0.041 A 
HETATM    5  O17   D T2414       4.074   7.615   1.724  1.00 46.47    -0.188 OA
HETATM    6  C2    D T2414       4.785   7.799  -1.848  1.00 44.57     0.060 A 
HETATM    7  C3    D T2414       6.176   7.647  -1.868  1.00 45.65     0.014 A 
HETATM    8 CL14   D T2414       3.898   8.015  -3.382  1.00 42.89    -0.082 Cl
HETATM    9  C4    D T2414       6.908   7.488  -0.685  1.00 46.07     0.028 A 
ENDBRANCH   1   2
BRANCH   1  10
HETATM   10  C8    D T2414       7.170   6.115   2.291  1.00 45.94     0.111 A 
HETATM   11  C9    D T2414       8.528   5.530   2.147  1.00 45.79     0.081 A 
HETATM   12  C10   D T2414       8.814   4.300   2.727  1.00 45.84     0.025 A 
HETATM   13 CL16   D T2414       9.779   6.418   1.226  1.00 44.04    -0.080 Cl
HETATM   14  C11   D T2414       7.820   3.636   3.437  1.00 45.93     0.059 A 
HETATM   15  C12   D T2414       6.544   4.187   3.577  1.00 45.73     0.013 A 
HETATM   16 CL15   D T2414       8.190   2.051   4.192  1.00 45.14    -0.082 Cl
HETATM   17  C13   D T2414       6.209   5.415   3.011  1.00 45.77     0.026 A 
ENDBRANCH   1  10
TORSDOF 2
ENDMDL
MODEL 8
REMARK VINA RESULT:    -6.946      1.478      2.179
REMARK INTER + INTRA:          -8.266
REMARK INTER:                  -7.959
REMARK INTRA:                  -0.307
REMARK UNBOUND:                -0.509
REMARK  2 active torsions:
REMARK  status: ('A' for Active; 'I' for Inactive)
REMARK    1  A    between atoms: C5_4  and  O7_13 
REMARK    2  A    between atoms: C8_10  and  O7_13 
ROOT
HETATM    1  O7    D T2414       4.047   0.958  -7.144  1.00 46.04    -0.304 OA
ENDROOT
BRANCH   1   2
HETATM    2  C5    D T2414       4.466   1.110  -8.438  1.00 46.04     0.125 A 
HETATM    3  C6    D T2414       3.539   0.802  -9.563  1.00 45.72     0.154 A 
HETATM    4  C1    D T2414       3.977   0.973 -10.871  1.00 44.92     0.041 A 
HETATM    5  O17   D T2414       2.286   0.347  -9.310  1.00 46.47    -0.188 OA
HETATM    6  C2    D T2414       5.271   1.426 -11.106  1.00 44.57     0.060 A 
HETATM    7  C3    D T2414       6.146   1.717 -10.054  1.00 45.65     0.014 A 
HETATM    8 CL14   D T2414       5.814   1.648 -12.793  1.00 42.89    -0.082 Cl
HETATM    9  C4    D T2414       5.752   1.567  -8.718  1.00 46.07     0.028 A 
ENDBRANCH   1   2
BRANCH   1  10
HETATM   10  C8    D T2414       3.397   1.933  -6.439  1.00 45.94     0.111 A 
HETATM   11  C9    D T2414       2.833   1.589  -5.109  1.00 45.79     0.081 A 
HETATM   12  C10   D T2414       2.167   2.559  -4.370  1.00 45.84     0.025 A 
HETATM   13 CL16   D T2414       3.020  -0.073  -4.474  1.00 44.04    -0.080 Cl
HETATM   14  C11   D T2414       2.040   3.842  -4.891  1.00 45.93     0.059 A 
HETATM   15  C12   D T2414       2.574   4.168  -6.140  1.00 45.73     0.013 A 
HETATM   16 CL15   D T2414       1.185   5.098  -3.936  1.00 45.14    -0.082 Cl
HETATM   17  C13   D T2414       3.247   3.230  -6.918  1.00 45.77     0.026 A 
ENDBRANCH   1  10
TORSDOF 2
ENDMDL
MODEL 9
REMARK VINA RESULT:    -6.731      2.639      6.433
REMARK INTER + INTRA:          -8.027
REMARK INTER:                  -7.605
REMARK INTRA:                  -0.423
REMARK UNBOUND:                -0.509
REMARK  2 active torsions:
REMARK  status: ('A' for Active; 'I' for Inactive)
REMARK    1  A    between atoms: C5_4  and  O7_13 
REMARK    2  A    between atoms: C8_10  and  O7_13 
ROOT
HETATM    1  O7    D T2414       2.512   2.420  -6.128  1.00 46.04    -0.304 OA
ENDROOT
BRANCH   1   2
HETATM    2  C5    D T2414       2.982   3.213  -5.117  1.00 46.04     0.125 A 
HETATM    3  C6    D T2414       2.545   4.634  -5.019  1.00 45.72     0.154 A 
HETATM    4  C1    D T2414       3.023   5.422  -3.978  1.00 44.92     0.041 A 
HETATM    5  O17   D T2414       1.701   5.154  -5.944  1.00 46.47    -0.188 OA
HETATM    6  C2    D T2414       3.901   4.872  -3.050  1.00 44.57     0.060 A 
HETATM    7  C3    D T2414       4.314   3.538  -3.137  1.00 45.65     0.014 A 
HETATM    8 CL14   D T2414       4.498   5.896  -1.715  1.00 42.89    -0.082 Cl
HETATM    9  C4    D T2414       3.858   2.700  -4.163  1.00 46.07     0.028 A 
ENDBRANCH   1   2
BRANCH   1  10
HETATM   10  C8    D T2414       3.230   2.123  -7.253  1.00 45.94     0.111 A 
HETATM   11  C9    D T2414       3.068   0.778  -7.862  1.00 45.79     0.081 A 
HETATM   12  C10   D T2414       3.786   0.447  -9.005  1.00 45.84     0.025 A 
HETATM   13 CL16   D T2414       1.950  -0.402  -7.114  1.00 44.04    -0.080 Cl
HETATM   14  C11   D T2414       4.646   1.386  -9.563  1.00 45.93     0.059 A 
HETATM   15  C12   D T2414       4.796   2.653  -8.993  1.00 45.73     0.013 A 
HETATM   16 CL15   D T2414       5.569   0.964 -11.043  1.00 45.14    -0.082 Cl
HETATM   17  C13   D T2414       4.101   3.029  -7.847  1.00 45.77     0.026 A 
ENDBRANCH   1  10
TORSDOF 2
ENDMDL
