MODEL 1
REMARK VINA RESULT:    -8.051      0.000      0.000
REMARK INTER + INTRA:          -9.401
REMARK INTER:                  -8.992
REMARK INTRA:                  -0.408
REMARK UNBOUND:                -0.408
REMARK  2 active torsions:
REMARK  status: ('A' for Active; 'I' for Inactive)
REMARK    1  A    between atoms: C5_4  and  O7_13 
REMARK    2  A    between atoms: C8_10  and  O7_13 
ROOT
HETATM    1  O7    D T2414       3.729  14.666  26.784  1.00 46.04    -0.304 OA
ENDROOT
BRANCH   1   2
HETATM    2  C5    D T2414       3.749  13.313  26.985  1.00 46.04     0.125 A 
HETATM    3  C6    D T2414       5.049  12.597  27.114  1.00 45.72     0.154 A 
HETATM    4  C1    D T2414       5.052  11.224  27.329  1.00 44.92     0.041 A 
HETATM    5  O17   D T2414       6.217  13.278  27.009  1.00 46.47    -0.188 OA
HETATM    6  C2    D T2414       3.841  10.542  27.419  1.00 44.57     0.060 A 
HETATM    7  C3    D T2414       2.618  11.210  27.299  1.00 45.65     0.014 A 
HETATM    8 CL14   D T2414       3.862   8.780  27.704  1.00 42.89    -0.082 Cl
HETATM    9  C4    D T2414       2.560  12.593  27.086  1.00 46.07     0.028 A 
ENDBRANCH   1   2
BRANCH   1  10
HETATM   10  C8    D T2414       3.366  15.251  25.602  1.00 45.94     0.111 A 
HETATM   11  C9    D T2414       2.669  16.561  25.645  1.00 45.79     0.081 A 
HETATM   12  C10   D T2414       2.288  17.179  24.460  1.00 45.84     0.025 A 
HETATM   13 CL16   D T2414       2.327  17.329  27.225  1.00 44.04    -0.080 Cl
HETATM   14  C11   D T2414       2.569  16.557  23.249  1.00 45.93     0.059 A 
HETATM   15  C12   D T2414       3.228  15.326  23.207  1.00 45.73     0.013 A 
HETATM   16 CL15   D T2414       2.083  17.357  21.718  1.00 45.14    -0.082 Cl
HETATM   17  C13   D T2414       3.628  14.668  24.367  1.00 45.77     0.026 A 
ENDBRANCH   1  10
TORSDOF 2
ENDMDL
MODEL 2
REMARK VINA RESULT:    -7.906      1.943      6.164
REMARK INTER + INTRA:          -9.239
REMARK INTER:                  -8.797
REMARK INTRA:                  -0.442
REMARK UNBOUND:                -0.408
REMARK  2 active torsions:
REMARK  status: ('A' for Active; 'I' for Inactive)
REMARK    1  A    between atoms: C5_4  and  O7_13 
REMARK    2  A    between atoms: C8_10  and  O7_13 
ROOT
HETATM    1  O7    D T2414       3.373  14.392  26.474  1.00 46.04    -0.304 OA
ENDROOT
BRANCH   1   2
HETATM    2  C5    D T2414       3.132  15.085  25.320  1.00 46.04     0.125 A 
HETATM    3  C6    D T2414       2.864  16.550  25.371  1.00 45.72     0.154 A 
HETATM    4  C1    D T2414       2.631  17.241  24.188  1.00 44.92     0.041 A 
HETATM    5  O17   D T2414       2.834  17.197  26.562  1.00 46.47    -0.188 OA
HETATM    6  C2    D T2414       2.651  16.554  22.978  1.00 44.57     0.060 A 
HETATM    7  C3    D T2414       2.903  15.179  22.924  1.00 45.65     0.014 A 
HETATM    8 CL14   D T2414       2.360  17.458  21.467  1.00 42.89    -0.082 Cl
HETATM    9  C4    D T2414       3.148  14.436  24.086  1.00 46.07     0.028 A 
ENDBRANCH   1   2
BRANCH   1  10
HETATM   10  C8    D T2414       4.354  13.446  26.600  1.00 45.94     0.111 A 
HETATM   11  C9    D T2414       3.953  12.035  26.823  1.00 45.79     0.081 A 
HETATM   12  C10   D T2414       4.929  11.053  26.954  1.00 45.84     0.025 A 
HETATM   13 CL16   D T2414       2.217  11.614  26.920  1.00 44.04    -0.080 Cl
HETATM   14  C11   D T2414       6.269  11.413  26.872  1.00 45.93     0.059 A 
HETATM   15  C12   D T2414       6.648  12.740  26.658  1.00 45.73     0.013 A 
HETATM   16 CL15   D T2414       7.529  10.146  27.036  1.00 45.14    -0.082 Cl
HETATM   17  C13   D T2414       5.707  13.759  26.523  1.00 45.77     0.026 A 
ENDBRANCH   1  10
TORSDOF 2
ENDMDL
MODEL 3
REMARK VINA RESULT:    -7.798      1.493      2.074
REMARK INTER + INTRA:          -9.118
REMARK INTER:                  -8.784
REMARK INTRA:                  -0.334
REMARK UNBOUND:                -0.408
REMARK  2 active torsions:
REMARK  status: ('A' for Active; 'I' for Inactive)
REMARK    1  A    between atoms: C5_4  and  O7_13 
REMARK    2  A    between atoms: C8_10  and  O7_13 
ROOT
HETATM    1  O7    D T2414       3.210  14.396  26.406  1.00 46.04    -0.304 OA
ENDROOT
BRANCH   1   2
HETATM    2  C5    D T2414       4.217  13.499  26.631  1.00 46.04     0.125 A 
HETATM    3  C6    D T2414       3.902  12.137  27.145  1.00 45.72     0.154 A 
HETATM    4  C1    D T2414       4.935  11.233  27.358  1.00 44.92     0.041 A 
HETATM    5  O17   D T2414       2.619  11.789  27.415  1.00 46.47    -0.188 OA
HETATM    6  C2    D T2414       6.246  11.616  27.089  1.00 44.57     0.060 A 
HETATM    7  C3    D T2414       6.549  12.893  26.605  1.00 45.65     0.014 A 
HETATM    8 CL14   D T2414       7.562  10.439  27.359  1.00 42.89    -0.082 Cl
HETATM    9  C4    D T2414       5.543  13.839  26.369  1.00 46.07     0.028 A 
ENDBRANCH   1   2
BRANCH   1  10
HETATM   10  C8    D T2414       3.042  15.067  25.225  1.00 45.94     0.111 A 
HETATM   11  C9    D T2414       2.761  16.524  25.272  1.00 45.79     0.081 A 
HETATM   12  C10   D T2414       2.586  17.231  24.088  1.00 45.84     0.025 A 
HETATM   13 CL16   D T2414       2.650  17.352  26.854  1.00 44.04    -0.080 Cl
HETATM   14  C11   D T2414       2.679  16.558  22.875  1.00 45.93     0.059 A 
HETATM   15  C12   D T2414       2.948  15.188  22.829  1.00 45.73     0.013 A 
HETATM   16 CL15   D T2414       2.459  17.471  21.346  1.00 45.14    -0.082 Cl
HETATM   17  C13   D T2414       3.129  14.437  23.988  1.00 45.77     0.026 A 
ENDBRANCH   1  10
TORSDOF 2
ENDMDL
MODEL 4
REMARK VINA RESULT:    -7.758     10.779     12.929
REMARK INTER + INTRA:          -9.074
REMARK INTER:                  -8.798
REMARK INTRA:                  -0.275
REMARK UNBOUND:                -0.408
REMARK  2 active torsions:
REMARK  status: ('A' for Active; 'I' for Inactive)
REMARK    1  A    between atoms: C5_4  and  O7_13 
REMARK    2  A    between atoms: C8_10  and  O7_13 
ROOT
HETATM    1  O7    D T2414      14.719  11.598  23.395  1.00 46.04    -0.304 OA
ENDROOT
BRANCH   1   2
HETATM    2  C5    D T2414      13.946  11.817  24.502  1.00 46.04     0.125 A 
HETATM    3  C6    D T2414      13.957  13.148  25.169  1.00 45.72     0.154 A 
HETATM    4  C1    D T2414      13.158  13.357  26.287  1.00 44.92     0.041 A 
HETATM    5  O17   D T2414      14.751  14.141  24.697  1.00 46.47    -0.188 OA
HETATM    6  C2    D T2414      12.362  12.319  26.763  1.00 44.57     0.060 A 
HETATM    7  C3    D T2414      12.347  11.066  26.140  1.00 45.65     0.014 A 
HETATM    8 CL14   D T2414      11.334  12.606  28.194  1.00 42.89    -0.082 Cl
HETATM    9  C4    D T2414      13.131  10.805  25.009  1.00 46.07     0.028 A 
ENDBRANCH   1   2
BRANCH   1  10
HETATM   10  C8    D T2414      15.490  10.481  23.217  1.00 45.94     0.111 A 
HETATM   11  C9    D T2414      16.627  10.251  24.143  1.00 45.79     0.081 A 
HETATM   12  C10   D T2414      17.427   9.125  23.986  1.00 45.84     0.025 A 
HETATM   13 CL16   D T2414      16.954  11.426  25.452  1.00 44.04    -0.080 Cl
HETATM   14  C11   D T2414      17.146   8.230  22.959  1.00 45.93     0.059 A 
HETATM   15  C12   D T2414      16.074   8.444  22.090  1.00 45.73     0.013 A 
HETATM   16 CL15   D T2414      18.174   6.773  22.759  1.00 45.14    -0.082 Cl
HETATM   17  C13   D T2414      15.246   9.558  22.207  1.00 45.77     0.026 A 
ENDBRANCH   1  10
TORSDOF 2
ENDMDL
MODEL 5
REMARK VINA RESULT:    -7.685      1.684      6.250
REMARK INTER + INTRA:          -8.992
REMARK INTER:                  -8.541
REMARK INTRA:                  -0.451
REMARK UNBOUND:                -0.408
REMARK  2 active torsions:
REMARK  status: ('A' for Active; 'I' for Inactive)
REMARK    1  A    between atoms: C5_4  and  O7_13 
REMARK    2  A    between atoms: C8_10  and  O7_13 
ROOT
HETATM    1  O7    D T2414       4.059  14.505  26.088  1.00 46.04    -0.304 OA
ENDROOT
BRANCH   1   2
HETATM    2  C5    D T2414       3.552  15.179  25.011  1.00 46.04     0.125 A 
HETATM    3  C6    D T2414       2.871  16.490  25.203  1.00 45.72     0.154 A 
HETATM    4  C1    D T2414       2.372  17.166  24.097  1.00 44.92     0.041 A 
HETATM    5  O17   D T2414       2.729  17.009  26.448  1.00 46.47    -0.188 OA
HETATM    6  C2    D T2414       2.515  16.607  22.830  1.00 44.57     0.060 A 
HETATM    7  C3    D T2414       3.154  15.377  22.644  1.00 45.65     0.014 A 
HETATM    8 CL14   D T2414       1.876  17.494  21.418  1.00 42.89    -0.082 Cl
HETATM    9  C4    D T2414       3.679  14.657  23.725  1.00 46.07     0.028 A 
ENDBRANCH   1   2
BRANCH   1  10
HETATM   10  C8    D T2414       3.842  13.174  26.321  1.00 45.94     0.111 A 
HETATM   11  C9    D T2414       4.931  12.215  26.010  1.00 45.79     0.081 A 
HETATM   12  C10   D T2414       4.740  10.857  26.236  1.00 45.84     0.025 A 
HETATM   13 CL16   D T2414       6.480  12.820  25.348  1.00 44.04    -0.080 Cl
HETATM   14  C11   D T2414       3.525  10.419  26.753  1.00 45.93     0.059 A 
HETATM   15  C12   D T2414       2.501  11.322  27.049  1.00 45.73     0.013 A 
HETATM   16 CL15   D T2414       3.278   8.667  27.051  1.00 45.14    -0.082 Cl
HETATM   17  C13   D T2414       2.645  12.691  26.838  1.00 45.77     0.026 A 
ENDBRANCH   1  10
TORSDOF 2
ENDMDL
MODEL 6
REMARK VINA RESULT:    -7.561     10.788     12.543
REMARK INTER + INTRA:          -8.853
REMARK INTER:                  -8.532
REMARK INTRA:                  -0.321
REMARK UNBOUND:                -0.408
REMARK  2 active torsions:
REMARK  status: ('A' for Active; 'I' for Inactive)
REMARK    1  A    between atoms: C5_4  and  O7_13 
REMARK    2  A    between atoms: C8_10  and  O7_13 
ROOT
HETATM    1  O7    D T2414      14.703  11.404  23.592  1.00 46.04    -0.304 OA
ENDROOT
BRANCH   1   2
HETATM    2  C5    D T2414      15.535  10.342  23.371  1.00 46.04     0.125 A 
HETATM    3  C6    D T2414      16.652  10.059  24.316  1.00 45.72     0.154 A 
HETATM    4  C1    D T2414      17.482   8.970  24.083  1.00 44.92     0.041 A 
HETATM    5  O17   D T2414      16.863  10.868  25.384  1.00 46.47    -0.188 OA
HETATM    6  C2    D T2414      17.257   8.162  22.972  1.00 44.57     0.060 A 
HETATM    7  C3    D T2414      16.209   8.422  22.081  1.00 45.65     0.014 A 
HETATM    8 CL14   D T2414      18.326   6.761  22.692  1.00 42.89    -0.082 Cl
HETATM    9  C4    D T2414      15.342   9.505  22.273  1.00 46.07     0.028 A 
ENDBRANCH   1   2
BRANCH   1  10
HETATM   10  C8    D T2414      13.836  11.482  24.649  1.00 45.94     0.111 A 
HETATM   11  C9    D T2414      13.877  12.690  25.510  1.00 45.79     0.081 A 
HETATM   12  C10   D T2414      13.009  12.796  26.590  1.00 45.84     0.025 A 
HETATM   13 CL16   D T2414      15.045  13.996  25.147  1.00 44.04    -0.080 Cl
HETATM   14  C11   D T2414      12.112  11.764  26.845  1.00 45.93     0.059 A 
HETATM   15  C12   D T2414      12.071  10.629  26.033  1.00 45.73     0.013 A 
HETATM   16 CL15   D T2414      10.987  11.903  28.236  1.00 45.14    -0.082 Cl
HETATM   17  C13   D T2414      12.922  10.476  24.941  1.00 45.77     0.026 A 
ENDBRANCH   1  10
TORSDOF 2
ENDMDL
MODEL 7
REMARK VINA RESULT:    -7.358     10.381     12.167
REMARK INTER + INTRA:          -8.627
REMARK INTER:                  -8.126
REMARK INTRA:                  -0.501
REMARK UNBOUND:                -0.408
REMARK  2 active torsions:
REMARK  status: ('A' for Active; 'I' for Inactive)
REMARK    1  A    between atoms: C5_4  and  O7_13 
REMARK    2  A    between atoms: C8_10  and  O7_13 
ROOT
HETATM    1  O7    D T2414      14.319  11.717  23.677  1.00 46.04    -0.304 OA
ENDROOT
BRANCH   1   2
HETATM    2  C5    D T2414      15.155  10.656  23.464  1.00 46.04     0.125 A 
HETATM    3  C6    D T2414      14.820   9.637  22.431  1.00 45.72     0.154 A 
HETATM    4  C1    D T2414      15.685   8.571  22.219  1.00 44.92     0.041 A 
HETATM    5  O17   D T2414      13.673   9.744  21.714  1.00 46.47    -0.188 OA
HETATM    6  C2    D T2414      16.849   8.473  22.977  1.00 44.57     0.060 A 
HETATM    7  C3    D T2414      17.169   9.427  23.948  1.00 45.65     0.014 A 
HETATM    8 CL14   D T2414      17.955   7.102  22.686  1.00 42.89    -0.082 Cl
HETATM    9  C4    D T2414      16.333  10.522  24.197  1.00 46.07     0.028 A 
ENDBRANCH   1   2
BRANCH   1  10
HETATM   10  C8    D T2414      13.448  11.797  24.730  1.00 45.94     0.111 A 
HETATM   11  C9    D T2414      13.819  12.640  25.894  1.00 45.79     0.081 A 
HETATM   12  C10   D T2414      12.954  12.739  26.977  1.00 45.84     0.025 A 
HETATM   13 CL16   D T2414      15.379  13.517  25.888  1.00 44.04    -0.080 Cl
HETATM   14  C11   D T2414      11.749  12.045  26.950  1.00 45.93     0.059 A 
HETATM   15  C12   D T2414      11.397  11.255  25.853  1.00 45.73     0.013 A 
HETATM   16 CL15   D T2414      10.629  12.178  28.345  1.00 45.14    -0.082 Cl
HETATM   17  C13   D T2414      12.232  11.123  24.746  1.00 45.77     0.026 A 
ENDBRANCH   1  10
TORSDOF 2
ENDMDL
MODEL 8
REMARK VINA RESULT:    -7.284      9.831     12.356
REMARK INTER + INTRA:          -8.543
REMARK INTER:                  -8.027
REMARK INTRA:                  -0.516
REMARK UNBOUND:                -0.408
REMARK  2 active torsions:
REMARK  status: ('A' for Active; 'I' for Inactive)
REMARK    1  A    between atoms: C5_4  and  O7_13 
REMARK    2  A    between atoms: C8_10  and  O7_13 
ROOT
HETATM    1  O7    D T2414      12.806  10.109  24.687  1.00 46.04    -0.304 OA
ENDROOT
BRANCH   1   2
HETATM    2  C5    D T2414      12.671  11.462  24.839  1.00 46.04     0.125 A 
HETATM    3  C6    D T2414      11.961  12.263  23.804  1.00 45.72     0.154 A 
HETATM    4  C1    D T2414      11.823  13.634  23.980  1.00 44.92     0.041 A 
HETATM    5  O17   D T2414      11.466  11.659  22.695  1.00 46.47    -0.188 OA
HETATM    6  C2    D T2414      12.351  14.235  25.119  1.00 44.57     0.060 A 
HETATM    7  C3    D T2414      13.019  13.488  26.095  1.00 45.65     0.014 A 
HETATM    8 CL14   D T2414      12.158  15.997  25.334  1.00 42.89    -0.082 Cl
HETATM    9  C4    D T2414      13.181  12.103  25.968  1.00 46.07     0.028 A 
ENDBRANCH   1   2
BRANCH   1  10
HETATM   10  C8    D T2414      13.948   9.508  24.234  1.00 45.94     0.111 A 
HETATM   11  C9    D T2414      14.814   8.804  25.213  1.00 45.79     0.081 A 
HETATM   12  C10   D T2414      15.981   8.183  24.781  1.00 45.84     0.025 A 
HETATM   13 CL16   D T2414      14.344   8.763  26.939  1.00 44.04    -0.080 Cl
HETATM   14  C11   D T2414      16.317   8.233  23.433  1.00 45.93     0.059 A 
HETATM   15  C12   D T2414      15.501   8.891  22.510  1.00 45.73     0.013 A 
HETATM   16 CL15   D T2414      17.820   7.427  22.873  1.00 45.14    -0.082 Cl
HETATM   17  C13   D T2414      14.324   9.529  22.895  1.00 45.77     0.026 A 
ENDBRANCH   1  10
TORSDOF 2
ENDMDL
MODEL 9
REMARK VINA RESULT:    -7.254      9.839     11.371
REMARK INTER + INTRA:          -8.510
REMARK INTER:                  -7.986
REMARK INTRA:                  -0.524
REMARK UNBOUND:                -0.408
REMARK  2 active torsions:
REMARK  status: ('A' for Active; 'I' for Inactive)
REMARK    1  A    between atoms: C5_4  and  O7_13 
REMARK    2  A    between atoms: C8_10  and  O7_13 
ROOT
HETATM    1  O7    D T2414      12.832  10.053  24.877  1.00 46.04    -0.304 OA
ENDROOT
BRANCH   1   2
HETATM    2  C5    D T2414      13.952   9.457  24.368  1.00 46.04     0.125 A 
HETATM    3  C6    D T2414      14.933   8.807  25.281  1.00 45.72     0.154 A 
HETATM    4  C1    D T2414      16.060   8.196  24.746  1.00 44.92     0.041 A 
HETATM    5  O17   D T2414      14.733   8.826  26.622  1.00 46.47    -0.188 OA
HETATM    6  C2    D T2414      16.254   8.202  23.367  1.00 44.57     0.060 A 
HETATM    7  C3    D T2414      15.336   8.810  22.505  1.00 45.65     0.014 A 
HETATM    8 CL14   D T2414      17.702   7.404  22.695  1.00 42.89    -0.082 Cl
HETATM    9  C4    D T2414      14.181   9.436  22.992  1.00 46.07     0.028 A 
ENDBRANCH   1   2
BRANCH   1  10
HETATM   10  C8    D T2414      12.687  11.408  25.008  1.00 45.94     0.111 A 
HETATM   11  C9    D T2414      11.804  12.121  24.051  1.00 45.79     0.081 A 
HETATM   12  C10   D T2414      11.638  13.497  24.160  1.00 45.84     0.025 A 
HETATM   13 CL16   D T2414      10.964  11.200  22.768  1.00 44.04    -0.080 Cl
HETATM   14  C11   D T2414      12.305  14.183  25.169  1.00 45.93     0.059 A 
HETATM   15  C12   D T2414      13.133  13.513  26.072  1.00 45.73     0.013 A 
HETATM   16 CL15   D T2414      12.087  15.959  25.314  1.00 45.14    -0.082 Cl
HETATM   17  C13   D T2414      13.332  12.136  26.002  1.00 45.77     0.026 A 
ENDBRANCH   1  10
TORSDOF 2
ENDMDL
