MODEL 1
REMARK VINA RESULT:      -8.0      0.000      0.000
REMARK  2 active torsions:
REMARK  status: ('A' for Active; 'I' for Inactive)
REMARK    1  A    between atoms: C5_4  and  O7_13 
REMARK    2  A    between atoms: C8_10  and  O7_13 
ROOT
HETATM    1  O7    D T2414       3.630  14.638  26.697  1.00 46.04    -0.304 OA
ENDROOT
BRANCH   1   2
HETATM    2  C5    D T2414       3.690  13.279  26.842  1.00 46.04     0.125 A 
HETATM    3  C6    D T2414       5.007  12.603  27.005  1.00 45.72     0.154 A 
HETATM    4  C1    D T2414       5.049  11.223  27.162  1.00 44.92     0.041 A 
HETATM    5  O17   D T2414       6.153  13.328  26.988  1.00 46.47    -0.188 OA
HETATM    6  C2    D T2414       3.862  10.497  27.162  1.00 44.57     0.060 A 
HETATM    7  C3    D T2414       2.622  11.126  27.009  1.00 45.65     0.014 A 
HETATM    8 CL14   D T2414       3.933   8.726  27.373  1.00 42.89    -0.082 Cl
HETATM    9  C4    D T2414       2.524  12.515  26.852  1.00 46.07     0.028 A 
ENDBRANCH   1   2
BRANCH   1  10
HETATM   10  C8    D T2414       3.305  15.262  25.524  1.00 45.94     0.111 A 
HETATM   11  C9    D T2414       2.644  16.590  25.587  1.00 45.79     0.081 A 
HETATM   12  C10   D T2414       2.302  17.247  24.411  1.00 45.84     0.025 A 
HETATM   13 CL16   D T2414       2.294  17.328  27.180  1.00 44.04    -0.080 Cl
HETATM   14  C11   D T2414       2.589  16.647  23.190  1.00 45.93     0.059 A 
HETATM   15  C12   D T2414       3.215  15.400  23.129  1.00 45.73     0.013 A 
HETATM   16 CL15   D T2414       2.154  17.498  21.671  1.00 45.14    -0.082 Cl
HETATM   17  C13   D T2414       3.574  14.702  24.280  1.00 45.77     0.026 A 
ENDBRANCH   1  10
TORSDOF 2
ENDMDL
MODEL 2
REMARK VINA RESULT:      -7.9      1.920      6.134
REMARK  2 active torsions:
REMARK  status: ('A' for Active; 'I' for Inactive)
REMARK    1  A    between atoms: C5_4  and  O7_13 
REMARK    2  A    between atoms: C8_10  and  O7_13 
ROOT
HETATM    1  O7    D T2414       3.443  14.372  26.487  1.00 46.04    -0.304 OA
ENDROOT
BRANCH   1   2
HETATM    2  C5    D T2414       3.169  15.019  25.313  1.00 46.04     0.125 A 
HETATM    3  C6    D T2414       2.882  16.480  25.315  1.00 45.72     0.154 A 
HETATM    4  C1    D T2414       2.617  17.124  24.113  1.00 44.92     0.041 A 
HETATM    5  O17   D T2414       2.868  17.171  26.482  1.00 46.47    -0.188 OA
HETATM    6  C2    D T2414       2.622  16.393  22.928  1.00 44.57     0.060 A 
HETATM    7  C3    D T2414       2.892  15.020  22.920  1.00 45.65     0.014 A 
HETATM    8 CL14   D T2414       2.288  17.237  21.391  1.00 42.89    -0.082 Cl
HETATM    9  C4    D T2414       3.169  14.325  24.104  1.00 46.07     0.028 A 
ENDBRANCH   1   2
BRANCH   1  10
HETATM   10  C8    D T2414       4.403  13.406  26.614  1.00 45.94     0.111 A 
HETATM   11  C9    D T2414       3.971  12.001  26.824  1.00 45.79     0.081 A 
HETATM   12  C10   D T2414       4.925  10.998  26.957  1.00 45.84     0.025 A 
HETATM   13 CL16   D T2414       2.225  11.616  26.904  1.00 44.04    -0.080 Cl
HETATM   14  C11   D T2414       6.273  11.331  26.888  1.00 45.93     0.059 A 
HETATM   15  C12   D T2414       6.681  12.652  26.687  1.00 45.73     0.013 A 
HETATM   16 CL15   D T2414       7.505  10.037  27.053  1.00 45.14    -0.082 Cl
HETATM   17  C13   D T2414       5.763  13.690  26.550  1.00 45.77     0.026 A 
ENDBRANCH   1  10
TORSDOF 2
ENDMDL
MODEL 3
REMARK VINA RESULT:      -7.8      2.052      2.502
REMARK  2 active torsions:
REMARK  status: ('A' for Active; 'I' for Inactive)
REMARK    1  A    between atoms: C5_4  and  O7_13 
REMARK    2  A    between atoms: C8_10  and  O7_13 
ROOT
HETATM    1  O7    D T2414       3.228  13.820  25.442  1.00 46.04    -0.304 OA
ENDROOT
BRANCH   1   2
HETATM    2  C5    D T2414       4.468  13.396  25.831  1.00 46.04     0.125 A 
HETATM    3  C6    D T2414       4.679  12.866  27.207  1.00 45.72     0.154 A 
HETATM    4  C1    D T2414       5.944  12.429  27.583  1.00 44.92     0.041 A 
HETATM    5  O17   D T2414       3.648  12.825  28.088  1.00 46.47    -0.188 OA
HETATM    6  C2    D T2414       6.990  12.495  26.668  1.00 44.57     0.060 A 
HETATM    7  C3    D T2414       6.799  12.990  25.374  1.00 45.65     0.014 A 
HETATM    8 CL14   D T2414       8.607  11.921  27.163  1.00 42.89    -0.082 Cl
HETATM    9  C4    D T2414       5.543  13.439  24.944  1.00 46.07     0.028 A 
ENDBRANCH   1   2
BRANCH   1  10
HETATM   10  C8    D T2414       3.015  14.714  24.428  1.00 45.94     0.111 A 
HETATM   11  C9    D T2414       2.865  16.151  24.770  1.00 45.79     0.081 A 
HETATM   12  C10   D T2414       2.649  17.081  23.760  1.00 45.84     0.025 A 
HETATM   13 CL16   D T2414       2.966  16.667  26.481  1.00 44.04    -0.080 Cl
HETATM   14  C11   D T2414       2.577  16.647  22.441  1.00 45.93     0.059 A 
HETATM   15  C12   D T2414       2.722  15.296  22.118  1.00 45.73     0.013 A 
HETATM   16 CL15   D T2414       2.303  17.848  21.136  1.00 45.14    -0.082 Cl
HETATM   17  C13   D T2414       2.938  14.327  23.095  1.00 45.77     0.026 A 
ENDBRANCH   1  10
TORSDOF 2
ENDMDL
MODEL 4
REMARK VINA RESULT:      -7.8      1.513      6.175
REMARK  2 active torsions:
REMARK  status: ('A' for Active; 'I' for Inactive)
REMARK    1  A    between atoms: C5_4  and  O7_13 
REMARK    2  A    between atoms: C8_10  and  O7_13 
ROOT
HETATM    1  O7    D T2414       3.663  14.571  26.659  1.00 46.04    -0.304 OA
ENDROOT
BRANCH   1   2
HETATM    2  C5    D T2414       3.266  15.205  25.515  1.00 46.04     0.125 A 
HETATM    3  C6    D T2414       2.796  16.618  25.568  1.00 45.72     0.154 A 
HETATM    4  C1    D T2414       2.406  17.251  24.395  1.00 44.92     0.041 A 
HETATM    5  O17   D T2414       2.739  17.273  26.755  1.00 46.47    -0.188 OA
HETATM    6  C2    D T2414       2.459  16.555  23.191  1.00 44.57     0.060 A 
HETATM    7  C3    D T2414       2.899  15.228  23.134  1.00 45.65     0.014 A 
HETATM    8 CL14   D T2414       1.963  17.386  21.691  1.00 42.89    -0.082 Cl
HETATM    9  C4    D T2414       3.308  14.546  24.287  1.00 46.07     0.028 A 
ENDBRANCH   1   2
BRANCH   1  10
HETATM   10  C8    D T2414       3.623  13.214  26.827  1.00 45.94     0.111 A 
HETATM   11  C9    D T2414       4.893  12.450  26.734  1.00 45.79     0.081 A 
HETATM   12  C10   D T2414       4.882  11.070  26.901  1.00 45.84     0.025 A 
HETATM   13 CL16   D T2414       6.424  13.318  26.409  1.00 44.04    -0.080 Cl
HETATM   14  C11   D T2414       3.676  10.427  27.153  1.00 45.93     0.059 A 
HETATM   15  C12   D T2414       2.481  11.144  27.245  1.00 45.73     0.013 A 
HETATM   16 CL15   D T2414       3.661   8.646  27.374  1.00 45.14    -0.082 Cl
HETATM   17  C13   D T2414       2.441  12.527  27.084  1.00 45.77     0.026 A 
ENDBRANCH   1  10
TORSDOF 2
ENDMDL
MODEL 5
REMARK VINA RESULT:      -7.8     10.711     12.921
REMARK  2 active torsions:
REMARK  status: ('A' for Active; 'I' for Inactive)
REMARK    1  A    between atoms: C5_4  and  O7_13 
REMARK    2  A    between atoms: C8_10  and  O7_13 
ROOT
HETATM    1  O7    D T2414      14.702  11.614  23.443  1.00 46.04    -0.304 OA
ENDROOT
BRANCH   1   2
HETATM    2  C5    D T2414      13.925  11.812  24.551  1.00 46.04     0.125 A 
HETATM    3  C6    D T2414      13.888  13.149  25.207  1.00 45.72     0.154 A 
HETATM    4  C1    D T2414      13.085  13.336  26.325  1.00 44.92     0.041 A 
HETATM    5  O17   D T2414      14.642  14.167  24.724  1.00 46.47    -0.188 OA
HETATM    6  C2    D T2414      12.330  12.273  26.813  1.00 44.57     0.060 A 
HETATM    7  C3    D T2414      12.360  11.016  26.200  1.00 45.65     0.014 A 
HETATM    8 CL14   D T2414      11.296  12.533  28.245  1.00 42.89    -0.082 Cl
HETATM    9  C4    D T2414      13.150  10.775  25.069  1.00 46.07     0.028 A 
ENDBRANCH   1   2
BRANCH   1  10
HETATM   10  C8    D T2414      15.479  10.503  23.250  1.00 45.94     0.111 A 
HETATM   11  C9    D T2414      16.613  10.263  24.177  1.00 45.79     0.081 A 
HETATM   12  C10   D T2414      17.418   9.143  24.006  1.00 45.84     0.025 A 
HETATM   13 CL16   D T2414      16.929  11.419  25.506  1.00 44.04    -0.080 Cl
HETATM   14  C11   D T2414      17.145   8.264  22.964  1.00 45.93     0.059 A 
HETATM   15  C12   D T2414      16.076   8.487  22.093  1.00 45.73     0.013 A 
HETATM   16 CL15   D T2414      18.180   6.814  22.745  1.00 45.14    -0.082 Cl
HETATM   17  C13   D T2414      15.242   9.595  22.224  1.00 45.77     0.026 A 
ENDBRANCH   1  10
TORSDOF 2
ENDMDL
MODEL 6
REMARK VINA RESULT:      -7.6     10.531     12.369
REMARK  2 active torsions:
REMARK  status: ('A' for Active; 'I' for Inactive)
REMARK    1  A    between atoms: C5_4  and  O7_13 
REMARK    2  A    between atoms: C8_10  and  O7_13 
ROOT
HETATM    1  O7    D T2414      14.696  11.485  23.875  1.00 46.04    -0.304 OA
ENDROOT
BRANCH   1   2
HETATM    2  C5    D T2414      15.506  10.426  23.570  1.00 46.04     0.125 A 
HETATM    3  C6    D T2414      16.606  10.038  24.496  1.00 45.72     0.154 A 
HETATM    4  C1    D T2414      17.413   8.953  24.178  1.00 44.92     0.041 A 
HETATM    5  O17   D T2414      16.825  10.747  25.632  1.00 46.47    -0.188 OA
HETATM    6  C2    D T2414      17.181   8.249  23.000  1.00 44.57     0.060 A 
HETATM    7  C3    D T2414      16.149   8.608  22.127  1.00 45.65     0.014 A 
HETATM    8 CL14   D T2414      18.221   6.851  22.610  1.00 42.89    -0.082 Cl
HETATM    9  C4    D T2414      15.304   9.691  22.403  1.00 46.07     0.028 A 
ENDBRANCH   1   2
BRANCH   1  10
HETATM   10  C8    D T2414      13.641  11.408  24.743  1.00 45.94     0.111 A 
HETATM   11  C9    D T2414      13.621  12.319  25.916  1.00 45.79     0.081 A 
HETATM   12  C10   D T2414      12.563  12.263  26.814  1.00 45.84     0.025 A 
HETATM   13 CL16   D T2414      14.963  13.478  26.157  1.00 44.04    -0.080 Cl
HETATM   14  C11   D T2414      11.535  11.351  26.597  1.00 45.93     0.059 A 
HETATM   15  C12   D T2414      11.551  10.497  25.492  1.00 45.73     0.013 A 
HETATM   16 CL15   D T2414      10.165  11.282  27.754  1.00 45.14    -0.082 Cl
HETATM   17  C13   D T2414      12.591  10.515  24.566  1.00 45.77     0.026 A 
ENDBRANCH   1  10
TORSDOF 2
ENDMDL
MODEL 7
REMARK VINA RESULT:      -7.4      2.611      3.430
REMARK  2 active torsions:
REMARK  status: ('A' for Active; 'I' for Inactive)
REMARK    1  A    between atoms: C5_4  and  O7_13 
REMARK    2  A    between atoms: C8_10  and  O7_13 
ROOT
HETATM    1  O7    D T2414       3.944  13.177  25.831  1.00 46.04    -0.304 OA
ENDROOT
BRANCH   1   2
HETATM    2  C5    D T2414       5.259  12.889  26.075  1.00 46.04     0.125 A 
HETATM    3  C6    D T2414       5.677  12.385  27.412  1.00 45.72     0.154 A 
HETATM    4  C1    D T2414       7.015  12.088  27.640  1.00 44.92     0.041 A 
HETATM    5  O17   D T2414       4.761  12.232  28.401  1.00 46.47    -0.188 OA
HETATM    6  C2    D T2414       7.941  12.267  26.616  1.00 44.57     0.060 A 
HETATM    7  C3    D T2414       7.553  12.739  25.357  1.00 45.65     0.014 A 
HETATM    8 CL14   D T2414       9.654  11.872  26.922  1.00 42.89    -0.082 Cl
HETATM    9  C4    D T2414       6.217  13.050  25.075  1.00 46.07     0.028 A 
ENDBRANCH   1   2
BRANCH   1  10
HETATM   10  C8    D T2414       3.529  14.167  24.983  1.00 45.94     0.111 A 
HETATM   11  C9    D T2414       3.207  13.809  23.579  1.00 45.79     0.081 A 
HETATM   12  C10   D T2414       2.783  14.794  22.695  1.00 45.84     0.025 A 
HETATM   13 CL16   D T2414       3.370  12.110  23.041  1.00 44.04    -0.080 Cl
HETATM   14  C11   D T2414       2.666  16.105  23.145  1.00 45.93     0.059 A 
HETATM   15  C12   D T2414       2.964  16.442  24.467  1.00 45.73     0.013 A 
HETATM   16 CL15   D T2414       2.112  17.377  22.007  1.00 45.14    -0.082 Cl
HETATM   17  C13   D T2414       3.394  15.490  25.388  1.00 45.77     0.026 A 
ENDBRANCH   1  10
TORSDOF 2
ENDMDL
MODEL 8
REMARK VINA RESULT:      -7.4      9.509     11.239
REMARK  2 active torsions:
REMARK  status: ('A' for Active; 'I' for Inactive)
REMARK    1  A    between atoms: C5_4  and  O7_13 
REMARK    2  A    between atoms: C8_10  and  O7_13 
ROOT
HETATM    1  O7    D T2414      13.986  12.867  24.857  1.00 46.04    -0.304 OA
ENDROOT
BRANCH   1   2
HETATM    2  C5    D T2414      14.571  11.859  24.141  1.00 46.04     0.125 A 
HETATM    3  C6    D T2414      15.921  11.357  24.522  1.00 45.72     0.154 A 
HETATM    4  C1    D T2414      16.496  10.326  23.791  1.00 44.92     0.041 A 
HETATM    5  O17   D T2414      16.586  11.914  25.565  1.00 46.47    -0.188 OA
HETATM    6  C2    D T2414      15.803   9.780  22.714  1.00 44.57     0.060 A 
HETATM    7  C3    D T2414      14.535  10.246  22.352  1.00 45.65     0.014 A 
HETATM    8 CL14   D T2414      16.552   8.448  21.791  1.00 42.89    -0.082 Cl
HETATM    9  C4    D T2414      13.909  11.281  23.058  1.00 46.07     0.028 A 
ENDBRANCH   1   2
BRANCH   1  10
HETATM   10  C8    D T2414      13.015  12.663  25.799  1.00 45.94     0.111 A 
HETATM   11  C9    D T2414      12.027  13.743  26.043  1.00 45.79     0.081 A 
HETATM   12  C10   D T2414      11.029  13.564  26.994  1.00 45.84     0.025 A 
HETATM   13 CL16   D T2414      12.133  15.266  25.108  1.00 44.04    -0.080 Cl
HETATM   14  C11   D T2414      10.974  12.369  27.702  1.00 45.93     0.059 A 
HETATM   15  C12   D T2414      11.900  11.350  27.471  1.00 45.73     0.013 A 
HETATM   16 CL15   D T2414       9.682  12.134  28.926  1.00 45.14    -0.082 Cl
HETATM   17  C13   D T2414      12.919  11.484  26.530  1.00 45.77     0.026 A 
ENDBRANCH   1  10
TORSDOF 2
ENDMDL
MODEL 9
REMARK VINA RESULT:      -7.4     10.081     11.227
REMARK  2 active torsions:
REMARK  status: ('A' for Active; 'I' for Inactive)
REMARK    1  A    between atoms: C5_4  and  O7_13 
REMARK    2  A    between atoms: C8_10  and  O7_13 
ROOT
HETATM    1  O7    D T2414      12.550  10.738  22.738  1.00 46.04    -0.304 OA
ENDROOT
BRANCH   1   2
HETATM    2  C5    D T2414      13.712  10.023  22.828  1.00 46.04     0.125 A 
HETATM    3  C6    D T2414      15.026  10.724  22.784  1.00 45.72     0.154 A 
HETATM    4  C1    D T2414      16.197   9.983  22.887  1.00 44.92     0.041 A 
HETATM    5  O17   D T2414      15.076  12.070  22.629  1.00 46.47    -0.188 OA
HETATM    6  C2    D T2414      16.122   8.601  23.030  1.00 44.57     0.060 A 
HETATM    7  C3    D T2414      14.892   7.937  23.073  1.00 45.65     0.014 A 
HETATM    8 CL14   D T2414      17.636   7.665  23.171  1.00 42.89    -0.082 Cl
HETATM    9  C4    D T2414      13.683   8.637  22.977  1.00 46.07     0.028 A 
ENDBRANCH   1   2
BRANCH   1  10
HETATM   10  C8    D T2414      11.702  10.675  21.667  1.00 45.94     0.111 A 
HETATM   11  C9    D T2414      10.304  11.145  21.841  1.00 45.79     0.081 A 
HETATM   12  C10   D T2414       9.420  11.092  20.769  1.00 45.84     0.025 A 
HETATM   13 CL16   D T2414       9.775  11.773  23.430  1.00 44.04    -0.080 Cl
HETATM   14  C11   D T2414       9.864  10.599  19.547  1.00 45.93     0.059 A 
HETATM   15  C12   D T2414      11.179  10.161  19.381  1.00 45.73     0.013 A 
HETATM   16 CL15   D T2414       8.725  10.536  18.161  1.00 45.14    -0.082 Cl
HETATM   17  C13   D T2414      12.100  10.192  20.425  1.00 45.77     0.026 A 
ENDBRANCH   1  10
TORSDOF 2
ENDMDL
