MODEL 1
REMARK VINA RESULT:    -7.708      0.000      0.000
REMARK INTER + INTRA:          -9.129
REMARK INTER:                  -8.609
REMARK INTRA:                  -0.520
REMARK UNBOUND:                -0.520
REMARK  2 active torsions:
REMARK  status: ('A' for Active; 'I' for Inactive)
REMARK    1  A    between atoms: C5_4  and  O7_13 
REMARK    2  A    between atoms: C8_10  and  O7_13 
ROOT
HETATM    1  O7    D T2414       6.618   1.144  -7.117  1.00 46.04    -0.304 OA
ENDROOT
BRANCH   1   2
HETATM    2  C5    D T2414       6.895   1.375  -8.435  1.00 46.04     0.125 A 
HETATM    3  C6    D T2414       8.223   1.919  -8.835  1.00 45.72     0.154 A 
HETATM    4  C1    D T2414       8.492   2.139 -10.181  1.00 44.92     0.041 A 
HETATM    5  O17   D T2414       9.154   2.211  -7.892  1.00 46.47    -0.188 OA
HETATM    6  C2    D T2414       7.518   1.848 -11.130  1.00 44.57     0.060 A 
HETATM    7  C3    D T2414       6.269   1.336 -10.761  1.00 45.65     0.014 A 
HETATM    8 CL14   D T2414       7.882   2.126 -12.855  1.00 42.89    -0.082 Cl
HETATM    9  C4    D T2414       5.949   1.094  -9.419  1.00 46.07     0.028 A 
ENDBRANCH   1   2
BRANCH   1  10
HETATM   10  C8    D T2414       5.751   1.904  -6.379  1.00 45.94     0.111 A 
HETATM   11  C9    D T2414       4.508   1.270  -5.874  1.00 45.79     0.081 A 
HETATM   12  C10   D T2414       3.608   2.017  -5.122  1.00 45.84     0.025 A 
HETATM   13 CL16   D T2414       4.181  -0.452  -6.240  1.00 44.04    -0.080 Cl
HETATM   14  C11   D T2414       3.892   3.353  -4.855  1.00 45.93     0.059 A 
HETATM   15  C12   D T2414       5.064   3.948  -5.325  1.00 45.73     0.013 A 
HETATM   16 CL15   D T2414       2.735   4.316  -3.879  1.00 45.14    -0.082 Cl
HETATM   17  C13   D T2414       5.994   3.241  -6.085  1.00 45.77     0.026 A 
ENDBRANCH   1  10
TORSDOF 2
ENDMDL
MODEL 2
REMARK VINA RESULT:    -7.576      1.232      6.070
REMARK INTER + INTRA:          -8.982
REMARK INTER:                  -8.603
REMARK INTRA:                  -0.379
REMARK UNBOUND:                -0.520
REMARK  2 active torsions:
REMARK  status: ('A' for Active; 'I' for Inactive)
REMARK    1  A    between atoms: C5_4  and  O7_13 
REMARK    2  A    between atoms: C8_10  and  O7_13 
ROOT
HETATM    1  O7    D T2414       6.028   0.849  -7.225  1.00 46.04    -0.304 OA
ENDROOT
BRANCH   1   2
HETATM    2  C5    D T2414       5.289   1.709  -6.460  1.00 46.04     0.125 A 
HETATM    3  C6    D T2414       4.207   1.184  -5.581  1.00 45.72     0.154 A 
HETATM    4  C1    D T2414       3.472   2.071  -4.802  1.00 44.92     0.041 A 
HETATM    5  O17   D T2414       3.933  -0.144  -5.554  1.00 46.47    -0.188 OA
HETATM    6  C2    D T2414       3.760   3.430  -4.857  1.00 44.57     0.060 A 
HETATM    7  C3    D T2414       4.775   3.929  -5.680  1.00 45.65     0.014 A 
HETATM    8 CL14   D T2414       2.814   4.554  -3.842  1.00 42.89    -0.082 Cl
HETATM    9  C4    D T2414       5.547   3.078  -6.482  1.00 46.07     0.028 A 
ENDBRANCH   1   2
BRANCH   1  10
HETATM   10  C8    D T2414       6.480   1.150  -8.482  1.00 45.94     0.111 A 
HETATM   11  C9    D T2414       5.516   1.115  -9.609  1.00 45.79     0.081 A 
HETATM   12  C10   D T2414       5.947   1.416 -10.896  1.00 45.84     0.025 A 
HETATM   13 CL16   D T2414       3.806   0.685  -9.297  1.00 44.04    -0.080 Cl
HETATM   14  C11   D T2414       7.282   1.747 -11.104  1.00 45.93     0.059 A 
HETATM   15  C12   D T2414       8.189   1.784 -10.044  1.00 45.73     0.013 A 
HETATM   16 CL15   D T2414       7.839   2.141 -12.764  1.00 45.14    -0.082 Cl
HETATM   17  C13   D T2414       7.804   1.488  -8.737  1.00 45.77     0.026 A 
ENDBRANCH   1  10
TORSDOF 2
ENDMDL
MODEL 3
REMARK VINA RESULT:    -7.461      0.787      1.727
REMARK INTER + INTRA:          -8.853
REMARK INTER:                  -8.476
REMARK INTRA:                  -0.377
REMARK UNBOUND:                -0.520
REMARK  2 active torsions:
REMARK  status: ('A' for Active; 'I' for Inactive)
REMARK    1  A    between atoms: C5_4  and  O7_13 
REMARK    2  A    between atoms: C8_10  and  O7_13 
ROOT
HETATM    1  O7    D T2414       6.387   1.003  -7.075  1.00 46.04    -0.304 OA
ENDROOT
BRANCH   1   2
HETATM    2  C5    D T2414       6.741   1.263  -8.369  1.00 46.04     0.125 A 
HETATM    3  C6    D T2414       5.751   1.076  -9.467  1.00 45.72     0.154 A 
HETATM    4  C1    D T2414       6.125   1.355 -10.776  1.00 44.92     0.041 A 
HETATM    5  O17   D T2414       4.503   0.624  -9.190  1.00 46.47    -0.188 OA
HETATM    6  C2    D T2414       7.415   1.803 -11.039  1.00 44.57     0.060 A 
HETATM    7  C3    D T2414       8.349   1.981 -10.013  1.00 45.65     0.014 A 
HETATM    8 CL14   D T2414       7.876   2.167 -12.725  1.00 42.89    -0.082 Cl
HETATM    9  C4    D T2414       8.022   1.718  -8.676  1.00 46.07     0.028 A 
ENDBRANCH   1   2
BRANCH   1  10
HETATM   10  C8    D T2414       5.584   1.823  -6.328  1.00 45.94     0.111 A 
HETATM   11  C9    D T2414       4.381   1.241  -5.684  1.00 45.79     0.081 A 
HETATM   12  C10   D T2414       3.547   2.049  -4.920  1.00 45.84     0.025 A 
HETATM   13 CL16   D T2414       4.017  -0.499  -5.898  1.00 44.04    -0.080 Cl
HETATM   14  C11   D T2414       3.858   3.397  -4.773  1.00 45.93     0.059 A 
HETATM   15  C12   D T2414       4.992   3.945  -5.375  1.00 45.73     0.013 A 
HETATM   16 CL15   D T2414       2.786   4.441  -3.782  1.00 45.14    -0.082 Cl
HETATM   17  C13   D T2414       5.855   3.175  -6.152  1.00 45.77     0.026 A 
ENDBRANCH   1  10
TORSDOF 2
ENDMDL
MODEL 4
REMARK VINA RESULT:    -7.322      2.222      6.212
REMARK INTER + INTRA:          -8.698
REMARK INTER:                  -8.265
REMARK INTRA:                  -0.433
REMARK UNBOUND:                -0.520
REMARK  2 active torsions:
REMARK  status: ('A' for Active; 'I' for Inactive)
REMARK    1  A    between atoms: C5_4  and  O7_13 
REMARK    2  A    between atoms: C8_10  and  O7_13 
ROOT
HETATM    1  O7    D T2414       6.580   3.404  -6.996  1.00 46.04    -0.304 OA
ENDROOT
BRANCH   1   2
HETATM    2  C5    D T2414       5.914   2.597  -6.116  1.00 46.04     0.125 A 
HETATM    3  C6    D T2414       4.726   3.113  -5.381  1.00 45.72     0.154 A 
HETATM    4  C1    D T2414       4.054   2.276  -4.498  1.00 44.92     0.041 A 
HETATM    5  O17   D T2414       4.313   4.392  -5.564  1.00 46.47    -0.188 OA
HETATM    6  C2    D T2414       4.503   0.972  -4.315  1.00 44.57     0.060 A 
HETATM    7  C3    D T2414       5.619   0.482  -5.002  1.00 45.65     0.014 A 
HETATM    8 CL14   D T2414       3.624  -0.093  -3.184  1.00 42.89    -0.082 Cl
HETATM    9  C4    D T2414       6.329   1.282  -5.906  1.00 46.07     0.028 A 
ENDBRANCH   1   2
BRANCH   1  10
HETATM   10  C8    D T2414       6.824   3.066  -8.300  1.00 45.94     0.111 A 
HETATM   11  C9    D T2414       8.164   2.536  -8.655  1.00 45.79     0.081 A 
HETATM   12  C10   D T2414       8.441   2.185  -9.971  1.00 45.84     0.025 A 
HETATM   13 CL16   D T2414       9.410   2.357  -7.382  1.00 44.04    -0.080 Cl
HETATM   14  C11   D T2414       7.451   2.336 -10.936  1.00 45.93     0.059 A 
HETATM   15  C12   D T2414       6.188   2.829 -10.602  1.00 45.73     0.013 A 
HETATM   16 CL15   D T2414       7.804   1.876 -12.634  1.00 45.14    -0.082 Cl
HETATM   17  C13   D T2414       5.865   3.197  -9.297  1.00 45.77     0.026 A 
ENDBRANCH   1  10
TORSDOF 2
ENDMDL
MODEL 5
REMARK VINA RESULT:    -7.288      1.661      2.516
REMARK INTER + INTRA:          -8.660
REMARK INTER:                  -8.410
REMARK INTRA:                  -0.250
REMARK UNBOUND:                -0.520
REMARK  2 active torsions:
REMARK  status: ('A' for Active; 'I' for Inactive)
REMARK    1  A    between atoms: C5_4  and  O7_13 
REMARK    2  A    between atoms: C8_10  and  O7_13 
ROOT
HETATM    1  O7    D T2414       5.199   3.577  -7.216  1.00 46.04    -0.304 OA
ENDROOT
BRANCH   1   2
HETATM    2  C5    D T2414       5.826   3.164  -8.358  1.00 46.04     0.125 A 
HETATM    3  C6    D T2414       7.285   2.861  -8.341  1.00 45.72     0.154 A 
HETATM    4  C1    D T2414       7.904   2.431  -9.509  1.00 44.92     0.041 A 
HETATM    5  O17   D T2414       8.002   3.017  -7.200  1.00 46.47    -0.188 OA
HETATM    6  C2    D T2414       7.154   2.292 -10.671  1.00 44.57     0.060 A 
HETATM    7  C3    D T2414       5.784   2.575 -10.693  1.00 45.65     0.014 A 
HETATM    8 CL14   D T2414       7.963   1.730 -12.160  1.00 42.89    -0.082 Cl
HETATM    9  C4    D T2414       5.110   3.007  -9.544  1.00 46.07     0.028 A 
ENDBRANCH   1   2
BRANCH   1  10
HETATM   10  C8    D T2414       4.786   2.726  -6.226  1.00 45.94     0.111 A 
HETATM   11  C9    D T2414       4.115   3.300  -5.033  1.00 45.79     0.081 A 
HETATM   12  C10   D T2414       3.685   2.461  -4.013  1.00 45.84     0.025 A 
HETATM   13 CL16   D T2414       3.866   5.070  -4.924  1.00 44.04    -0.080 Cl
HETATM   14  C11   D T2414       3.893   1.090  -4.128  1.00 45.93     0.059 A 
HETATM   15  C12   D T2414       4.521   0.549  -5.252  1.00 45.73     0.013 A 
HETATM   16 CL15   D T2414       3.333   0.004  -2.814  1.00 45.14    -0.082 Cl
HETATM   17  C13   D T2414       4.970   1.351  -6.299  1.00 45.77     0.026 A 
ENDBRANCH   1  10
TORSDOF 2
ENDMDL
MODEL 6
REMARK VINA RESULT:    -7.198      3.583      6.114
REMARK INTER + INTRA:          -8.560
REMARK INTER:                  -8.592
REMARK INTRA:                   0.032
REMARK UNBOUND:                -0.520
REMARK  2 active torsions:
REMARK  status: ('A' for Active; 'I' for Inactive)
REMARK    1  A    between atoms: C5_4  and  O7_13 
REMARK    2  A    between atoms: C8_10  and  O7_13 
ROOT
HETATM    1  O7    D T2414       7.845   1.653  -6.599  1.00 46.04    -0.304 OA
ENDROOT
BRANCH   1   2
HETATM    2  C5    D T2414       8.947   1.426  -5.822  1.00 46.04     0.125 A 
HETATM    3  C6    D T2414       8.895   1.689  -4.357  1.00 45.72     0.154 A 
HETATM    4  C1    D T2414      10.021   1.442  -3.581  1.00 44.92     0.041 A 
HETATM    5  O17   D T2414       7.763   2.177  -3.790  1.00 46.47    -0.188 OA
HETATM    6  C2    D T2414      11.176   0.956  -4.184  1.00 44.57     0.060 A 
HETATM    7  C3    D T2414      11.231   0.707  -5.560  1.00 45.65     0.014 A 
HETATM    8 CL14   D T2414      12.610   0.635  -3.171  1.00 42.89    -0.082 Cl
HETATM    9  C4    D T2414      10.123   0.935  -6.386  1.00 46.07     0.028 A 
ENDBRANCH   1   2
BRANCH   1  10
HETATM   10  C8    D T2414       7.881   1.725  -7.965  1.00 45.94     0.111 A 
HETATM   11  C9    D T2414       6.900   0.927  -8.742  1.00 45.79     0.081 A 
HETATM   12  C10   D T2414       6.913   0.980 -10.131  1.00 45.84     0.025 A 
HETATM   13 CL16   D T2414       5.709  -0.094  -7.880  1.00 44.04    -0.080 Cl
HETATM   14  C11   D T2414       7.851   1.784 -10.771  1.00 45.93     0.059 A 
HETATM   15  C12   D T2414       8.772   2.538 -10.041  1.00 45.73     0.013 A 
HETATM   16 CL15   D T2414       7.865   1.858 -12.564  1.00 45.14    -0.082 Cl
HETATM   17  C13   D T2414       8.799   2.516  -8.648  1.00 45.77     0.026 A 
ENDBRANCH   1  10
TORSDOF 2
ENDMDL
MODEL 7
REMARK VINA RESULT:    -7.069      2.142      2.675
REMARK INTER + INTRA:          -8.415
REMARK INTER:                  -8.095
REMARK INTRA:                  -0.320
REMARK UNBOUND:                -0.520
REMARK  2 active torsions:
REMARK  status: ('A' for Active; 'I' for Inactive)
REMARK    1  A    between atoms: C5_4  and  O7_13 
REMARK    2  A    between atoms: C8_10  and  O7_13 
ROOT
HETATM    1  O7    D T2414       6.806   3.386  -6.927  1.00 46.04    -0.304 OA
ENDROOT
BRANCH   1   2
HETATM    2  C5    D T2414       7.014   3.045  -8.235  1.00 46.04     0.125 A 
HETATM    3  C6    D T2414       6.076   3.522  -9.290  1.00 45.72     0.154 A 
HETATM    4  C1    D T2414       6.308   3.174 -10.615  1.00 44.92     0.041 A 
HETATM    5  O17   D T2414       4.999   4.276  -8.955  1.00 46.47    -0.188 OA
HETATM    6  C2    D T2414       7.410   2.387 -10.934  1.00 44.57     0.060 A 
HETATM    7  C3    D T2414       8.294   1.936  -9.948  1.00 45.65     0.014 A 
HETATM    8 CL14   D T2414       7.699   1.958 -12.642  1.00 42.89    -0.082 Cl
HETATM    9  C4    D T2414       8.108   2.261  -8.598  1.00 46.07     0.028 A 
ENDBRANCH   1   2
BRANCH   1  10
HETATM   10  C8    D T2414       6.000   2.678  -6.077  1.00 45.94     0.111 A 
HETATM   11  C9    D T2414       6.628   1.690  -5.165  1.00 45.79     0.081 A 
HETATM   12  C10   D T2414       5.835   0.956  -4.291  1.00 45.84     0.025 A 
HETATM   13 CL16   D T2414       8.402   1.455  -5.202  1.00 44.04    -0.080 Cl
HETATM   14  C11   D T2414       4.459   1.163  -4.286  1.00 45.93     0.059 A 
HETATM   15  C12   D T2414       3.868   2.096  -5.141  1.00 45.73     0.013 A 
HETATM   16 CL15   D T2414       3.434   0.221  -3.154  1.00 45.14    -0.082 Cl
HETATM   17  C13   D T2414       4.622   2.853  -6.036  1.00 45.77     0.026 A 
ENDBRANCH   1  10
TORSDOF 2
ENDMDL
MODEL 8
REMARK VINA RESULT:    -6.957      2.374      6.256
REMARK INTER + INTRA:          -8.291
REMARK INTER:                  -7.764
REMARK INTRA:                  -0.526
REMARK UNBOUND:                -0.520
REMARK  2 active torsions:
REMARK  status: ('A' for Active; 'I' for Inactive)
REMARK    1  A    between atoms: C5_4  and  O7_13 
REMARK    2  A    between atoms: C8_10  and  O7_13 
ROOT
HETATM    1  O7    D T2414       4.271   2.360  -6.329  1.00 46.04    -0.304 OA
ENDROOT
BRANCH   1   2
HETATM    2  C5    D T2414       4.653   2.764  -5.080  1.00 46.04     0.125 A 
HETATM    3  C6    D T2414       4.441   4.176  -4.654  1.00 45.72     0.154 A 
HETATM    4  C1    D T2414       4.826   4.567  -3.378  1.00 44.92     0.041 A 
HETATM    5  O17   D T2414       3.890   5.072  -5.511  1.00 46.47    -0.188 OA
HETATM    6  C2    D T2414       5.403   3.636  -2.520  1.00 44.57     0.060 A 
HETATM    7  C3    D T2414       5.605   2.309  -2.914  1.00 45.65     0.014 A 
HETATM    8 CL14   D T2414       5.882   4.153  -0.880  1.00 42.89    -0.082 Cl
HETATM    9  C4    D T2414       5.231   1.862  -4.188  1.00 46.07     0.028 A 
ENDBRANCH   1   2
BRANCH   1  10
HETATM   10  C8    D T2414       5.148   2.143  -7.358  1.00 45.94     0.111 A 
HETATM   11  C9    D T2414       5.435   0.744  -7.760  1.00 45.79     0.081 A 
HETATM   12  C10   D T2414       6.321   0.493  -8.802  1.00 45.84     0.025 A 
HETATM   13 CL16   D T2414       4.635  -0.606  -6.899  1.00 44.04    -0.080 Cl
HETATM   14  C11   D T2414       6.925   1.565  -9.451  1.00 45.93     0.059 A 
HETATM   15  C12   D T2414       6.653   2.882  -9.076  1.00 45.73     0.013 A 
HETATM   16 CL15   D T2414       8.065   1.243 -10.800  1.00 45.14    -0.082 Cl
HETATM   17  C13   D T2414       5.774   3.182  -8.037  1.00 45.77     0.026 A 
ENDBRANCH   1  10
TORSDOF 2
ENDMDL
MODEL 9
REMARK VINA RESULT:    -6.813      2.379      6.295
REMARK INTER + INTRA:          -8.130
REMARK INTER:                  -7.801
REMARK INTRA:                  -0.329
REMARK UNBOUND:                -0.520
REMARK  2 active torsions:
REMARK  status: ('A' for Active; 'I' for Inactive)
REMARK    1  A    between atoms: C5_4  and  O7_13 
REMARK    2  A    between atoms: C8_10  and  O7_13 
ROOT
HETATM    1  O7    D T2414       4.080   2.118  -5.449  1.00 46.04    -0.304 OA
ENDROOT
BRANCH   1   2
HETATM    2  C5    D T2414       4.223   3.226  -4.661  1.00 46.04     0.125 A 
HETATM    3  C6    D T2414       4.798   3.099  -3.292  1.00 45.72     0.154 A 
HETATM    4  C1    D T2414       4.946   4.237  -2.508  1.00 44.92     0.041 A 
HETATM    5  O17   D T2414       5.158   1.882  -2.813  1.00 46.47    -0.188 OA
HETATM    6  C2    D T2414       4.556   5.472  -3.013  1.00 44.57     0.060 A 
HETATM    7  C3    D T2414       4.016   5.598  -4.297  1.00 45.65     0.014 A 
HETATM    8 CL14   D T2414       4.763   6.925  -1.996  1.00 42.89    -0.082 Cl
HETATM    9  C4    D T2414       3.849   4.484  -5.130  1.00 46.07     0.028 A 
ENDBRANCH   1   2
BRANCH   1  10
HETATM   10  C8    D T2414       4.829   1.883  -6.571  1.00 45.94     0.111 A 
HETATM   11  C9    D T2414       4.267   1.003  -7.626  1.00 45.79     0.081 A 
HETATM   12  C10   D T2414       5.005   0.747  -8.775  1.00 45.84     0.025 A 
HETATM   13 CL16   D T2414       2.643   0.283  -7.405  1.00 44.04    -0.080 Cl
HETATM   14  C11   D T2414       6.263   1.323  -8.917  1.00 45.93     0.059 A 
HETATM   15  C12   D T2414       6.791   2.154  -7.927  1.00 45.73     0.013 A 
HETATM   16 CL15   D T2414       7.215   0.997 -10.403  1.00 45.14    -0.082 Cl
HETATM   17  C13   D T2414       6.089   2.438  -6.756  1.00 45.77     0.026 A 
ENDBRANCH   1  10
TORSDOF 2
ENDMDL
