MODEL 1
REMARK VINA RESULT:    -7.552      0.000      0.000
REMARK INTER + INTRA:          -8.833
REMARK INTER:                  -8.435
REMARK INTRA:                  -0.398
REMARK UNBOUND:                -0.398
REMARK  2 active torsions:
REMARK  status: ('A' for Active; 'I' for Inactive)
REMARK    1  A    between atoms: C5_4  and  O7_13 
REMARK    2  A    between atoms: C8_10  and  O7_13 
ROOT
HETATM    1  O7    D T 601       4.606   0.648  -7.923  1.00 22.91    -0.304 OA
ENDROOT
BRANCH   1   2
HETATM    2  C5    D T 601       3.811   1.442  -7.095  1.00 20.74     0.121 A 
HETATM    3  C6    D T 601       2.878   0.845  -6.228  1.00 18.69     0.136 A 
HETATM    4  C1    D T 601       2.052   1.674  -5.361  1.00 19.14     0.094 A 
HETATM    5  O17   D T 601       2.778  -0.514  -6.229  1.00 19.23    -0.192 OA
HETATM    6  C2    D T 601       2.192   3.101  -5.395  1.00 17.42     0.042 A 
HETATM    7  C3    D T 601       3.138   3.690  -6.281  1.00 18.45     0.010 A 
HETATM    8 CL14   D T 601       1.251   4.090  -4.400  1.00  7.86    -0.087 Cl
HETATM    9  C4    D T 601       3.951   2.860  -7.131  1.00 18.04     0.027 A 
ENDBRANCH   1   2
BRANCH   1  10
HETATM   10  C8    D T 601       4.883   1.022  -9.256  1.00 22.66     0.111 A 
HETATM   11  C9    D T 601       3.821   0.865 -10.231  1.00 21.19     0.081 A 
HETATM   12  C10   D T 601       4.069   1.209 -11.595  1.00 21.37     0.025 A 
HETATM   13 CL16   D T 601       2.254   0.244  -9.781  1.00 20.16    -0.080 Cl
HETATM   14  C11   D T 601       5.363   1.714 -11.997  1.00 19.62     0.059 A 
HETATM   15  C12   D T 601       6.409   1.879 -11.034  1.00 21.14     0.013 A 
HETATM   16 CL15   D T 601       5.651   2.109 -13.621  1.00 11.58    -0.082 Cl
HETATM   17  C13   D T 601       6.177   1.536  -9.677  1.00 20.93     0.026 A 
ENDBRANCH   1  10
TORSDOF 2
ENDMDL
MODEL 2
REMARK VINA RESULT:    -7.503      1.525      6.140
REMARK INTER + INTRA:          -8.778
REMARK INTER:                  -8.278
REMARK INTRA:                  -0.499
REMARK UNBOUND:                -0.398
REMARK  2 active torsions:
REMARK  status: ('A' for Active; 'I' for Inactive)
REMARK    1  A    between atoms: C5_4  and  O7_13 
REMARK    2  A    between atoms: C8_10  and  O7_13 
ROOT
HETATM    1  O7    D T 601       5.810   1.473  -7.662  1.00 22.91    -0.304 OA
ENDROOT
BRANCH   1   2
HETATM    2  C5    D T 601       5.869   1.643  -9.046  1.00 20.74     0.121 A 
HETATM    3  C6    D T 601       6.752   2.585  -9.606  1.00 18.69     0.136 A 
HETATM    4  C1    D T 601       6.817   2.757 -11.050  1.00 19.14     0.094 A 
HETATM    5  O17   D T 601       7.530   3.317  -8.759  1.00 19.23    -0.192 OA
HETATM    6  C2    D T 601       5.978   1.965 -11.900  1.00 17.42     0.042 A 
HETATM    7  C3    D T 601       5.088   1.018 -11.320  1.00 18.45     0.010 A 
HETATM    8 CL14   D T 601       6.033   2.139 -13.580  1.00  7.86    -0.087 Cl
HETATM    9  C4    D T 601       5.035   0.854  -9.890  1.00 18.04     0.027 A 
ENDBRANCH   1   2
BRANCH   1  10
HETATM   10  C8    D T 601       4.739   1.992  -6.903  1.00 22.66     0.111 A 
HETATM   11  C9    D T 601       3.722   1.062  -6.453  1.00 21.19     0.081 A 
HETATM   12  C10   D T 601       2.609   1.552  -5.703  1.00 21.37     0.025 A 
HETATM   13 CL16   D T 601       3.813  -0.640  -6.826  1.00 20.16    -0.080 Cl
HETATM   14  C11   D T 601       2.503   2.961  -5.391  1.00 19.62     0.059 A 
HETATM   15  C12   D T 601       3.511   3.879  -5.826  1.00 21.14     0.013 A 
HETATM   16 CL15   D T 601       1.172   3.535  -4.509  1.00 11.58    -0.082 Cl
HETATM   17  C13   D T 601       4.618   3.405  -6.576  1.00 20.93     0.026 A 
ENDBRANCH   1  10
TORSDOF 2
ENDMDL
MODEL 3
REMARK VINA RESULT:    -7.414      1.630      2.111
REMARK INTER + INTRA:          -8.678
REMARK INTER:                  -8.162
REMARK INTRA:                  -0.516
REMARK UNBOUND:                -0.398
REMARK  2 active torsions:
REMARK  status: ('A' for Active; 'I' for Inactive)
REMARK    1  A    between atoms: C5_4  and  O7_13 
REMARK    2  A    between atoms: C8_10  and  O7_13 
ROOT
HETATM    1  O7    D T 601       5.435   1.544  -7.234  1.00 22.91    -0.304 OA
ENDROOT
BRANCH   1   2
HETATM    2  C5    D T 601       4.352   2.062  -6.523  1.00 20.74     0.121 A 
HETATM    3  C6    D T 601       3.467   1.198  -5.853  1.00 18.69     0.136 A 
HETATM    4  C1    D T 601       2.341   1.740  -5.107  1.00 19.14     0.094 A 
HETATM    5  O17   D T 601       3.701  -0.143  -5.927  1.00 19.23    -0.192 OA
HETATM    6  C2    D T 601       2.136   3.158  -5.058  1.00 17.42     0.042 A 
HETATM    7  C3    D T 601       3.038   4.020  -5.744  1.00 18.45     0.010 A 
HETATM    8 CL14   D T 601       0.841   3.819  -4.198  1.00  7.86    -0.087 Cl
HETATM    9  C4    D T 601       4.150   3.472  -6.475  1.00 18.04     0.027 A 
ENDBRANCH   1   2
BRANCH   1  10
HETATM   10  C8    D T 601       5.488   1.608  -8.644  1.00 22.66     0.111 A 
HETATM   11  C9    D T 601       6.508   2.450  -9.239  1.00 21.19     0.081 A 
HETATM   12  C10   D T 601       6.578   2.561 -10.662  1.00 21.37     0.025 A 
HETATM   13 CL16   D T 601       7.637   3.349  -8.258  1.00 20.16    -0.080 Cl
HETATM   14  C11   D T 601       5.647   1.837 -11.498  1.00 19.62     0.059 A 
HETATM   15  C12   D T 601       4.646   0.998 -10.912  1.00 21.14     0.013 A 
HETATM   16 CL15   D T 601       5.732   1.984 -13.186  1.00 11.58    -0.082 Cl
HETATM   17  C13   D T 601       4.562   0.883  -9.500  1.00 20.93     0.026 A 
ENDBRANCH   1  10
TORSDOF 2
ENDMDL
MODEL 4
REMARK VINA RESULT:    -7.253      2.472      3.052
REMARK INTER + INTRA:          -8.499
REMARK INTER:                  -8.081
REMARK INTRA:                  -0.418
REMARK UNBOUND:                -0.398
REMARK  2 active torsions:
REMARK  status: ('A' for Active; 'I' for Inactive)
REMARK    1  A    between atoms: C5_4  and  O7_13 
REMARK    2  A    between atoms: C8_10  and  O7_13 
ROOT
HETATM    1  O7    D T 601       3.200   3.381  -7.933  1.00 22.91    -0.304 OA
ENDROOT
BRANCH   1   2
HETATM    2  C5    D T 601       3.085   2.597  -6.784  1.00 20.74     0.121 A 
HETATM    3  C6    D T 601       3.299   3.166  -5.516  1.00 18.69     0.136 A 
HETATM    4  C1    D T 601       3.173   2.348  -4.318  1.00 19.14     0.094 A 
HETATM    5  O17   D T 601       3.621   4.488  -5.452  1.00 19.23    -0.192 OA
HETATM    6  C2    D T 601       2.833   0.960  -4.435  1.00 17.42     0.042 A 
HETATM    7  C3    D T 601       2.623   0.397  -5.726  1.00 18.45     0.010 A 
HETATM    8 CL14   D T 601       2.677  -0.015  -3.064  1.00  7.86    -0.087 Cl
HETATM    9  C4    D T 601       2.746   1.217  -6.903  1.00 18.04     0.027 A 
ENDBRANCH   1   2
BRANCH   1  10
HETATM   10  C8    D T 601       3.852   2.901  -9.089  1.00 22.66     0.111 A 
HETATM   11  C9    D T 601       5.300   2.979  -9.124  1.00 21.19     0.081 A 
HETATM   12  C10   D T 601       5.996   2.526 -10.287  1.00 21.37     0.025 A 
HETATM   13 CL16   D T 601       6.211   3.635  -7.788  1.00 20.16    -0.080 Cl
HETATM   14  C11   D T 601       5.265   1.989 -11.413  1.00 19.62     0.059 A 
HETATM   15  C12   D T 601       3.837   1.903 -11.376  1.00 21.14     0.013 A 
HETATM   16 CL15   D T 601       6.100   1.464 -12.793  1.00 11.58    -0.082 Cl
HETATM   17  C13   D T 601       3.133   2.354 -10.230  1.00 20.93     0.026 A 
ENDBRANCH   1  10
TORSDOF 2
ENDMDL
MODEL 5
REMARK VINA RESULT:    -7.062      2.201      2.421
REMARK INTER + INTRA:          -8.285
REMARK INTER:                  -7.844
REMARK INTRA:                  -0.442
REMARK UNBOUND:                -0.398
REMARK  2 active torsions:
REMARK  status: ('A' for Active; 'I' for Inactive)
REMARK    1  A    between atoms: C5_4  and  O7_13 
REMARK    2  A    between atoms: C8_10  and  O7_13 
ROOT
HETATM    1  O7    D T 601       2.727   2.035  -7.179  1.00 22.91    -0.304 OA
ENDROOT
BRANCH   1   2
HETATM    2  C5    D T 601       3.170   2.535  -5.953  1.00 20.74     0.121 A 
HETATM    3  C6    D T 601       3.423   1.658  -4.882  1.00 18.69     0.136 A 
HETATM    4  C1    D T 601       3.890   2.179  -3.606  1.00 19.14     0.094 A 
HETATM    5  O17   D T 601       3.217   0.325  -5.082  1.00 19.23    -0.192 OA
HETATM    6  C2    D T 601       4.092   3.589  -3.443  1.00 17.42     0.042 A 
HETATM    7  C3    D T 601       3.829   4.464  -4.535  1.00 18.45     0.010 A 
HETATM    8 CL14   D T 601       4.637   4.226  -1.976  1.00  7.86    -0.087 Cl
HETATM    9  C4    D T 601       3.370   3.937  -5.793  1.00 18.04     0.027 A 
ENDBRANCH   1   2
BRANCH   1  10
HETATM   10  C8    D T 601       3.618   1.834  -8.256  1.00 22.66     0.111 A 
HETATM   11  C9    D T 601       3.677   2.860  -9.279  1.00 21.19     0.081 A 
HETATM   12  C10   D T 601       4.548   2.682 -10.398  1.00 21.37     0.025 A 
HETATM   13 CL16   D T 601       2.691   4.297  -9.188  1.00 20.16    -0.080 Cl
HETATM   14  C11   D T 601       5.366   1.494 -10.504  1.00 19.62     0.059 A 
HETATM   15  C12   D T 601       5.316   0.485  -9.490  1.00 21.14     0.013 A 
HETATM   16 CL15   D T 601       6.388   1.286 -11.841  1.00 11.58    -0.082 Cl
HETATM   17  C13   D T 601       4.452   0.647  -8.377  1.00 20.93     0.026 A 
ENDBRANCH   1  10
TORSDOF 2
ENDMDL
MODEL 6
REMARK VINA RESULT:    -6.864      2.322      2.610
REMARK INTER + INTRA:          -8.064
REMARK INTER:                  -7.667
REMARK INTRA:                  -0.397
REMARK UNBOUND:                -0.398
REMARK  2 active torsions:
REMARK  status: ('A' for Active; 'I' for Inactive)
REMARK    1  A    between atoms: C5_4  and  O7_13 
REMARK    2  A    between atoms: C8_10  and  O7_13 
ROOT
HETATM    1  O7    D T 601       4.871   3.695  -7.687  1.00 22.91    -0.304 OA
ENDROOT
BRANCH   1   2
HETATM    2  C5    D T 601       4.382   2.845  -6.695  1.00 20.74     0.121 A 
HETATM    3  C6    D T 601       5.260   2.277  -5.753  1.00 18.69     0.136 A 
HETATM    4  C1    D T 601       4.747   1.395  -4.715  1.00 19.14     0.094 A 
HETATM    5  O17   D T 601       6.585   2.580  -5.849  1.00 19.23    -0.192 OA
HETATM    6  C2    D T 601       3.344   1.105  -4.655  1.00 17.42     0.042 A 
HETATM    7  C3    D T 601       2.468   1.684  -5.616  1.00 18.45     0.010 A 
HETATM    8 CL14   D T 601       2.718   0.088  -3.460  1.00  7.86    -0.087 Cl
HETATM    9  C4    D T 601       2.987   2.558  -6.636  1.00 18.04     0.027 A 
ENDBRANCH   1   2
BRANCH   1  10
HETATM   10  C8    D T 601       5.113   3.231  -8.999  1.00 22.66     0.111 A 
HETATM   11  C9    D T 601       4.068   3.432  -9.984  1.00 21.19     0.081 A 
HETATM   12  C10   D T 601       4.264   2.955 -11.317  1.00 21.37     0.025 A 
HETATM   13 CL16   D T 601       2.566   4.221  -9.575  1.00 20.16    -0.080 Cl
HETATM   14  C11   D T 601       5.494   2.286 -11.680  1.00 19.62     0.059 A 
HETATM   15  C12   D T 601       6.530   2.096 -10.710  1.00 21.14     0.013 A 
HETATM   16 CL15   D T 601       5.713   1.714 -13.261  1.00 11.58    -0.082 Cl
HETATM   17  C13   D T 601       6.346   2.561  -9.382  1.00 20.93     0.026 A 
ENDBRANCH   1  10
TORSDOF 2
ENDMDL
MODEL 7
REMARK VINA RESULT:    -6.727      7.903     11.013
REMARK INTER + INTRA:          -7.911
REMARK INTER:                  -7.530
REMARK INTRA:                  -0.381
REMARK UNBOUND:                -0.398
REMARK  2 active torsions:
REMARK  status: ('A' for Active; 'I' for Inactive)
REMARK    1  A    between atoms: C5_4  and  O7_13 
REMARK    2  A    between atoms: C8_10  and  O7_13 
ROOT
HETATM    1  O7    D T 601       4.376   7.813   0.211  1.00 22.91    -0.304 OA
ENDROOT
BRANCH   1   2
HETATM    2  C5    D T 601       3.871   7.326  -0.995  1.00 20.74     0.121 A 
HETATM    3  C6    D T 601       3.374   8.216  -1.965  1.00 18.69     0.136 A 
HETATM    4  C1    D T 601       2.853   7.707  -3.225  1.00 19.14     0.094 A 
HETATM    5  O17   D T 601       3.401   9.549  -1.684  1.00 19.23    -0.192 OA
HETATM    6  C2    D T 601       2.845   6.295  -3.474  1.00 17.42     0.042 A 
HETATM    7  C3    D T 601       3.347   5.406  -2.482  1.00 18.45     0.010 A 
HETATM    8 CL14   D T 601       2.250   5.673  -4.928  1.00  7.86    -0.087 Cl
HETATM    9  C4    D T 601       3.864   5.922  -1.241  1.00 18.04     0.027 A 
ENDBRANCH   1   2
BRANCH   1  10
HETATM   10  C8    D T 601       5.463   7.187   0.860  1.00 22.66     0.111 A 
HETATM   11  C9    D T 601       6.799   7.537   0.420  1.00 21.19     0.081 A 
HETATM   12  C10   D T 601       7.925   6.906   1.034  1.00 21.37     0.025 A 
HETATM   13 CL16   D T 601       7.065   8.693  -0.860  1.00 20.16    -0.080 Cl
HETATM   14  C11   D T 601       7.732   5.935   2.088  1.00 19.62     0.059 A 
HETATM   15  C12   D T 601       6.414   5.596   2.531  1.00 21.14     0.013 A 
HETATM   16 CL15   D T 601       9.074   5.184   2.804  1.00 11.58    -0.082 Cl
HETATM   17  C13   D T 601       5.288   6.211   1.925  1.00 20.93     0.026 A 
ENDBRANCH   1  10
TORSDOF 2
ENDMDL
MODEL 8
REMARK VINA RESULT:    -6.698      2.219      3.035
REMARK INTER + INTRA:          -7.879
REMARK INTER:                  -7.397
REMARK INTRA:                  -0.481
REMARK UNBOUND:                -0.398
REMARK  2 active torsions:
REMARK  status: ('A' for Active; 'I' for Inactive)
REMARK    1  A    between atoms: C5_4  and  O7_13 
REMARK    2  A    between atoms: C8_10  and  O7_13 
ROOT
HETATM    1  O7    D T 601       3.443   1.743  -5.717  1.00 22.91    -0.304 OA
ENDROOT
BRANCH   1   2
HETATM    2  C5    D T 601       3.027   2.851  -4.976  1.00 20.74     0.121 A 
HETATM    3  C6    D T 601       3.961   3.594  -4.231  1.00 18.69     0.136 A 
HETATM    4  C1    D T 601       3.527   4.753  -3.464  1.00 19.14     0.094 A 
HETATM    5  O17   D T 601       5.264   3.196  -4.256  1.00 19.23    -0.192 OA
HETATM    6  C2    D T 601       2.145   5.133  -3.468  1.00 17.42     0.042 A 
HETATM    7  C3    D T 601       1.211   4.369  -4.223  1.00 18.45     0.010 A 
HETATM    8 CL14   D T 601       1.609   6.474  -2.590  1.00  7.86    -0.087 Cl
HETATM    9  C4    D T 601       1.652   3.227  -4.981  1.00 18.04     0.027 A 
ENDBRANCH   1   2
BRANCH   1  10
HETATM   10  C8    D T 601       3.595   1.812  -7.119  1.00 22.66     0.111 A 
HETATM   11  C9    D T 601       2.816   0.891  -7.924  1.00 21.19     0.081 A 
HETATM   12  C10   D T 601       2.960   0.912  -9.346  1.00 21.37     0.025 A 
HETATM   13 CL16   D T 601       1.724  -0.259  -7.196  1.00 20.16    -0.080 Cl
HETATM   14  C11   D T 601       3.868   1.847  -9.974  1.00 19.62     0.059 A 
HETATM   15  C12   D T 601       4.630   2.763  -9.181  1.00 21.14     0.013 A 
HETATM   16 CL15   D T 601       4.040   1.856 -11.661  1.00 11.58    -0.082 Cl
HETATM   17  C13   D T 601       4.500   2.748  -7.768  1.00 20.93     0.026 A 
ENDBRANCH   1  10
TORSDOF 2
ENDMDL
MODEL 9
REMARK VINA RESULT:    -6.682      2.312      6.298
REMARK INTER + INTRA:          -7.861
REMARK INTER:                  -7.417
REMARK INTRA:                  -0.444
REMARK UNBOUND:                -0.398
REMARK  2 active torsions:
REMARK  status: ('A' for Active; 'I' for Inactive)
REMARK    1  A    between atoms: C5_4  and  O7_13 
REMARK    2  A    between atoms: C8_10  and  O7_13 
ROOT
HETATM    1  O7    D T 601       2.499   2.271  -6.091  1.00 22.91    -0.304 OA
ENDROOT
BRANCH   1   2
HETATM    2  C5    D T 601       3.229   1.922  -7.228  1.00 20.74     0.121 A 
HETATM    3  C6    D T 601       3.174   0.609  -7.729  1.00 18.69     0.136 A 
HETATM    4  C1    D T 601       3.931   0.248  -8.919  1.00 19.14     0.094 A 
HETATM    5  O17   D T 601       2.397  -0.296  -7.069  1.00 19.23    -0.192 OA
HETATM    6  C2    D T 601       4.735   1.235  -9.578  1.00 17.42     0.042 A 
HETATM    7  C3    D T 601       4.784   2.559  -9.058  1.00 18.45     0.010 A 
HETATM    8 CL14   D T 601       5.623   0.848 -10.962  1.00  7.86    -0.087 Cl
HETATM    9  C4    D T 601       4.028   2.905  -7.883  1.00 18.04     0.027 A 
ENDBRANCH   1   2
BRANCH   1  10
HETATM   10  C8    D T 601       3.075   3.037  -5.054  1.00 22.66     0.111 A 
HETATM   11  C9    D T 601       2.694   4.433  -4.959  1.00 21.19     0.081 A 
HETATM   12  C10   D T 601       3.274   5.248  -3.938  1.00 21.37     0.025 A 
HETATM   13 CL16   D T 601       1.561   5.147  -6.078  1.00 20.16    -0.080 Cl
HETATM   14  C11   D T 601       4.225   4.684  -3.006  1.00 19.62     0.059 A 
HETATM   15  C12   D T 601       4.595   3.303  -3.092  1.00 21.14     0.013 A 
HETATM   16 CL15   D T 601       4.916   5.661  -1.805  1.00 11.58    -0.082 Cl
HETATM   17  C13   D T 601       4.030   2.485  -4.105  1.00 20.93     0.026 A 
ENDBRANCH   1  10
TORSDOF 2
ENDMDL
