MODEL 1
REMARK VINA RESULT:      -8.2      0.000      0.000
REMARK  2 active torsions:
REMARK  status: ('A' for Active; 'I' for Inactive)
REMARK    1  A    between atoms: C5_4  and  O7_13 
REMARK    2  A    between atoms: C8_10  and  O7_13 
ROOT
HETATM    1  O7    D T 601      35.641  51.414  80.204  1.00 22.91    -0.304 OA
ENDROOT
BRANCH   1   2
HETATM    2  C5    D T 601      35.428  52.083  81.411  1.00 20.74     0.121 A 
HETATM    3  C6    D T 601      36.455  52.858  81.979  1.00 18.69     0.136 A 
HETATM    4  C1    D T 601      36.231  53.559  83.235  1.00 19.14     0.094 A 
HETATM    5  O17   D T 601      37.647  52.926  81.321  1.00 19.23    -0.192 OA
HETATM    6  C2    D T 601      34.960  53.456  83.891  1.00 17.42     0.042 A 
HETATM    7  C3    D T 601      33.932  52.665  83.305  1.00 18.45     0.010 A 
HETATM    8 CL14   D T 601      34.666  54.260  85.348  1.00  7.86    -0.087 Cl
HETATM    9  C4    D T 601      34.164  51.980  82.061  1.00 18.04     0.027 A 
ENDBRANCH   1   2
BRANCH   1  10
HETATM   10  C8    D T 601      35.134  50.115  79.983  1.00 22.66     0.111 A 
HETATM   11  C9    D T 601      35.816  49.010  80.627  1.00 21.19     0.081 A 
HETATM   12  C10   D T 601      35.348  47.677  80.408  1.00 21.37     0.025 A 
HETATM   13 CL16   D T 601      37.211  49.265  81.645  1.00 20.16    -0.080 Cl
HETATM   14  C11   D T 601      34.202  47.435  79.559  1.00 19.62     0.059 A 
HETATM   15  C12   D T 601      33.522  48.528  78.931  1.00 21.14     0.013 A 
HETATM   16 CL15   D T 601      33.661  45.850  79.298  1.00 11.58    -0.082 Cl
HETATM   17  C13   D T 601      33.980  49.854  79.135  1.00 20.93     0.026 A 
ENDBRANCH   1  10
TORSDOF 2
ENDMDL
MODEL 2
REMARK VINA RESULT:      -7.9      9.370     12.401
REMARK  2 active torsions:
REMARK  status: ('A' for Active; 'I' for Inactive)
REMARK    1  A    between atoms: C5_4  and  O7_13 
REMARK    2  A    between atoms: C8_10  and  O7_13 
ROOT
HETATM    1  O7    D T 601      31.502  61.597  84.902  1.00 22.91    -0.304 OA
ENDROOT
BRANCH   1   2
HETATM    2  C5    D T 601      31.345  60.230  85.139  1.00 20.74     0.121 A 
HETATM    3  C6    D T 601      30.272  59.768  85.924  1.00 18.69     0.136 A 
HETATM    4  C1    D T 601      30.106  58.342  86.166  1.00 19.14     0.094 A 
HETATM    5  O17   D T 601      29.410  60.689  86.439  1.00 19.23    -0.192 OA
HETATM    6  C2    D T 601      31.040  57.411  85.604  1.00 17.42     0.042 A 
HETATM    7  C3    D T 601      32.122  57.894  84.815  1.00 18.45     0.010 A 
HETATM    8 CL14   D T 601      30.874  55.749  85.863  1.00  7.86    -0.087 Cl
HETATM    9  C4    D T 601      32.273  59.306  84.578  1.00 18.04     0.027 A 
ENDBRANCH   1   2
BRANCH   1  10
HETATM   10  C8    D T 601      31.256  62.156  83.629  1.00 22.66     0.111 A 
HETATM   11  C9    D T 601      32.031  63.319  83.246  1.00 21.19     0.081 A 
HETATM   12  C10   D T 601      31.794  63.929  81.975  1.00 21.37     0.025 A 
HETATM   13 CL16   D T 601      33.231  64.008  84.310  1.00 20.16    -0.080 Cl
HETATM   14  C11   D T 601      30.797  63.387  81.079  1.00 19.62     0.059 A 
HETATM   15  C12   D T 601      30.038  62.231  81.453  1.00 21.14     0.013 A 
HETATM   16 CL15   D T 601      30.516  64.123  79.578  1.00 11.58    -0.082 Cl
HETATM   17  C13   D T 601      30.260  61.620  82.713  1.00 20.93     0.026 A 
ENDBRANCH   1  10
TORSDOF 2
ENDMDL
MODEL 3
REMARK VINA RESULT:      -7.9      1.141      5.883
REMARK  2 active torsions:
REMARK  status: ('A' for Active; 'I' for Inactive)
REMARK    1  A    between atoms: C5_4  and  O7_13 
REMARK    2  A    between atoms: C8_10  and  O7_13 
ROOT
HETATM    1  O7    D T 601      35.435  51.267  80.165  1.00 22.91    -0.304 OA
ENDROOT
BRANCH   1   2
HETATM    2  C5    D T 601      35.021  49.950  79.959  1.00 20.74     0.121 A 
HETATM    3  C6    D T 601      35.640  48.897  80.657  1.00 18.69     0.136 A 
HETATM    4  C1    D T 601      35.204  47.524  80.445  1.00 19.14     0.094 A 
HETATM    5  O17   D T 601      36.646  49.206  81.523  1.00 19.23    -0.192 OA
HETATM    6  C2    D T 601      34.142  47.249  79.522  1.00 17.42     0.042 A 
HETATM    7  C3    D T 601      33.527  48.324  78.821  1.00 18.45     0.010 A 
HETATM    8 CL14   D T 601      33.610  45.667  79.256  1.00  7.86    -0.087 Cl
HETATM    9  C4    D T 601      33.964  49.678  79.042  1.00 18.04     0.027 A 
ENDBRANCH   1   2
BRANCH   1  10
HETATM   10  C8    D T 601      35.152  51.948  81.369  1.00 22.66     0.111 A 
HETATM   11  C9    D T 601      36.244  52.649  82.015  1.00 21.19     0.081 A 
HETATM   12  C10   D T 601      36.003  53.330  83.249  1.00 21.37     0.025 A 
HETATM   13 CL16   D T 601      37.850  52.663  81.335  1.00 20.16    -0.080 Cl
HETATM   14  C11   D T 601      34.684  53.324  83.842  1.00 19.62     0.059 A 
HETATM   15  C12   D T 601      33.603  52.639  83.199  1.00 21.14     0.013 A 
HETATM   16 CL15   D T 601      34.412  54.125  85.311  1.00 11.58    -0.082 Cl
HETATM   17  C13   D T 601      33.830  51.955  81.978  1.00 20.93     0.026 A 
ENDBRANCH   1  10
TORSDOF 2
ENDMDL
MODEL 4
REMARK VINA RESULT:      -7.7      9.431     12.008
REMARK  2 active torsions:
REMARK  status: ('A' for Active; 'I' for Inactive)
REMARK    1  A    between atoms: C5_4  and  O7_13 
REMARK    2  A    between atoms: C8_10  and  O7_13 
ROOT
HETATM    1  O7    D T 601      31.521  61.715  84.807  1.00 22.91    -0.304 OA
ENDROOT
BRANCH   1   2
HETATM    2  C5    D T 601      31.302  62.294  83.556  1.00 20.74     0.121 A 
HETATM    3  C6    D T 601      32.086  63.384  83.135  1.00 18.69     0.136 A 
HETATM    4  C1    D T 601      31.861  63.985  81.828  1.00 19.14     0.094 A 
HETATM    5  O17   D T 601      33.048  63.848  83.983  1.00 19.23    -0.192 OA
HETATM    6  C2    D T 601      30.837  63.463  80.972  1.00 17.42     0.042 A 
HETATM    7  C3    D T 601      30.049  62.362  81.413  1.00 18.45     0.010 A 
HETATM    8 CL14   D T 601      30.552  64.134  79.448  1.00  7.86    -0.087 Cl
HETATM    9  C4    D T 601      30.284  61.773  82.706  1.00 18.04     0.027 A 
ENDBRANCH   1   2
BRANCH   1  10
HETATM   10  C8    D T 601      31.351  60.329  85.016  1.00 22.66     0.111 A 
HETATM   11  C9    D T 601      30.207  59.903  85.796  1.00 21.19     0.081 A 
HETATM   12  C10   D T 601      30.014  58.510  86.050  1.00 21.37     0.025 A 
HETATM   13 CL16   D T 601      29.070  61.053  86.453  1.00 20.16    -0.080 Cl
HETATM   14  C11   D T 601      30.947  57.536  85.529  1.00 19.62     0.059 A 
HETATM   15  C12   D T 601      32.073  57.955  84.749  1.00 21.14     0.013 A 
HETATM   16 CL15   D T 601      30.716  55.886  85.844  1.00 11.58    -0.082 Cl
HETATM   17  C13   D T 601      32.278  59.335  84.494  1.00 20.93     0.026 A 
ENDBRANCH   1  10
TORSDOF 2
ENDMDL
MODEL 5
REMARK VINA RESULT:      -7.6      1.491      1.922
REMARK  2 active torsions:
REMARK  status: ('A' for Active; 'I' for Inactive)
REMARK    1  A    between atoms: C5_4  and  O7_13 
REMARK    2  A    between atoms: C8_10  and  O7_13 
ROOT
HETATM    1  O7    D T 601      35.482  52.007  80.515  1.00 22.91    -0.304 OA
ENDROOT
BRANCH   1   2
HETATM    2  C5    D T 601      35.258  52.599  81.759  1.00 20.74     0.121 A 
HETATM    3  C6    D T 601      36.236  53.432  82.332  1.00 18.69     0.136 A 
HETATM    4  C1    D T 601      36.000  54.053  83.627  1.00 19.14     0.094 A 
HETATM    5  O17   D T 601      37.395  53.630  81.641  1.00 19.23    -0.192 OA
HETATM    6  C2    D T 601      34.766  53.813  84.317  1.00 17.42     0.042 A 
HETATM    7  C3    D T 601      33.786  52.966  83.726  1.00 18.45     0.010 A 
HETATM    8 CL14   D T 601      34.458  54.523  85.819  1.00  7.86    -0.087 Cl
HETATM    9  C4    D T 601      34.030  52.360  82.442  1.00 18.04     0.027 A 
ENDBRANCH   1   2
BRANCH   1  10
HETATM   10  C8    D T 601      35.150  50.656  80.273  1.00 22.66     0.111 A 
HETATM   11  C9    D T 601      33.964  50.388  79.484  1.00 21.19     0.081 A 
HETATM   12  C10   D T 601      33.582  49.033  79.237  1.00 21.37     0.025 A 
HETATM   13 CL16   D T 601      32.978  51.680  78.848  1.00 20.16    -0.080 Cl
HETATM   14  C11   D T 601      34.373  47.942  79.763  1.00 19.62     0.059 A 
HETATM   15  C12   D T 601      35.551  48.207  80.534  1.00 21.14     0.013 A 
HETATM   16 CL15   D T 601      33.905  46.339  79.474  1.00 11.58    -0.082 Cl
HETATM   17  C13   D T 601      35.938  49.547  80.791  1.00 20.93     0.026 A 
ENDBRANCH   1  10
TORSDOF 2
ENDMDL
MODEL 6
REMARK VINA RESULT:      -7.2      2.200      2.531
REMARK  2 active torsions:
REMARK  status: ('A' for Active; 'I' for Inactive)
REMARK    1  A    between atoms: C5_4  and  O7_13 
REMARK    2  A    between atoms: C8_10  and  O7_13 
ROOT
HETATM    1  O7    D T 601      35.610  51.960  82.796  1.00 22.91    -0.304 OA
ENDROOT
BRANCH   1   2
HETATM    2  C5    D T 601      34.989  53.201  82.947  1.00 20.74     0.121 A 
HETATM    3  C6    D T 601      35.561  54.352  82.376  1.00 18.69     0.136 A 
HETATM    4  C1    D T 601      34.911  55.645  82.530  1.00 19.14     0.094 A 
HETATM    5  O17   D T 601      36.728  54.212  81.684  1.00 19.23    -0.192 OA
HETATM    6  C2    D T 601      33.686  55.742  83.268  1.00 17.42     0.042 A 
HETATM    7  C3    D T 601      33.120  54.569  83.844  1.00 18.45     0.010 A 
HETATM    8 CL14   D T 601      32.903  57.227  83.463  1.00  7.86    -0.087 Cl
HETATM    9  C4    D T 601      33.771  53.295  83.681  1.00 18.04     0.027 A 
ENDBRANCH   1   2
BRANCH   1  10
HETATM   10  C8    D T 601      35.215  51.058  81.784  1.00 22.66     0.111 A 
HETATM   11  C9    D T 601      34.236  50.047  82.131  1.00 21.19     0.081 A 
HETATM   12  C10   D T 601      33.828  49.100  81.141  1.00 21.37     0.025 A 
HETATM   13 CL16   D T 601      33.559  49.943  83.736  1.00 20.16    -0.080 Cl
HETATM   14  C11   D T 601      34.382  49.155  79.806  1.00 19.62     0.059 A 
HETATM   15  C12   D T 601      35.342  50.160  79.460  1.00 21.14     0.013 A 
HETATM   16 CL15   D T 601      33.900  48.021  78.641  1.00 11.58    -0.082 Cl
HETATM   17  C13   D T 601      35.759  51.102  80.435  1.00 20.93     0.026 A 
ENDBRANCH   1  10
TORSDOF 2
ENDMDL
MODEL 7
REMARK VINA RESULT:      -7.2      2.544      3.121
REMARK  2 active torsions:
REMARK  status: ('A' for Active; 'I' for Inactive)
REMARK    1  A    between atoms: C5_4  and  O7_13 
REMARK    2  A    between atoms: C8_10  and  O7_13 
ROOT
HETATM    1  O7    D T 601      35.266  52.193  83.253  1.00 22.91    -0.304 OA
ENDROOT
BRANCH   1   2
HETATM    2  C5    D T 601      34.628  53.432  83.332  1.00 20.74     0.121 A 
HETATM    3  C6    D T 601      33.738  53.702  84.388  1.00 18.69     0.136 A 
HETATM    4  C1    D T 601      33.077  54.996  84.472  1.00 19.14     0.094 A 
HETATM    5  O17   D T 601      33.523  52.724  85.312  1.00 19.23    -0.192 OA
HETATM    6  C2    D T 601      33.334  55.994  83.475  1.00 17.42     0.042 A 
HETATM    7  C3    D T 601      34.234  55.704  82.411  1.00 18.45     0.010 A 
HETATM    8 CL14   D T 601      32.586  57.507  83.546  1.00  7.86    -0.087 Cl
HETATM    9  C4    D T 601      34.886  54.422  82.340  1.00 18.04     0.027 A 
ENDBRANCH   1   2
BRANCH   1  10
HETATM   10  C8    D T 601      34.976  51.280  82.215  1.00 22.66     0.111 A 
HETATM   11  C9    D T 601      36.092  50.750  81.457  1.00 21.19     0.081 A 
HETATM   12  C10   D T 601      35.837  49.842  80.383  1.00 21.37     0.025 A 
HETATM   13 CL16   D T 601      37.737  51.211  81.810  1.00 20.16    -0.080 Cl
HETATM   14  C11   D T 601      34.482  49.453  80.060  1.00 19.62     0.059 A 
HETATM   15  C12   D T 601      33.380  49.969  80.815  1.00 21.14     0.013 A 
HETATM   16 CL15   D T 601      34.190  48.384  78.778  1.00 11.58    -0.082 Cl
HETATM   17  C13   D T 601      33.619  50.875  81.880  1.00 20.93     0.026 A 
ENDBRANCH   1  10
TORSDOF 2
ENDMDL
MODEL 8
REMARK VINA RESULT:      -7.1      9.113     12.278
REMARK  2 active torsions:
REMARK  status: ('A' for Active; 'I' for Inactive)
REMARK    1  A    between atoms: C5_4  and  O7_13 
REMARK    2  A    between atoms: C8_10  and  O7_13 
ROOT
HETATM    1  O7    D T 601      29.904  61.132  84.197  1.00 22.91    -0.304 OA
ENDROOT
BRANCH   1   2
HETATM    2  C5    D T 601      30.312  59.815  84.414  1.00 20.74     0.121 A 
HETATM    3  C6    D T 601      29.377  58.766  84.351  1.00 18.69     0.136 A 
HETATM    4  C1    D T 601      29.805  57.392  84.572  1.00 19.14     0.094 A 
HETATM    5  O17   D T 601      28.079  59.079  84.079  1.00 19.23    -0.192 OA
HETATM    6  C2    D T 601      31.182  57.112  84.856  1.00 17.42     0.042 A 
HETATM    7  C3    D T 601      32.116  58.185  84.920  1.00 18.45     0.010 A 
HETATM    8 CL14   D T 601      31.712  55.529  85.115  1.00  7.86    -0.087 Cl
HETATM    9  C4    D T 601      31.682  59.539  84.695  1.00 18.04     0.027 A 
ENDBRANCH   1   2
BRANCH   1  10
HETATM   10  C8    D T 601      30.593  61.978  83.301  1.00 22.66     0.111 A 
HETATM   11  C9    D T 601      30.169  61.977  81.915  1.00 21.19     0.081 A 
HETATM   12  C10   D T 601      30.858  62.803  80.974  1.00 21.37     0.025 A 
HETATM   13 CL16   D T 601      28.852  60.975  81.364  1.00 20.16    -0.080 Cl
HETATM   14  C11   D T 601      31.962  63.634  81.400  1.00 19.62     0.059 A 
HETATM   15  C12   D T 601      32.375  63.643  82.772  1.00 21.14     0.013 A 
HETATM   16 CL15   D T 601      32.780  64.601  80.274  1.00 11.58    -0.082 Cl
HETATM   17  C13   D T 601      31.703  62.825  83.715  1.00 20.93     0.026 A 
ENDBRANCH   1  10
TORSDOF 2
ENDMDL
MODEL 9
REMARK VINA RESULT:      -7.1      2.259      3.027
REMARK  2 active torsions:
REMARK  status: ('A' for Active; 'I' for Inactive)
REMARK    1  A    between atoms: C5_4  and  O7_13 
REMARK    2  A    between atoms: C8_10  and  O7_13 
ROOT
HETATM    1  O7    D T 601      35.354  54.044  81.126  1.00 22.91    -0.304 OA
ENDROOT
BRANCH   1   2
HETATM    2  C5    D T 601      35.009  54.400  82.431  1.00 20.74     0.121 A 
HETATM    3  C6    D T 601      33.894  55.224  82.668  1.00 18.69     0.136 A 
HETATM    4  C1    D T 601      33.532  55.590  84.030  1.00 19.14     0.094 A 
HETATM    5  O17   D T 601      33.177  55.659  81.592  1.00 19.23    -0.192 OA
HETATM    6  C2    D T 601      34.317  55.110  85.128  1.00 17.42     0.042 A 
HETATM    7  C3    D T 601      35.445  54.279  84.873  1.00 18.45     0.010 A 
HETATM    8 CL14   D T 601      33.922  55.513  86.721  1.00  7.86    -0.087 Cl
HETATM    9  C4    D T 601      35.790  53.920  83.522  1.00 18.04     0.027 A 
ENDBRANCH   1   2
BRANCH   1  10
HETATM   10  C8    D T 601      35.078  52.757  80.617  1.00 22.66     0.111 A 
HETATM   11  C9    D T 601      36.193  51.847  80.451  1.00 21.19     0.081 A 
HETATM   12  C10   D T 601      35.957  50.543  79.916  1.00 21.37     0.025 A 
HETATM   13 CL16   D T 601      37.822  52.313  80.869  1.00 20.16    -0.080 Cl
HETATM   14  C11   D T 601      34.619  50.134  79.549  1.00 19.62     0.059 A 
HETATM   15  C12   D T 601      33.515  51.030  79.721  1.00 21.14     0.013 A 
HETATM   16 CL15   D T 601      34.351  48.589  78.904  1.00 11.58    -0.082 Cl
HETATM   17  C13   D T 601      33.736  52.328  80.247  1.00 20.93     0.026 A 
ENDBRANCH   1  10
TORSDOF 2
ENDMDL
