MODEL 1
REMARK VINA RESULT:    -7.631      0.000      0.000
REMARK INTER + INTRA:          -9.036
REMARK INTER:                  -8.523
REMARK INTRA:                  -0.513
REMARK UNBOUND:                -0.513
REMARK  2 active torsions:
REMARK  status: ('A' for Active; 'I' for Inactive)
REMARK    1  A    between atoms: C5_4  and  O7_13 
REMARK    2  A    between atoms: C8_10  and  O7_13 
ROOT
HETATM    1  O7    D T 601       6.940   1.222  -6.817  1.00 22.91    -0.304 OA
ENDROOT
BRANCH   1   2
HETATM    2  C5    D T 601       7.165   1.430  -8.179  1.00 20.74     0.121 A 
HETATM    3  C6    D T 601       8.354   2.045  -8.612  1.00 18.69     0.136 A 
HETATM    4  C1    D T 601       8.591   2.257 -10.033  1.00 19.14     0.094 A 
HETATM    5  O17   D T 601       9.260   2.429  -7.668  1.00 19.23    -0.192 OA
HETATM    6  C2    D T 601       7.608   1.838 -10.988  1.00 17.42     0.042 A 
HETATM    7  C3    D T 601       6.408   1.219 -10.534  1.00 18.45     0.010 A 
HETATM    8 CL14   D T 601       7.854   2.065 -12.644  1.00  7.86    -0.087 Cl
HETATM    9  C4    D T 601       6.188   1.011  -9.128  1.00 18.04     0.027 A 
ENDBRANCH   1   2
BRANCH   1  10
HETATM   10  C8    D T 601       5.954   1.948  -6.115  1.00 22.66     0.111 A 
HETATM   11  C9    D T 601       4.766   1.233  -5.695  1.00 21.19     0.081 A 
HETATM   12  C10   D T 601       3.733   1.939  -5.002  1.00 21.37     0.025 A 
HETATM   13 CL16   D T 601       4.554  -0.467  -6.035  1.00 20.16    -0.080 Cl
HETATM   14  C11   D T 601       3.876   3.350  -4.720  1.00 19.62     0.059 A 
HETATM   15  C12   D T 601       5.055   4.054  -5.125  1.00 21.14     0.013 A 
HETATM   16 CL15   D T 601       2.641   4.181  -3.907  1.00 11.58    -0.082 Cl
HETATM   17  C13   D T 601       6.085   3.367  -5.818  1.00 20.93     0.026 A 
ENDBRANCH   1  10
TORSDOF 2
ENDMDL
MODEL 2
REMARK VINA RESULT:    -7.582      1.540      6.223
REMARK INTER + INTRA:          -8.982
REMARK INTER:                  -8.474
REMARK INTRA:                  -0.507
REMARK UNBOUND:                -0.513
REMARK  2 active torsions:
REMARK  status: ('A' for Active; 'I' for Inactive)
REMARK    1  A    between atoms: C5_4  and  O7_13 
REMARK    2  A    between atoms: C8_10  and  O7_13 
ROOT
HETATM    1  O7    D T 601       6.752   1.112  -6.810  1.00 22.91    -0.304 OA
ENDROOT
BRANCH   1   2
HETATM    2  C5    D T 601       5.790   1.853  -6.121  1.00 20.74     0.121 A 
HETATM    3  C6    D T 601       4.658   1.214  -5.582  1.00 18.69     0.136 A 
HETATM    4  C1    D T 601       3.658   1.986  -4.860  1.00 19.14     0.094 A 
HETATM    5  O17   D T 601       4.535  -0.132  -5.759  1.00 19.23    -0.192 OA
HETATM    6  C2    D T 601       3.829   3.400  -4.701  1.00 17.42     0.042 A 
HETATM    7  C3    D T 601       4.978   4.034  -5.254  1.00 18.45     0.010 A 
HETATM    8 CL14   D T 601       2.689   4.325  -3.864  1.00  7.86    -0.087 Cl
HETATM    9  C4    D T 601       5.963   3.259  -5.962  1.00 18.04     0.027 A 
ENDBRANCH   1   2
BRANCH   1  10
HETATM   10  C8    D T 601       6.991   1.315  -8.186  1.00 22.66     0.111 A 
HETATM   11  C9    D T 601       8.248   1.927  -8.566  1.00 21.19     0.081 A 
HETATM   12  C10   D T 601       8.516   2.171  -9.949  1.00 21.37     0.025 A 
HETATM   13 CL16   D T 601       9.433   2.396  -7.373  1.00 20.16    -0.080 Cl
HETATM   14  C11   D T 601       7.546   1.805 -10.957  1.00 19.62     0.059 A 
HETATM   15  C12   D T 601       6.308   1.190 -10.583  1.00 21.14     0.013 A 
HETATM   16 CL15   D T 601       7.869   2.107 -12.594  1.00 11.58    -0.082 Cl
HETATM   17  C13   D T 601       6.027   0.947  -9.214  1.00 20.93     0.026 A 
ENDBRANCH   1  10
TORSDOF 2
ENDMDL
MODEL 3
REMARK VINA RESULT:    -7.576      1.480      6.121
REMARK INTER + INTRA:          -8.975
REMARK INTER:                  -8.583
REMARK INTRA:                  -0.393
REMARK UNBOUND:                -0.513
REMARK  2 active torsions:
REMARK  status: ('A' for Active; 'I' for Inactive)
REMARK    1  A    between atoms: C5_4  and  O7_13 
REMARK    2  A    between atoms: C8_10  and  O7_13 
ROOT
HETATM    1  O7    D T 601       5.944   0.658  -7.466  1.00 22.91    -0.304 OA
ENDROOT
BRANCH   1   2
HETATM    2  C5    D T 601       5.230   1.529  -6.640  1.00 20.74     0.121 A 
HETATM    3  C6    D T 601       4.161   1.048  -5.862  1.00 18.69     0.136 A 
HETATM    4  C1    D T 601       3.421   1.955  -4.997  1.00 19.14     0.094 A 
HETATM    5  O17   D T 601       3.850  -0.277  -5.947  1.00 19.23    -0.192 OA
HETATM    6  C2    D T 601       3.784   3.340  -4.942  1.00 17.42     0.042 A 
HETATM    7  C3    D T 601       4.866   3.814  -5.738  1.00 18.45     0.010 A 
HETATM    8 CL14   D T 601       2.948   4.419  -3.946  1.00  7.86    -0.087 Cl
HETATM    9  C4    D T 601       5.593   2.906  -6.585  1.00 18.04     0.027 A 
ENDBRANCH   1   2
BRANCH   1  10
HETATM   10  C8    D T 601       6.424   1.069  -8.728  1.00 22.66     0.111 A 
HETATM   11  C9    D T 601       5.470   1.149  -9.815  1.00 21.19     0.081 A 
HETATM   12  C10   D T 601       5.922   1.539 -11.114  1.00 21.37     0.025 A 
HETATM   13 CL16   D T 601       3.784   0.761  -9.582  1.00 20.16    -0.080 Cl
HETATM   14  C11   D T 601       7.316   1.853 -11.339  1.00 19.62     0.059 A 
HETATM   15  C12   D T 601       8.257   1.783 -10.262  1.00 21.14     0.013 A 
HETATM   16 CL15   D T 601       7.845   2.304 -12.886  1.00 11.58    -0.082 Cl
HETATM   17  C13   D T 601       7.823   1.393  -8.969  1.00 20.93     0.026 A 
ENDBRANCH   1  10
TORSDOF 2
ENDMDL
MODEL 4
REMARK VINA RESULT:    -7.358      2.324      6.177
REMARK INTER + INTRA:          -8.732
REMARK INTER:                  -8.348
REMARK INTRA:                  -0.384
REMARK UNBOUND:                -0.513
REMARK  2 active torsions:
REMARK  status: ('A' for Active; 'I' for Inactive)
REMARK    1  A    between atoms: C5_4  and  O7_13 
REMARK    2  A    between atoms: C8_10  and  O7_13 
ROOT
HETATM    1  O7    D T 601       5.126   3.746  -7.189  1.00 22.91    -0.304 OA
ENDROOT
BRANCH   1   2
HETATM    2  C5    D T 601       4.697   2.917  -6.150  1.00 20.74     0.121 A 
HETATM    3  C6    D T 601       4.750   3.367  -4.819  1.00 18.69     0.136 A 
HETATM    4  C1    D T 601       4.298   2.505  -3.737  1.00 19.14     0.094 A 
HETATM    5  O17   D T 601       5.233   4.621  -4.583  1.00 19.23    -0.192 OA
HETATM    6  C2    D T 601       3.799   1.195  -4.033  1.00 17.42     0.042 A 
HETATM    7  C3    D T 601       3.754   0.751  -5.386  1.00 18.45     0.010 A 
HETATM    8 CL14   D T 601       3.262   0.170  -2.801  1.00  7.86    -0.087 Cl
HETATM    9  C4    D T 601       4.200   1.615  -6.447  1.00 18.04     0.027 A 
ENDBRANCH   1   2
BRANCH   1  10
HETATM   10  C8    D T 601       5.795   3.225  -8.318  1.00 22.66     0.111 A 
HETATM   11  C9    D T 601       7.186   2.852  -8.161  1.00 21.19     0.081 A 
HETATM   12  C10   D T 601       7.904   2.342  -9.288  1.00 21.37     0.025 A 
HETATM   13 CL16   D T 601       8.014   3.030  -6.634  1.00 20.16    -0.080 Cl
HETATM   14  C11   D T 601       7.247   2.197 -10.567  1.00 19.62     0.059 A 
HETATM   15  C12   D T 601       5.869   2.556 -10.720  1.00 21.14     0.013 A 
HETATM   16 CL15   D T 601       8.110   1.602 -11.900  1.00 11.58    -0.082 Cl
HETATM   17  C13   D T 601       5.146   3.067  -9.612  1.00 20.93     0.026 A 
ENDBRANCH   1  10
TORSDOF 2
ENDMDL
MODEL 5
REMARK VINA RESULT:    -7.243      1.692      2.580
REMARK INTER + INTRA:          -8.603
REMARK INTER:                  -8.382
REMARK INTRA:                  -0.221
REMARK UNBOUND:                -0.513
REMARK  2 active torsions:
REMARK  status: ('A' for Active; 'I' for Inactive)
REMARK    1  A    between atoms: C5_4  and  O7_13 
REMARK    2  A    between atoms: C8_10  and  O7_13 
ROOT
HETATM    1  O7    D T 601       5.103   3.564  -7.233  1.00 22.91    -0.304 OA
ENDROOT
BRANCH   1   2
HETATM    2  C5    D T 601       5.823   3.124  -8.345  1.00 20.74     0.121 A 
HETATM    3  C6    D T 601       7.213   2.925  -8.252  1.00 18.69     0.136 A 
HETATM    4  C1    D T 601       7.963   2.460  -9.410  1.00 19.14     0.094 A 
HETATM    5  O17   D T 601       7.820   3.180  -7.058  1.00 19.23    -0.192 OA
HETATM    6  C2    D T 601       7.281   2.208 -10.645  1.00 17.42     0.042 A 
HETATM    7  C3    D T 601       5.875   2.416 -10.725  1.00 18.45     0.010 A 
HETATM    8 CL14   D T 601       8.122   1.664 -12.006  1.00  7.86    -0.087 Cl
HETATM    9  C4    D T 601       5.144   2.871  -9.572  1.00 18.04     0.027 A 
ENDBRANCH   1   2
BRANCH   1  10
HETATM   10  C8    D T 601       4.686   2.670  -6.224  1.00 22.66     0.111 A 
HETATM   11  C9    D T 601       4.057   3.233  -5.046  1.00 21.19     0.081 A 
HETATM   12  C10   D T 601       3.642   2.361  -3.992  1.00 21.37     0.025 A 
HETATM   13 CL16   D T 601       3.811   4.952  -4.875  1.00 20.16    -0.080 Cl
HETATM   14  C11   D T 601       3.845   0.933  -4.101  1.00 19.62     0.059 A 
HETATM   15  C12   D T 601       4.459   0.376  -5.269  1.00 21.14     0.013 A 
HETATM   16 CL15   D T 601       3.361  -0.091  -2.840  1.00 11.58    -0.082 Cl
HETATM   17  C13   D T 601       4.879   1.230  -6.321  1.00 20.93     0.026 A 
ENDBRANCH   1  10
TORSDOF 2
ENDMDL
MODEL 6
REMARK VINA RESULT:    -7.173      2.014      2.209
REMARK INTER + INTRA:          -8.525
REMARK INTER:                  -8.034
REMARK INTRA:                  -0.491
REMARK UNBOUND:                -0.513
REMARK  2 active torsions:
REMARK  status: ('A' for Active; 'I' for Inactive)
REMARK    1  A    between atoms: C5_4  and  O7_13 
REMARK    2  A    between atoms: C8_10  and  O7_13 
ROOT
HETATM    1  O7    D T 601       4.277   2.095  -7.362  1.00 22.91    -0.304 OA
ENDROOT
BRANCH   1   2
HETATM    2  C5    D T 601       5.254   1.905  -8.340  1.00 20.74     0.121 A 
HETATM    3  C6    D T 601       5.529   2.923  -9.271  1.00 18.69     0.136 A 
HETATM    4  C1    D T 601       6.552   2.726 -10.288  1.00 19.14     0.094 A 
HETATM    5  O17   D T 601       4.814   4.081  -9.187  1.00 19.23    -0.192 OA
HETATM    6  C2    D T 601       7.276   1.490 -10.338  1.00 17.42     0.042 A 
HETATM    7  C3    D T 601       6.985   0.467  -9.391  1.00 18.45     0.010 A 
HETATM    8 CL14   D T 601       8.472   1.231 -11.504  1.00  7.86    -0.087 Cl
HETATM    9  C4    D T 601       5.975   0.676  -8.388  1.00 18.04     0.027 A 
ENDBRANCH   1   2
BRANCH   1  10
HETATM   10  C8    D T 601       4.619   2.456  -6.040  1.00 22.66     0.111 A 
HETATM   11  C9    D T 601       4.569   1.420  -5.028  1.00 21.19     0.081 A 
HETATM   12  C10   D T 601       4.886   1.750  -3.674  1.00 21.37     0.025 A 
HETATM   13 CL16   D T 601       4.110  -0.219  -5.419  1.00 20.16    -0.080 Cl
HETATM   14  C11   D T 601       5.256   3.102  -3.319  1.00 19.62     0.059 A 
HETATM   15  C12   D T 601       5.315   4.124  -4.321  1.00 21.14     0.013 A 
HETATM   16 CL15   D T 601       5.619   3.487  -1.708  1.00 11.58    -0.082 Cl
HETATM   17  C13   D T 601       4.998   3.811  -5.668  1.00 20.93     0.026 A 
ENDBRANCH   1  10
TORSDOF 2
ENDMDL
MODEL 7
REMARK VINA RESULT:    -7.063      3.374      4.626
REMARK INTER + INTRA:          -8.403
REMARK INTER:                  -8.365
REMARK INTRA:                  -0.038
REMARK UNBOUND:                -0.513
REMARK  2 active torsions:
REMARK  status: ('A' for Active; 'I' for Inactive)
REMARK    1  A    between atoms: C5_4  and  O7_13 
REMARK    2  A    between atoms: C8_10  and  O7_13 
ROOT
HETATM    1  O7    D T 601       7.649   1.693  -6.658  1.00 22.91    -0.304 OA
ENDROOT
BRANCH   1   2
HETATM    2  C5    D T 601       7.715   1.721  -8.052  1.00 20.74     0.121 A 
HETATM    3  C6    D T 601       6.875   0.890  -8.816  1.00 18.69     0.136 A 
HETATM    4  C1    D T 601       6.940   0.923 -10.269  1.00 19.14     0.094 A 
HETATM    5  O17   D T 601       6.012   0.066  -8.154  1.00 19.23    -0.192 OA
HETATM    6  C2    D T 601       7.864   1.804 -10.920  1.00 17.42     0.042 A 
HETATM    7  C3    D T 601       8.710   2.638 -10.135  1.00 18.45     0.010 A 
HETATM    8 CL14   D T 601       7.961   1.870 -12.606  1.00  7.86    -0.087 Cl
HETATM    9  C4    D T 601       8.633   2.599  -8.698  1.00 18.04     0.027 A 
ENDBRANCH   1   2
BRANCH   1  10
HETATM   10  C8    D T 601       8.792   1.427  -5.873  1.00 22.66     0.111 A 
HETATM   11  C9    D T 601       8.695   1.666  -4.447  1.00 21.19     0.081 A 
HETATM   12  C10   D T 601       9.839   1.431  -3.620  1.00 21.37     0.025 A 
HETATM   13 CL16   D T 601       7.224   2.254  -3.715  1.00 20.16    -0.080 Cl
HETATM   14  C11   D T 601      11.075   0.956  -4.202  1.00 19.62     0.059 A 
HETATM   15  C12   D T 601      11.167   0.711  -5.610  1.00 21.14     0.013 A 
HETATM   16 CL15   D T 601      12.428   0.691  -3.215  1.00 11.58    -0.082 Cl
HETATM   17  C13   D T 601      10.042   0.944  -6.441  1.00 20.93     0.026 A 
ENDBRANCH   1  10
TORSDOF 2
ENDMDL
MODEL 8
REMARK VINA RESULT:    -6.892      2.568      6.334
REMARK INTER + INTRA:          -8.211
REMARK INTER:                  -7.898
REMARK INTRA:                  -0.313
REMARK UNBOUND:                -0.513
REMARK  2 active torsions:
REMARK  status: ('A' for Active; 'I' for Inactive)
REMARK    1  A    between atoms: C5_4  and  O7_13 
REMARK    2  A    between atoms: C8_10  and  O7_13 
ROOT
HETATM    1  O7    D T 601       3.747   2.342  -5.450  1.00 22.91    -0.304 OA
ENDROOT
BRANCH   1   2
HETATM    2  C5    D T 601       4.087   3.338  -4.533  1.00 20.74     0.121 A 
HETATM    3  C6    D T 601       4.745   3.000  -3.336  1.00 18.69     0.136 A 
HETATM    4  C1    D T 601       5.104   4.038  -2.382  1.00 19.14     0.094 A 
HETATM    5  O17   D T 601       5.027   1.685  -3.106  1.00 19.23    -0.192 OA
HETATM    6  C2    D T 601       4.785   5.407  -2.665  1.00 17.42     0.042 A 
HETATM    7  C3    D T 601       4.117   5.733  -3.880  1.00 18.45     0.010 A 
HETATM    8 CL14   D T 601       5.192   6.637  -1.581  1.00  7.86    -0.087 Cl
HETATM    9  C4    D T 601       3.771   4.698  -4.817  1.00 18.04     0.027 A 
ENDBRANCH   1   2
BRANCH   1  10
HETATM   10  C8    D T 601       4.585   2.030  -6.543  1.00 22.66     0.111 A 
HETATM   11  C9    D T 601       4.098   1.065  -7.507  1.00 21.19     0.081 A 
HETATM   12  C10   D T 601       4.927   0.705  -8.615  1.00 21.37     0.025 A 
HETATM   13 CL16   D T 601       2.531   0.314  -7.338  1.00 20.16    -0.080 Cl
HETATM   14  C11   D T 601       6.235   1.301  -8.772  1.00 19.62     0.059 A 
HETATM   15  C12   D T 601       6.712   2.263  -7.824  1.00 21.14     0.013 A 
HETATM   16 CL15   D T 601       7.216   0.860 -10.083  1.00 11.58    -0.082 Cl
HETATM   17  C13   D T 601       5.902   2.625  -6.718  1.00 20.93     0.026 A 
ENDBRANCH   1  10
TORSDOF 2
ENDMDL
MODEL 9
REMARK VINA RESULT:    -6.772      7.451      9.847
REMARK INTER + INTRA:          -8.077
REMARK INTER:                  -7.711
REMARK INTRA:                  -0.366
REMARK UNBOUND:                -0.513
REMARK  2 active torsions:
REMARK  status: ('A' for Active; 'I' for Inactive)
REMARK    1  A    between atoms: C5_4  and  O7_13 
REMARK    2  A    between atoms: C8_10  and  O7_13 
ROOT
HETATM    1  O7    D T 601       5.754   7.116   1.219  1.00 22.91    -0.304 OA
ENDROOT
BRANCH   1   2
HETATM    2  C5    D T 601       5.364   6.796  -0.082  1.00 20.74     0.121 A 
HETATM    3  C6    D T 601       5.120   7.818  -1.018  1.00 18.69     0.136 A 
HETATM    4  C1    D T 601       4.719   7.484  -2.377  1.00 19.14     0.094 A 
HETATM    5  O17   D T 601       5.269   9.111  -0.611  1.00 19.23    -0.192 OA
HETATM    6  C2    D T 601       4.572   6.110  -2.758  1.00 17.42     0.042 A 
HETATM    7  C3    D T 601       4.821   5.086  -1.799  1.00 18.45     0.010 A 
HETATM    8 CL14   D T 601       4.112   5.688  -4.328  1.00  7.86    -0.087 Cl
HETATM    9  C4    D T 601       5.221   5.429  -0.460  1.00 18.04     0.027 A 
ENDBRANCH   1   2
BRANCH   1  10
HETATM   10  C8    D T 601       6.578   6.254   1.974  1.00 22.66     0.111 A 
HETATM   11  C9    D T 601       8.009   6.332   1.754  1.00 21.19     0.081 A 
HETATM   12  C10   D T 601       8.876   5.458   2.482  1.00 21.37     0.025 A 
HETATM   13 CL16   D T 601       8.697   7.451   0.604  1.00 20.16    -0.080 Cl
HETATM   14  C11   D T 601       8.331   4.512   3.430  1.00 19.62     0.059 A 
HETATM   15  C12   D T 601       6.919   4.443   3.655  1.00 21.14     0.013 A 
HETATM   16 CL15   D T 601       9.367   3.473   4.280  1.00 11.58    -0.082 Cl
HETATM   17  C13   D T 601       6.047   5.300   2.936  1.00 20.93     0.026 A 
ENDBRANCH   1  10
TORSDOF 2
ENDMDL
