MODEL 1
REMARK VINA RESULT:    -8.188      0.000      0.000
REMARK INTER + INTRA:          -9.550
REMARK INTER:                  -9.146
REMARK INTRA:                  -0.404
REMARK UNBOUND:                -0.404
REMARK  2 active torsions:
REMARK  status: ('A' for Active; 'I' for Inactive)
REMARK    1  A    between atoms: C5_4  and  O7_13 
REMARK    2  A    between atoms: C8_10  and  O7_13 
ROOT
HETATM    1  O7    D T 601      35.506  51.463  80.216  1.00 22.91    -0.304 OA
ENDROOT
BRANCH   1   2
HETATM    2  C5    D T 601      35.304  52.117  81.432  1.00 20.74     0.121 A 
HETATM    3  C6    D T 601      36.337  52.882  82.004  1.00 18.69     0.136 A 
HETATM    4  C1    D T 601      36.124  53.568  83.270  1.00 19.14     0.094 A 
HETATM    5  O17   D T 601      37.525  52.956  81.338  1.00 19.23    -0.192 OA
HETATM    6  C2    D T 601      34.858  53.460  83.934  1.00 17.42     0.042 A 
HETATM    7  C3    D T 601      33.823  52.679  83.345  1.00 18.45     0.010 A 
HETATM    8 CL14   D T 601      34.577  54.246  85.403  1.00  7.86    -0.087 Cl
HETATM    9  C4    D T 601      34.045  52.009  82.090  1.00 18.04     0.027 A 
ENDBRANCH   1   2
BRANCH   1  10
HETATM   10  C8    D T 601      35.028  50.154  79.996  1.00 22.66     0.111 A 
HETATM   11  C9    D T 601      35.748  49.062  80.620  1.00 21.19     0.081 A 
HETATM   12  C10   D T 601      35.309  47.720  80.401  1.00 21.37     0.025 A 
HETATM   13 CL16   D T 601      37.154  49.346  81.615  1.00 20.16    -0.080 Cl
HETATM   14  C11   D T 601      34.155  47.454  79.571  1.00 19.62     0.059 A 
HETATM   15  C12   D T 601      33.437  48.533  78.961  1.00 21.14     0.013 A 
HETATM   16 CL15   D T 601      33.648  45.858  79.309  1.00 11.58    -0.082 Cl
HETATM   17  C13   D T 601      33.866  49.870  79.166  1.00 20.93     0.026 A 
ENDBRANCH   1  10
TORSDOF 2
ENDMDL
MODEL 2
REMARK VINA RESULT:    -7.833      1.111      5.865
REMARK INTER + INTRA:          -9.152
REMARK INTER:                  -8.857
REMARK INTRA:                  -0.295
REMARK UNBOUND:                -0.404
REMARK  2 active torsions:
REMARK  status: ('A' for Active; 'I' for Inactive)
REMARK    1  A    between atoms: C5_4  and  O7_13 
REMARK    2  A    between atoms: C8_10  and  O7_13 
ROOT
HETATM    1  O7    D T 601      35.323  51.413  80.165  1.00 22.91    -0.304 OA
ENDROOT
BRANCH   1   2
HETATM    2  C5    D T 601      34.942  50.086  79.958  1.00 20.74     0.121 A 
HETATM    3  C6    D T 601      35.670  49.041  80.555  1.00 18.69     0.136 A 
HETATM    4  C1    D T 601      35.270  47.657  80.343  1.00 19.14     0.094 A 
HETATM    5  O17   D T 601      36.746  49.367  81.327  1.00 19.23    -0.192 OA
HETATM    6  C2    D T 601      34.132  47.364  79.522  1.00 17.42     0.042 A 
HETATM    7  C3    D T 601      33.407  48.432  78.922  1.00 18.45     0.010 A 
HETATM    8 CL14   D T 601      33.638  45.769  79.258  1.00  7.86    -0.087 Cl
HETATM    9  C4    D T 601      33.810  49.796  79.143  1.00 18.04     0.027 A 
ENDBRANCH   1   2
BRANCH   1  10
HETATM   10  C8    D T 601      35.078  52.066  81.393  1.00 22.66     0.111 A 
HETATM   11  C9    D T 601      36.197  52.724  82.037  1.00 21.19     0.081 A 
HETATM   12  C10   D T 601      35.994  53.376  83.294  1.00 21.37     0.025 A 
HETATM   13 CL16   D T 601      37.791  52.722  81.327  1.00 20.16    -0.080 Cl
HETATM   14  C11   D T 601      34.686  53.382  83.911  1.00 19.62     0.059 A 
HETATM   15  C12   D T 601      33.579  52.740  83.270  1.00 21.14     0.013 A 
HETATM   16 CL15   D T 601      34.459  54.148  85.406  1.00 11.58    -0.082 Cl
HETATM   17  C13   D T 601      33.767  52.086  82.026  1.00 20.93     0.026 A 
ENDBRANCH   1  10
TORSDOF 2
ENDMDL
MODEL 3
REMARK VINA RESULT:    -7.688      1.140      6.006
REMARK INTER + INTRA:          -8.992
REMARK INTER:                  -8.486
REMARK INTRA:                  -0.505
REMARK UNBOUND:                -0.404
REMARK  2 active torsions:
REMARK  status: ('A' for Active; 'I' for Inactive)
REMARK    1  A    between atoms: C5_4  and  O7_13 
REMARK    2  A    between atoms: C8_10  and  O7_13 
ROOT
HETATM    1  O7    D T 601      35.201  51.915  80.160  1.00 22.91    -0.304 OA
ENDROOT
BRANCH   1   2
HETATM    2  C5    D T 601      34.849  50.577  79.974  1.00 20.74     0.121 A 
HETATM    3  C6    D T 601      33.622  50.246  79.371  1.00 18.69     0.136 A 
HETATM    4  C1    D T 601      33.258  48.850  79.172  1.00 19.14     0.094 A 
HETATM    5  O17   D T 601      32.801  51.264  78.986  1.00 19.23    -0.192 OA
HETATM    6  C2    D T 601      34.154  47.814  79.595  1.00 17.42     0.042 A 
HETATM    7  C3    D T 601      35.391  48.164  80.207  1.00 18.45     0.010 A 
HETATM    8 CL14   D T 601      33.763  46.185  79.376  1.00  7.86    -0.087 Cl
HETATM    9  C4    D T 601      35.741  49.548  80.394  1.00 18.04     0.027 A 
ENDBRANCH   1   2
BRANCH   1  10
HETATM   10  C8    D T 601      35.095  52.535  81.424  1.00 22.66     0.111 A 
HETATM   11  C9    D T 601      36.319  52.763  82.164  1.00 21.19     0.081 A 
HETATM   12  C10   D T 601      36.250  53.367  83.458  1.00 21.37     0.025 A 
HETATM   13 CL16   D T 601      37.874  52.297  81.524  1.00 20.16    -0.080 Cl
HETATM   14  C11   D T 601      34.974  53.751  84.019  1.00 19.62     0.059 A 
HETATM   15  C12   D T 601      33.764  53.535  83.283  1.00 21.14     0.013 A 
HETATM   16 CL15   D T 601      34.902  54.456  85.559  1.00 11.58    -0.082 Cl
HETATM   17  C13   D T 601      33.818  52.932  82.000  1.00 20.93     0.026 A 
ENDBRANCH   1  10
TORSDOF 2
ENDMDL
MODEL 4
REMARK VINA RESULT:    -7.520      2.576      3.130
REMARK INTER + INTRA:          -8.803
REMARK INTER:                  -8.455
REMARK INTRA:                  -0.349
REMARK UNBOUND:                -0.404
REMARK  2 active torsions:
REMARK  status: ('A' for Active; 'I' for Inactive)
REMARK    1  A    between atoms: C5_4  and  O7_13 
REMARK    2  A    between atoms: C8_10  and  O7_13 
ROOT
HETATM    1  O7    D T 601      33.791  51.451  82.798  1.00 22.91    -0.304 OA
ENDROOT
BRANCH   1   2
HETATM    2  C5    D T 601      34.634  52.550  82.622  1.00 20.74     0.121 A 
HETATM    3  C6    D T 601      34.253  53.817  83.101  1.00 18.69     0.136 A 
HETATM    4  C1    D T 601      35.135  54.961  82.922  1.00 19.14     0.094 A 
HETATM    5  O17   D T 601      33.048  53.930  83.729  1.00 19.23    -0.192 OA
HETATM    6  C2    D T 601      36.392  54.793  82.254  1.00 17.42     0.042 A 
HETATM    7  C3    D T 601      36.763  53.506  81.772  1.00 18.45     0.010 A 
HETATM    8 CL14   D T 601      37.440  56.100  82.033  1.00  7.86    -0.087 Cl
HETATM    9  C4    D T 601      35.884  52.381  81.959  1.00 18.04     0.027 A 
ENDBRANCH   1   2
BRANCH   1  10
HETATM   10  C8    D T 601      33.837  50.341  81.927  1.00 22.66     0.111 A 
HETATM   11  C9    D T 601      33.146  50.455  80.658  1.00 21.19     0.081 A 
HETATM   12  C10   D T 601      33.149  49.343  79.759  1.00 21.37     0.025 A 
HETATM   13 CL16   D T 601      32.289  51.908  80.212  1.00 20.16    -0.080 Cl
HETATM   14  C11   D T 601      33.840  48.122  80.110  1.00 19.62     0.059 A 
HETATM   15  C12   D T 601      34.532  48.013  81.359  1.00 21.14     0.013 A 
HETATM   16 CL15   D T 601      33.829  46.806  79.041  1.00 11.58    -0.082 Cl
HETATM   17  C13   D T 601      34.532  49.107  82.262  1.00 20.93     0.026 A 
ENDBRANCH   1  10
TORSDOF 2
ENDMDL
MODEL 5
REMARK VINA RESULT:    -7.390      1.796      2.211
REMARK INTER + INTRA:          -8.658
REMARK INTER:                  -8.204
REMARK INTRA:                  -0.454
REMARK UNBOUND:                -0.404
REMARK  2 active torsions:
REMARK  status: ('A' for Active; 'I' for Inactive)
REMARK    1  A    between atoms: C5_4  and  O7_13 
REMARK    2  A    between atoms: C8_10  and  O7_13 
ROOT
HETATM    1  O7    D T 601      34.963  52.733  80.520  1.00 22.91    -0.304 OA
ENDROOT
BRANCH   1   2
HETATM    2  C5    D T 601      34.869  53.225  81.823  1.00 20.74     0.121 A 
HETATM    3  C6    D T 601      35.978  53.849  82.424  1.00 18.69     0.136 A 
HETATM    4  C1    D T 601      35.878  54.366  83.782  1.00 19.14     0.094 A 
HETATM    5  O17   D T 601      37.128  53.950  81.700  1.00 19.23    -0.192 OA
HETATM    6  C2    D T 601      34.647  54.236  84.504  1.00 17.42     0.042 A 
HETATM    7  C3    D T 601      33.534  53.599  83.884  1.00 18.45     0.010 A 
HETATM    8 CL14   D T 601      34.496  54.829  86.079  1.00  7.86    -0.087 Cl
HETATM    9  C4    D T 601      33.644  53.095  82.540  1.00 18.04     0.027 A 
ENDBRANCH   1   2
BRANCH   1  10
HETATM   10  C8    D T 601      34.771  51.364  80.235  1.00 22.66     0.111 A 
HETATM   11  C9    D T 601      33.495  50.968  79.673  1.00 21.19     0.081 A 
HETATM   12  C10   D T 601      33.253  49.587  79.393  1.00 21.37     0.025 A 
HETATM   13 CL16   D T 601      32.237  52.134  79.353  1.00 20.16    -0.080 Cl
HETATM   14  C11   D T 601      34.273  48.598  79.661  1.00 19.62     0.059 A 
HETATM   15  C12   D T 601      35.538  48.990  80.207  1.00 21.14     0.013 A 
HETATM   16 CL15   D T 601      33.973  46.962  79.335  1.00 11.58    -0.082 Cl
HETATM   17  C13   D T 601      35.789  50.356  80.494  1.00 20.93     0.026 A 
ENDBRANCH   1  10
TORSDOF 2
ENDMDL
MODEL 6
REMARK VINA RESULT:    -7.298      2.125      6.305
REMARK INTER + INTRA:          -8.555
REMARK INTER:                  -8.228
REMARK INTRA:                  -0.328
REMARK UNBOUND:                -0.404
REMARK  2 active torsions:
REMARK  status: ('A' for Active; 'I' for Inactive)
REMARK    1  A    between atoms: C5_4  and  O7_13 
REMARK    2  A    between atoms: C8_10  and  O7_13 
ROOT
HETATM    1  O7    D T 601      33.317  51.685  82.274  1.00 22.91    -0.304 OA
ENDROOT
BRANCH   1   2
HETATM    2  C5    D T 601      33.466  50.483  81.580  1.00 20.74     0.121 A 
HETATM    3  C6    D T 601      32.930  50.342  80.288  1.00 18.69     0.136 A 
HETATM    4  C1    D T 601      33.090  49.089  79.563  1.00 19.14     0.094 A 
HETATM    5  O17   D T 601      32.266  51.403  79.748  1.00 19.23    -0.192 OA
HETATM    6  C2    D T 601      33.795  47.999  80.173  1.00 17.42     0.042 A 
HETATM    7  C3    D T 601      34.329  48.156  81.483  1.00 18.45     0.010 A 
HETATM    8 CL14   D T 601      34.002  46.534  79.358  1.00  7.86    -0.087 Cl
HETATM    9  C4    D T 601      34.168  49.401  82.188  1.00 18.04     0.027 A 
ENDBRANCH   1   2
BRANCH   1  10
HETATM   10  C8    D T 601      34.306  52.691  82.223  1.00 22.66     0.111 A 
HETATM   11  C9    D T 601      34.249  53.739  83.223  1.00 21.19     0.081 A 
HETATM   12  C10   D T 601      35.219  54.789  83.191  1.00 21.37     0.025 A 
HETATM   13 CL16   D T 601      33.011  53.762  84.453  1.00 20.16    -0.080 Cl
HETATM   14  C11   D T 601      36.248  54.802  82.175  1.00 19.62     0.059 A 
HETATM   15  C12   D T 601      36.311  53.762  81.193  1.00 21.14     0.013 A 
HETATM   16 CL15   D T 601      37.387  56.057  82.138  1.00 11.58    -0.082 Cl
HETATM   17  C13   D T 601      35.352  52.717  81.211  1.00 20.93     0.026 A 
ENDBRANCH   1  10
TORSDOF 2
ENDMDL
MODEL 7
REMARK VINA RESULT:    -7.107      1.723      6.252
REMARK INTER + INTRA:          -8.342
REMARK INTER:                  -8.078
REMARK INTRA:                  -0.263
REMARK UNBOUND:                -0.404
REMARK  2 active torsions:
REMARK  status: ('A' for Active; 'I' for Inactive)
REMARK    1  A    between atoms: C5_4  and  O7_13 
REMARK    2  A    between atoms: C8_10  and  O7_13 
ROOT
HETATM    1  O7    D T 601      36.027  52.604  81.793  1.00 22.91    -0.304 OA
ENDROOT
BRANCH   1   2
HETATM    2  C5    D T 601      35.560  51.477  81.115  1.00 20.74     0.121 A 
HETATM    3  C6    D T 601      34.566  51.607  80.127  1.00 18.69     0.136 A 
HETATM    4  C1    D T 601      34.084  50.432  79.417  1.00 19.14     0.094 A 
HETATM    5  O17   D T 601      34.081  52.854  79.865  1.00 19.23    -0.192 OA
HETATM    6  C2    D T 601      34.623  49.141  79.728  1.00 17.42     0.042 A 
HETATM    7  C3    D T 601      35.626  49.024  80.732  1.00 18.45     0.010 A 
HETATM    8 CL14   D T 601      34.088  47.757  78.919  1.00  7.86    -0.087 Cl
HETATM    9  C4    D T 601      36.098  50.194  81.425  1.00 18.04     0.027 A 
ENDBRANCH   1   2
BRANCH   1  10
HETATM   10  C8    D T 601      35.316  53.155  82.881  1.00 22.66     0.111 A 
HETATM   11  C9    D T 601      35.606  54.527  83.246  1.00 21.19     0.081 A 
HETATM   12  C10   D T 601      34.925  55.113  84.358  1.00 21.37     0.025 A 
HETATM   13 CL16   D T 601      36.786  55.474  82.376  1.00 20.16    -0.080 Cl
HETATM   14  C11   D T 601      33.952  54.347  85.105  1.00 19.62     0.059 A 
HETATM   15  C12   D T 601      33.658  52.994  84.738  1.00 21.14     0.013 A 
HETATM   16 CL15   D T 601      33.157  55.048  86.429  1.00 11.58    -0.082 Cl
HETATM   17  C13   D T 601      34.330  52.400  83.641  1.00 20.93     0.026 A 
ENDBRANCH   1  10
TORSDOF 2
ENDMDL
MODEL 8
REMARK VINA RESULT:    -7.061      1.870      2.378
REMARK INTER + INTRA:          -8.291
REMARK INTER:                  -8.000
REMARK INTRA:                  -0.291
REMARK UNBOUND:                -0.404
REMARK  2 active torsions:
REMARK  status: ('A' for Active; 'I' for Inactive)
REMARK    1  A    between atoms: C5_4  and  O7_13 
REMARK    2  A    between atoms: C8_10  and  O7_13 
ROOT
HETATM    1  O7    D T 601      35.355  53.692  81.024  1.00 22.91    -0.304 OA
ENDROOT
BRANCH   1   2
HETATM    2  C5    D T 601      35.006  54.116  82.307  1.00 20.74     0.121 A 
HETATM    3  C6    D T 601      35.793  53.746  83.413  1.00 18.69     0.136 A 
HETATM    4  C1    D T 601      35.430  54.192  84.750  1.00 19.14     0.094 A 
HETATM    5  O17   D T 601      36.888  52.966  83.188  1.00 19.23    -0.192 OA
HETATM    6  C2    D T 601      34.267  55.010  84.936  1.00 17.42     0.042 A 
HETATM    7  C3    D T 601      33.479  55.374  83.808  1.00 18.45     0.010 A 
HETATM    8 CL14   D T 601      33.821  55.549  86.475  1.00  7.86    -0.087 Cl
HETATM    9  C4    D T 601      33.850  54.930  82.490  1.00 18.04     0.027 A 
ENDBRANCH   1   2
BRANCH   1  10
HETATM   10  C8    D T 601      34.961  52.428  80.533  1.00 22.66     0.111 A 
HETATM   11  C9    D T 601      36.005  51.513  80.119  1.00 21.19     0.081 A 
HETATM   12  C10   D T 601      35.645  50.233  79.594  1.00 21.37     0.025 A 
HETATM   13 CL16   D T 601      37.693  51.945  80.225  1.00 20.16    -0.080 Cl
HETATM   14  C11   D T 601      34.254  49.854  79.483  1.00 19.62     0.059 A 
HETATM   15  C12   D T 601      33.221  50.755  79.901  1.00 21.14     0.013 A 
HETATM   16 CL15   D T 601      33.836  48.339  78.849  1.00 11.58    -0.082 Cl
HETATM   17  C13   D T 601      33.565  52.029  80.419  1.00 20.93     0.026 A 
ENDBRANCH   1  10
TORSDOF 2
ENDMDL
MODEL 9
REMARK VINA RESULT:    -6.713      8.621     11.721
REMARK INTER + INTRA:          -7.902
REMARK INTER:                  -7.488
REMARK INTRA:                  -0.414
REMARK UNBOUND:                -0.404
REMARK  2 active torsions:
REMARK  status: ('A' for Active; 'I' for Inactive)
REMARK    1  A    between atoms: C5_4  and  O7_13 
REMARK    2  A    between atoms: C8_10  and  O7_13 
ROOT
HETATM    1  O7    D T 601      30.167  60.236  85.514  1.00 22.91    -0.304 OA
ENDROOT
BRANCH   1   2
HETATM    2  C5    D T 601      30.550  58.894  85.557  1.00 20.74     0.121 A 
HETATM    3  C6    D T 601      29.673  57.925  86.078  1.00 18.69     0.136 A 
HETATM    4  C1    D T 601      30.072  56.525  86.117  1.00 19.14     0.094 A 
HETATM    5  O17   D T 601      28.458  58.339  86.537  1.00 19.23    -0.192 OA
HETATM    6  C2    D T 601      31.361  56.138  85.625  1.00 17.42     0.042 A 
HETATM    7  C3    D T 601      32.239  57.130  85.103  1.00 18.45     0.010 A 
HETATM    8 CL14   D T 601      31.853  54.522  85.653  1.00  7.86    -0.087 Cl
HETATM    9  C4    D T 601      31.832  58.511  85.066  1.00 18.04     0.027 A 
ENDBRANCH   1   2
BRANCH   1  10
HETATM   10  C8    D T 601      30.398  61.031  84.371  1.00 22.66     0.111 A 
HETATM   11  C9    D T 601      29.508  60.857  83.241  1.00 21.19     0.081 A 
HETATM   12  C10   D T 601      29.725  61.627  82.056  1.00 21.37     0.025 A 
HETATM   13 CL16   D T 601      28.192  59.711  83.283  1.00 20.16    -0.080 Cl
HETATM   14  C11   D T 601      30.816  62.574  81.989  1.00 19.62     0.059 A 
HETATM   15  C12   D T 601      31.689  62.754  83.110  1.00 21.14     0.013 A 
HETATM   16 CL15   D T 601      31.071  63.474  80.576  1.00 11.58    -0.082 Cl
HETATM   17  C13   D T 601      31.488  61.992  84.289  1.00 20.93     0.026 A 
ENDBRANCH   1  10
TORSDOF 2
ENDMDL
