MODEL 1
REMARK VINA RESULT:    -8.020      0.000      0.000
REMARK INTER + INTRA:         -12.171
REMARK INTER:                 -11.303
REMARK INTRA:                  -0.869
REMARK UNBOUND:                -0.869
REMARK  7 active torsions:
REMARK  status: ('A' for Active; 'I' for Inactive)
REMARK    1  A    between atoms: N3_2  and  C8_7 
REMARK    2  A    between atoms: C5_4  and  C9_34 
REMARK    3  A    between atoms: C7_6  and  N5_28 
REMARK       I    between atoms: C21_13  and  N6_18 
REMARK    4  A    between atoms: C21_13  and  C18_23 
REMARK    5  A    between atoms: C22_14  and  N6_18 
REMARK    6  A    between atoms: C16_24  and  O3_25 
REMARK    7  A    between atoms: N5_28  and  C1_29 
ROOT
HETATM    1  N1    D T 500       6.460   6.506   5.488  1.00 27.06    -0.056 NA
HETATM    2  N3    D T 500       2.827   7.875   6.740  1.00 26.37    -0.328 N 
HETATM    3  C4    D T 500       5.867   7.472   4.762  1.00 25.67     0.138 A 
HETATM    4  C5    D T 500       2.097   8.905   5.969  1.00 25.49     0.162 A 
HETATM    5  C6    D T 500       2.835   9.503   4.839  1.00 25.40     0.258 A 
HETATM    6  C1    D T 500       5.871   5.965   6.570  1.00 25.59     0.752 A 
HETATM    7  N2    D T 500       4.686   6.414   6.990  1.00 26.47    -0.041 NA
HETATM    8  C2    D T 500       4.074   7.417   6.311  1.00 27.25     0.176 A 
HETATM    9  O1    D T 500       2.277  10.448   4.225  1.00 25.90    -0.270 OA
HETATM   10  N4    D T 500       4.028   9.030   4.462  1.00 24.91    -0.292 N 
HETATM   11  C11   D T 500       4.763   9.577   3.304  1.00 26.11     0.134 C 
HETATM   12  C3    D T 500       4.651   7.963   5.175  1.00 25.06     0.117 A 
ENDROOT
BRANCH   6  13
HETATM   13  N5    D T 500       6.560   5.010   7.217  1.00 28.04    -0.057 NA
BRANCH  13  14
HETATM   14  C7    D T 500       6.418   4.584   8.509  1.00 28.56     0.122 A 
HETATM   15  C20   D T 500       5.399   3.749   8.961  1.00 29.54     0.022 A 
HETATM   16  C19   D T 500       5.363   3.354  10.315  1.00 31.30     0.006 A 
HETATM   17  C18   D T 500       6.345   3.864  11.178  1.00 30.71     0.060 A 
HETATM   18  C17   D T 500       7.338   4.715  10.718  1.00 29.59     0.030 A 
HETATM   19  C16   D T 500       7.389   5.073   9.380  1.00 30.85     0.113 A 
BRANCH  17  20
HETATM   20  C21   D T 500       6.416   3.512  12.642  1.00 33.20     0.275 C 
HETATM   21  O2    D T 500       5.365   3.458  13.277  1.00 35.96    -0.266 OA
HETATM   22  N6    D T 500       7.595   3.334  13.209  1.00 37.33    -0.236 NA
BRANCH  22  23
HETATM   23  C22   D T 500       7.656   3.027  14.637  1.00 43.13     0.111 C 
HETATM   24  C29   D T 500       8.897   3.747  15.157  1.00 44.78     0.060 C 
HETATM   25  C28   D T 500       9.375   3.218  16.518  1.00 46.83     0.252 C 
HETATM   26  N7    D T 500       9.456   1.742  16.557  1.00 47.55     0.139 N 
HETATM   27  C24   D T 500       8.168   1.144  16.158  1.00 48.06     0.252 C 
HETATM   28  C30   D T 500       9.715   1.295  17.938  1.00 49.74     0.285 C 
HETATM   29  C23   D T 500       7.875   1.528  14.710  1.00 44.59     0.060 C 
ENDBRANCH  22  23
ENDBRANCH  17  20
BRANCH  19  30
HETATM   30  O3    D T 500       8.378   5.898   8.877  1.00 30.91    -0.327 OA
HETATM   31  C31   D T 500       8.555   7.278   9.247  1.00 35.09     0.181 C 
ENDBRANCH  19  30
ENDBRANCH  13  14
ENDBRANCH   6  13
BRANCH   2  32
HETATM   32  C8    D T 500       2.307   7.248   7.975  1.00 26.27     0.083 C 
HETATM   33  C15   D T 500       3.197   7.106   9.203  1.00 26.00     0.022 C 
HETATM   34  C14   D T 500       2.598   5.911   9.927  1.00 27.32     0.002 C 
HETATM   35  C13   D T 500       1.605   5.193   9.027  1.00 30.42     0.002 C 
HETATM   36  C12   D T 500       1.672   5.900   7.680  1.00 25.87     0.022 C 
ENDBRANCH   2  32
BRANCH   4  37
HETATM   37  C9    D T 500       0.972   8.119   5.223  1.00 27.17     0.032 C 
HETATM   38  C10   D T 500      -0.492   8.319   5.700  1.00 25.21     0.003 C 
ENDBRANCH   4  37
TORSDOF 7
ENDMDL
MODEL 2
REMARK VINA RESULT:    -7.969      1.519      1.942
REMARK INTER + INTRA:         -12.099
REMARK INTER:                 -11.310
REMARK INTRA:                  -0.789
REMARK UNBOUND:                -0.869
REMARK  7 active torsions:
REMARK  status: ('A' for Active; 'I' for Inactive)
REMARK    1  A    between atoms: N3_2  and  C8_7 
REMARK    2  A    between atoms: C5_4  and  C9_34 
REMARK    3  A    between atoms: C7_6  and  N5_28 
REMARK       I    between atoms: C21_13  and  N6_18 
REMARK    4  A    between atoms: C21_13  and  C18_23 
REMARK    5  A    between atoms: C22_14  and  N6_18 
REMARK    6  A    between atoms: C16_24  and  O3_25 
REMARK    7  A    between atoms: N5_28  and  C1_29 
ROOT
HETATM    1  N1    D T 500       5.643   7.846   5.345  1.00 27.06    -0.056 NA
HETATM    2  N3    D T 500       1.811   7.279   6.620  1.00 26.37    -0.328 N 
HETATM    3  C4    D T 500       4.714   8.743   4.965  1.00 25.67     0.138 A 
HETATM    4  C5    D T 500       0.729   8.199   6.207  1.00 25.49     0.162 A 
HETATM    5  C6    D T 500       1.158   9.397   5.460  1.00 25.40     0.258 A 
HETATM    6  C1    D T 500       5.331   6.767   6.086  1.00 25.59     0.752 A 
HETATM    7  N2    D T 500       4.080   6.579   6.513  1.00 26.47    -0.041 NA
HETATM    8  C2    D T 500       3.122   7.483   6.188  1.00 27.25     0.176 A 
HETATM    9  O1    D T 500       0.273  10.246   5.179  1.00 25.90    -0.270 OA
HETATM   10  N4    D T 500       2.426   9.551   5.065  1.00 24.91    -0.292 N 
HETATM   11  C11   D T 500       2.870  10.715   4.271  1.00 26.11     0.134 C 
HETATM   12  C3    D T 500       3.420   8.583   5.398  1.00 25.06     0.117 A 
ENDROOT
BRANCH   6  13
HETATM   13  N5    D T 500       6.342   5.943   6.406  1.00 28.04    -0.057 NA
BRANCH  13  14
HETATM   14  C7    D T 500       6.724   5.505   7.645  1.00 28.56     0.122 A 
HETATM   15  C20   D T 500       6.050   4.538   8.386  1.00 29.54     0.022 A 
HETATM   16  C19   D T 500       6.548   4.145   9.647  1.00 31.30     0.006 A 
HETATM   17  C18   D T 500       7.696   4.787  10.133  1.00 30.71     0.060 A 
HETATM   18  C17   D T 500       8.342   5.767   9.393  1.00 29.59     0.030 A 
HETATM   19  C16   D T 500       7.869   6.125   8.141  1.00 30.85     0.113 A 
BRANCH  17  20
HETATM   20  C21   D T 500       8.327   4.452  11.460  1.00 33.20     0.275 C 
HETATM   21  O2    D T 500       9.522   4.697  11.612  1.00 35.96    -0.266 OA
HETATM   22  N6    D T 500       7.604   3.855  12.389  1.00 37.33    -0.236 NA
BRANCH  22  23
HETATM   23  C22   D T 500       8.234   3.502  13.661  1.00 43.13     0.111 C 
HETATM   24  C29   D T 500       8.615   2.029  13.534  1.00 44.78     0.060 C 
HETATM   25  C28   D T 500       8.897   1.361  14.887  1.00 46.83     0.252 C 
HETATM   26  N7    D T 500       7.847   1.642  15.890  1.00 47.55     0.139 N 
HETATM   27  C24   D T 500       7.643   3.097  16.028  1.00 48.06     0.252 C 
HETATM   28  C30   D T 500       8.278   1.153  17.212  1.00 49.74     0.285 C 
HETATM   29  C23   D T 500       7.139   3.652  14.699  1.00 44.59     0.060 C 
ENDBRANCH  22  23
ENDBRANCH  17  20
BRANCH  19  30
HETATM   30  O3    D T 500       8.498   7.078   7.362  1.00 30.91    -0.327 OA
HETATM   31  C31   D T 500       8.572   8.478   7.687  1.00 35.09     0.181 C 
ENDBRANCH  19  30
ENDBRANCH  13  14
ENDBRANCH   6  13
BRANCH   2  32
HETATM   32  C8    D T 500       1.599   6.091   7.477  1.00 26.27     0.083 C 
HETATM   33  C15   D T 500       0.216   5.464   7.600  1.00 26.00     0.022 C 
HETATM   34  C14   D T 500       0.261   4.793   8.963  1.00 27.32     0.002 C 
HETATM   35  C13   D T 500       1.485   5.256   9.737  1.00 30.42     0.002 C 
HETATM   36  C12   D T 500       2.153   6.316   8.873  1.00 25.87     0.022 C 
ENDBRANCH   2  32
BRANCH   4  37
HETATM   37  C9    D T 500      -0.061   7.416   5.111  1.00 27.17     0.032 C 
HETATM   38  C10   D T 500      -1.611   7.414   5.196  1.00 25.21     0.003 C 
ENDBRANCH   4  37
TORSDOF 7
ENDMDL
MODEL 3
REMARK VINA RESULT:    -7.827      2.766      4.457
REMARK INTER + INTRA:         -11.899
REMARK INTER:                 -10.359
REMARK INTRA:                  -1.540
REMARK UNBOUND:                -0.869
REMARK  7 active torsions:
REMARK  status: ('A' for Active; 'I' for Inactive)
REMARK    1  A    between atoms: N3_2  and  C8_7 
REMARK    2  A    between atoms: C5_4  and  C9_34 
REMARK    3  A    between atoms: C7_6  and  N5_28 
REMARK       I    between atoms: C21_13  and  N6_18 
REMARK    4  A    between atoms: C21_13  and  C18_23 
REMARK    5  A    between atoms: C22_14  and  N6_18 
REMARK    6  A    between atoms: C16_24  and  O3_25 
REMARK    7  A    between atoms: N5_28  and  C1_29 
ROOT
HETATM    1  N1    D T 500       2.792   4.020  10.096  1.00 27.06    -0.056 NA
HETATM    2  N3    D T 500       3.558   6.600   7.031  1.00 26.37    -0.328 N 
HETATM    3  C4    D T 500       1.757   4.706   9.577  1.00 25.67     0.138 A 
HETATM    4  C5    D T 500       2.477   7.419   6.440  1.00 25.49     0.162 A 
HETATM    5  C6    D T 500       1.112   7.118   6.914  1.00 25.40     0.258 A 
HETATM    6  C1    D T 500       4.053   4.197   9.662  1.00 25.59     0.752 A 
HETATM    7  N2    D T 500       4.310   5.033   8.654  1.00 26.47    -0.041 NA
HETATM    8  C2    D T 500       3.288   5.712   8.074  1.00 27.25     0.176 A 
HETATM    9  O1    D T 500       0.164   7.730   6.361  1.00 25.90    -0.270 OA
HETATM   10  N4    D T 500       0.901   6.260   7.919  1.00 24.91    -0.292 N 
HETATM   11  C11   D T 500      -0.450   5.980   8.446  1.00 26.11     0.134 C 
HETATM   12  C3    D T 500       1.987   5.567   8.531  1.00 25.06     0.117 A 
ENDROOT
BRANCH   6  13
HETATM   13  N5    D T 500       5.004   3.455  10.253  1.00 28.04    -0.057 NA
BRANCH  13  14
HETATM   14  C7    D T 500       5.644   3.679  11.441  1.00 28.56     0.122 A 
HETATM   15  C20   D T 500       5.108   3.399  12.695  1.00 29.54     0.022 A 
HETATM   16  C19   D T 500       5.868   3.651  13.857  1.00 31.30     0.006 A 
HETATM   17  C18   D T 500       7.138   4.226  13.704  1.00 30.71     0.060 A 
HETATM   18  C17   D T 500       7.648   4.523  12.448  1.00 29.59     0.030 A 
HETATM   19  C16   D T 500       6.912   4.242  11.309  1.00 30.85     0.113 A 
BRANCH  17  20
HETATM   20  C21   D T 500       8.047   4.536  14.865  1.00 33.20     0.275 C 
HETATM   21  O2    D T 500       8.230   3.660  15.708  1.00 35.96    -0.266 OA
HETATM   22  N6    D T 500       8.566   5.744  14.977  1.00 37.33    -0.236 NA
BRANCH  22  23
HETATM   23  C22   D T 500       9.419   6.047  16.126  1.00 43.13     0.111 C 
HETATM   24  C29   D T 500       8.941   7.400  16.646  1.00 44.78     0.060 C 
HETATM   25  C28   D T 500       9.960   8.086  17.567  1.00 46.83     0.252 C 
HETATM   26  N7    D T 500      11.326   8.091  16.999  1.00 47.55     0.139 N 
HETATM   27  C24   D T 500      11.742   6.720  16.646  1.00 48.06     0.252 C 
HETATM   28  C30   D T 500      12.284   8.570  18.013  1.00 49.74     0.285 C 
HETATM   29  C23   D T 500      10.816   6.191  15.555  1.00 44.59     0.060 C 
ENDBRANCH  22  23
ENDBRANCH  17  20
BRANCH  19  30
HETATM   30  O3    D T 500       7.394   4.499  10.039  1.00 30.91    -0.327 OA
HETATM   31  C31   D T 500       8.141   5.674   9.672  1.00 35.09     0.181 C 
ENDBRANCH  19  30
ENDBRANCH  13  14
ENDBRANCH   6  13
BRANCH   2  32
HETATM   32  C8    D T 500       4.972   6.667   6.599  1.00 26.27     0.083 C 
HETATM   33  C15   D T 500       5.947   7.608   7.294  1.00 26.00     0.022 C 
HETATM   34  C14   D T 500       6.990   7.876   6.221  1.00 27.32     0.002 C 
HETATM   35  C13   D T 500       6.499   7.376   4.872  1.00 30.42     0.002 C 
HETATM   36  C12   D T 500       5.077   6.882   5.100  1.00 25.87     0.022 C 
ENDBRANCH   2  32
BRANCH   4  37
HETATM   37  C9    D T 500       2.700   8.851   7.023  1.00 27.17     0.032 C 
HETATM   38  C10   D T 500       2.982  10.005   6.025  1.00 25.21     0.003 C 
ENDBRANCH   4  37
TORSDOF 7
ENDMDL
MODEL 4
REMARK VINA RESULT:    -7.719      4.052     10.066
REMARK INTER + INTRA:         -11.747
REMARK INTER:                 -10.011
REMARK INTRA:                  -1.735
REMARK UNBOUND:                -0.869
REMARK  7 active torsions:
REMARK  status: ('A' for Active; 'I' for Inactive)
REMARK    1  A    between atoms: N3_2  and  C8_7 
REMARK    2  A    between atoms: C5_4  and  C9_34 
REMARK    3  A    between atoms: C7_6  and  N5_28 
REMARK       I    between atoms: C21_13  and  N6_18 
REMARK    4  A    between atoms: C21_13  and  C18_23 
REMARK    5  A    between atoms: C22_14  and  N6_18 
REMARK    6  A    between atoms: C16_24  and  O3_25 
REMARK    7  A    between atoms: N5_28  and  C1_29 
ROOT
HETATM    1  N1    D T 500       9.351   4.985  15.922  1.00 27.06    -0.056 NA
HETATM    2  N3    D T 500       9.272   8.931  14.891  1.00 26.37    -0.328 N 
HETATM    3  C4    D T 500       9.660   5.890  16.869  1.00 25.67     0.138 A 
HETATM    4  C5    D T 500       9.641   9.978  15.867  1.00 25.49     0.162 A 
HETATM    5  C6    D T 500       9.871   9.514  17.249  1.00 25.40     0.258 A 
HETATM    6  C1    D T 500       9.064   5.347  14.658  1.00 25.59     0.752 A 
HETATM    7  N2    D T 500       9.029   6.637  14.315  1.00 26.47    -0.041 NA
HETATM    8  C2    D T 500       9.292   7.583  15.252  1.00 27.25     0.176 A 
HETATM    9  O1    D T 500      10.091  10.393  18.121  1.00 25.90    -0.270 OA
HETATM   10  N4    D T 500       9.882   8.210  17.550  1.00 24.91    -0.292 N 
HETATM   11  C11   D T 500      10.160   7.718  18.914  1.00 26.11     0.134 C 
HETATM   12  C3    D T 500       9.622   7.226  16.550  1.00 25.06     0.117 A 
ENDROOT
BRANCH   6  13
HETATM   13  N5    D T 500       8.768   4.356  13.800  1.00 28.04    -0.057 NA
BRANCH  13  14
HETATM   14  C7    D T 500       7.653   4.208  13.022  1.00 28.56     0.122 A 
HETATM   15  C20   D T 500       6.401   3.825  13.496  1.00 29.54     0.022 A 
HETATM   16  C19   D T 500       5.312   3.725  12.604  1.00 31.30     0.006 A 
HETATM   17  C18   D T 500       5.547   3.976  11.244  1.00 30.71     0.060 A 
HETATM   18  C17   D T 500       6.806   4.332  10.783  1.00 29.59     0.030 A 
HETATM   19  C16   D T 500       7.864   4.462  11.668  1.00 30.85     0.113 A 
BRANCH  17  20
HETATM   20  C21   D T 500       4.466   3.908  10.196  1.00 33.20     0.275 C 
HETATM   21  O2    D T 500       4.444   2.933   9.448  1.00 35.96    -0.266 OA
HETATM   22  N6    D T 500       3.620   4.913  10.072  1.00 37.33    -0.236 NA
BRANCH  22  23
HETATM   23  C22   D T 500       2.596   4.855   9.029  1.00 43.13     0.111 C 
HETATM   24  C29   D T 500       2.847   6.070   8.141  1.00 44.78     0.060 C 
HETATM   25  C28   D T 500       1.645   6.425   7.253  1.00 46.83     0.252 C 
HETATM   26  N7    D T 500       0.374   6.465   8.007  1.00 47.55     0.139 N 
HETATM   27  C24   D T 500       0.164   5.196   8.730  1.00 48.06     0.252 C 
HETATM   28  C30   D T 500      -0.756   6.603   7.069  1.00 49.74     0.285 C 
HETATM   29  C23   D T 500       1.278   5.028   9.760  1.00 44.59     0.060 C 
ENDBRANCH  22  23
ENDBRANCH  17  20
BRANCH  19  30
HETATM   30  O3    D T 500       9.127   4.840  11.253  1.00 30.91    -0.327 OA
HETATM   31  C31   D T 500       9.445   6.116  10.667  1.00 35.09     0.181 C 
ENDBRANCH  19  30
ENDBRANCH  13  14
ENDBRANCH   6  13
BRANCH   2  32
HETATM   32  C8    D T 500       8.885   9.210  13.489  1.00 26.27     0.083 C 
HETATM   33  C15   D T 500       9.950   9.361  12.411  1.00 26.00     0.022 C 
HETATM   34  C14   D T 500       9.272  10.247  11.379  1.00 27.32     0.002 C 
HETATM   35  C13   D T 500       7.997  10.844  11.953  1.00 30.42     0.002 C 
HETATM   36  C12   D T 500       7.943  10.398  13.407  1.00 25.87     0.022 C 
ENDBRANCH   2  32
BRANCH   4  37
HETATM   37  C9    D T 500      11.078  10.424  15.447  1.00 27.17     0.032 C 
HETATM   38  C10   D T 500      11.257  11.856  14.878  1.00 25.21     0.003 C 
ENDBRANCH   4  37
TORSDOF 7
ENDMDL
MODEL 5
REMARK VINA RESULT:    -7.603      5.169      6.794
REMARK INTER + INTRA:         -11.583
REMARK INTER:                 -10.119
REMARK INTRA:                  -1.464
REMARK UNBOUND:                -0.869
REMARK  7 active torsions:
REMARK  status: ('A' for Active; 'I' for Inactive)
REMARK    1  A    between atoms: N3_2  and  C8_7 
REMARK    2  A    between atoms: C5_4  and  C9_34 
REMARK    3  A    between atoms: C7_6  and  N5_28 
REMARK       I    between atoms: C21_13  and  N6_18 
REMARK    4  A    between atoms: C21_13  and  C18_23 
REMARK    5  A    between atoms: C22_14  and  N6_18 
REMARK    6  A    between atoms: C16_24  and  O3_25 
REMARK    7  A    between atoms: N5_28  and  C1_29 
ROOT
HETATM    1  N1    D T 500       6.447   3.731  11.599  1.00 27.06    -0.056 NA
HETATM    2  N3    D T 500       5.069   5.665   8.283  1.00 26.37    -0.328 N 
HETATM    3  C4    D T 500       5.123   3.712  11.365  1.00 25.67     0.138 A 
HETATM    4  C5    D T 500       3.622   5.723   7.984  1.00 25.49     0.162 A 
HETATM    5  C6    D T 500       2.754   4.909   8.859  1.00 25.40     0.258 A 
HETATM    6  C1    D T 500       7.303   4.397  10.802  1.00 25.59     0.752 A 
HETATM    7  N2    D T 500       6.860   5.026   9.711  1.00 26.47    -0.041 NA
HETATM    8  C2    D T 500       5.536   4.994   9.415  1.00 27.25     0.176 A 
HETATM    9  O1    D T 500       1.532   4.862   8.570  1.00 25.90    -0.270 OA
HETATM   10  N4    D T 500       3.245   4.284   9.934  1.00 24.91    -0.292 N 
HETATM   11  C11   D T 500       2.389   3.506  10.854  1.00 26.11     0.134 C 
HETATM   12  C3    D T 500       4.637   4.341  10.243  1.00 25.06     0.117 A 
ENDROOT
BRANCH   6  13
HETATM   13  N5    D T 500       8.603   4.343  11.135  1.00 28.04    -0.057 NA
BRANCH  13  14
HETATM   14  C7    D T 500       9.466   3.286  11.031  1.00 28.56     0.122 A 
HETATM   15  C20   D T 500       9.460   2.173  11.867  1.00 29.54     0.022 A 
HETATM   16  C19   D T 500      10.384   1.128  11.653  1.00 31.30     0.006 A 
HETATM   17  C18   D T 500      11.320   1.275  10.617  1.00 30.71     0.060 A 
HETATM   18  C17   D T 500      11.329   2.403   9.809  1.00 29.59     0.030 A 
HETATM   19  C16   D T 500      10.398   3.410  10.001  1.00 30.85     0.113 A 
BRANCH  17  20
HETATM   20  C21   D T 500      12.352   0.229  10.286  1.00 33.20     0.275 C 
HETATM   21  O2    D T 500      13.521   0.587  10.158  1.00 35.96    -0.266 OA
HETATM   22  N6    D T 500      11.969  -1.018  10.084  1.00 37.33    -0.236 NA
BRANCH  22  23
HETATM   23  C22   D T 500      12.973  -2.020   9.729  1.00 43.13     0.111 C 
HETATM   24  C29   D T 500      12.893  -2.159   8.211  1.00 44.78     0.060 C 
HETATM   25  C28   D T 500      13.552  -3.444   7.688  1.00 46.83     0.252 C 
HETATM   26  N7    D T 500      13.131  -4.645   8.440  1.00 47.55     0.139 N 
HETATM   27  C24   D T 500      13.366  -4.458   9.885  1.00 48.06     0.252 C 
HETATM   28  C30   D T 500      13.950  -5.801   8.030  1.00 49.74     0.285 C 
HETATM   29  C23   D T 500      12.497  -3.305  10.379  1.00 44.59     0.060 C 
ENDBRANCH  22  23
ENDBRANCH  17  20
BRANCH  19  30
HETATM   30  O3    D T 500      10.357   4.537   9.201  1.00 30.91    -0.327 OA
HETATM   31  C31   D T 500      10.013   4.533   7.804  1.00 35.09     0.181 C 
ENDBRANCH  19  30
ENDBRANCH  13  14
ENDBRANCH   6  13
BRANCH   2  32
HETATM   32  C8    D T 500       6.109   6.311   7.450  1.00 26.27     0.083 C 
HETATM   33  C15   D T 500       6.561   7.734   7.748  1.00 26.00     0.022 C 
HETATM   34  C14   D T 500       7.054   8.229   6.398  1.00 27.32     0.002 C 
HETATM   35  C13   D T 500       6.631   7.268   5.299  1.00 30.42     0.002 C 
HETATM   36  C12   D T 500       5.768   6.211   5.974  1.00 25.87     0.022 C 
ENDBRANCH   2  32
BRANCH   4  37
HETATM   37  C9    D T 500       3.192   7.171   8.381  1.00 27.17     0.032 C 
HETATM   38  C10   D T 500       2.861   8.169   7.240  1.00 25.21     0.003 C 
ENDBRANCH   4  37
TORSDOF 7
ENDMDL
MODEL 6
REMARK VINA RESULT:    -7.480      2.516      5.344
REMARK INTER + INTRA:         -11.410
REMARK INTER:                 -10.369
REMARK INTRA:                  -1.041
REMARK UNBOUND:                -0.869
REMARK  7 active torsions:
REMARK  status: ('A' for Active; 'I' for Inactive)
REMARK    1  A    between atoms: N3_2  and  C8_7 
REMARK    2  A    between atoms: C5_4  and  C9_34 
REMARK    3  A    between atoms: C7_6  and  N5_28 
REMARK       I    between atoms: C21_13  and  N6_18 
REMARK    4  A    between atoms: C21_13  and  C18_23 
REMARK    5  A    between atoms: C22_14  and  N6_18 
REMARK    6  A    between atoms: C16_24  and  O3_25 
REMARK    7  A    between atoms: N5_28  and  C1_29 
ROOT
HETATM    1  N1    D T 500       2.169   8.986   4.230  1.00 27.06    -0.056 NA
HETATM    2  N3    D T 500       6.102   9.718   3.433  1.00 26.37    -0.328 N 
HETATM    3  C4    D T 500       2.471   9.626   3.085  1.00 25.67     0.138 A 
HETATM    4  C5    D T 500       6.506  10.455   2.216  1.00 25.49     0.162 A 
HETATM    5  C6    D T 500       5.423  10.747   1.256  1.00 25.40     0.258 A 
HETATM    6  C1    D T 500       3.115   8.629   5.118  1.00 25.59     0.752 A 
HETATM    7  N2    D T 500       4.405   8.859   4.860  1.00 26.47    -0.041 NA
HETATM    8  C2    D T 500       4.754   9.463   3.696  1.00 27.25     0.176 A 
HETATM    9  O1    D T 500       5.752  11.286   0.168  1.00 25.90    -0.270 OA
HETATM   10  N4    D T 500       4.145  10.486   1.550  1.00 24.91    -0.292 N 
HETATM   11  C11   D T 500       3.039  10.817   0.629  1.00 26.11     0.134 C 
HETATM   12  C3    D T 500       3.790   9.867   2.786  1.00 25.06     0.117 A 
ENDROOT
BRANCH   6  13
HETATM   13  N5    D T 500       2.695   7.993   6.224  1.00 28.04    -0.057 NA
BRANCH  13  14
HETATM   14  C7    D T 500       3.356   7.059   6.972  1.00 28.56     0.122 A 
HETATM   15  C20   D T 500       4.729   6.832   6.924  1.00 29.54     0.022 A 
HETATM   16  C19   D T 500       5.309   5.854   7.760  1.00 31.30     0.006 A 
HETATM   17  C18   D T 500       4.460   5.103   8.587  1.00 30.71     0.060 A 
HETATM   18  C17   D T 500       3.090   5.324   8.604  1.00 29.59     0.030 A 
HETATM   19  C16   D T 500       2.530   6.308   7.807  1.00 30.85     0.113 A 
BRANCH  17  20
HETATM   20  C21   D T 500       4.959   4.036   9.527  1.00 33.20     0.275 C 
HETATM   21  O2    D T 500       4.378   2.953   9.535  1.00 35.96    -0.266 OA
HETATM   22  N6    D T 500       5.953   4.311  10.350  1.00 37.33    -0.236 NA
BRANCH  22  23
HETATM   23  C22   D T 500       6.408   3.280  11.283  1.00 43.13     0.111 C 
HETATM   24  C29   D T 500       5.845   3.683  12.643  1.00 44.78     0.060 C 
HETATM   25  C28   D T 500       6.545   2.983  13.817  1.00 46.83     0.252 C 
HETATM   26  N7    D T 500       8.019   3.044  13.717  1.00 47.55     0.139 N 
HETATM   27  C24   D T 500       8.470   2.515  12.415  1.00 48.06     0.252 C 
HETATM   28  C30   D T 500       8.624   2.182  14.749  1.00 49.74     0.285 C 
HETATM   29  C23   D T 500       7.919   3.406  11.305  1.00 44.59     0.060 C 
ENDBRANCH  22  23
ENDBRANCH  17  20
BRANCH  19  30
HETATM   30  O3    D T 500       1.174   6.577   7.814  1.00 30.91    -0.327 OA
HETATM   31  C31   D T 500       0.172   5.704   8.370  1.00 35.09     0.181 C 
ENDBRANCH  19  30
ENDBRANCH  13  14
ENDBRANCH   6  13
BRANCH   2  32
HETATM   32  C8    D T 500       7.055   9.228   4.454  1.00 26.27     0.083 C 
HETATM   33  C15   D T 500       7.440  10.107   5.636  1.00 26.00     0.022 C 
HETATM   34  C14   D T 500       8.818   9.589   6.017  1.00 27.32     0.002 C 
HETATM   35  C13   D T 500       9.352   8.668   4.932  1.00 30.42     0.002 C 
HETATM   36  C12   D T 500       8.325   8.702   3.809  1.00 25.87     0.022 C 
ENDBRANCH   2  32
BRANCH   4  37
HETATM   37  C9    D T 500       6.869  11.887   2.720  1.00 27.17     0.032 C 
HETATM   38  C10   D T 500       8.361  12.312   2.687  1.00 25.21     0.003 C 
ENDBRANCH   4  37
TORSDOF 7
ENDMDL
MODEL 7
REMARK VINA RESULT:    -7.195      4.688      8.691
REMARK INTER + INTRA:         -11.008
REMARK INTER:                 -10.016
REMARK INTRA:                  -0.992
REMARK UNBOUND:                -0.869
REMARK  7 active torsions:
REMARK  status: ('A' for Active; 'I' for Inactive)
REMARK    1  A    between atoms: N3_2  and  C8_7 
REMARK    2  A    between atoms: C5_4  and  C9_34 
REMARK    3  A    between atoms: C7_6  and  N5_28 
REMARK       I    between atoms: C21_13  and  N6_18 
REMARK    4  A    between atoms: C21_13  and  C18_23 
REMARK    5  A    between atoms: C22_14  and  N6_18 
REMARK    6  A    between atoms: C16_24  and  O3_25 
REMARK    7  A    between atoms: N5_28  and  C1_29 
ROOT
HETATM    1  N1    D T 500       2.939  10.761   1.926  1.00 27.06    -0.056 NA
HETATM    2  N3    D T 500       4.738  13.157  -0.842  1.00 26.37    -0.328 N 
HETATM    3  C4    D T 500       2.268  11.024   0.790  1.00 25.67     0.138 A 
HETATM    4  C5    D T 500       4.042  13.523  -2.095  1.00 25.49     0.162 A 
HETATM    5  C6    D T 500       2.756  12.841  -2.338  1.00 25.40     0.258 A 
HETATM    6  C1    D T 500       4.147  11.296   2.180  1.00 25.59     0.752 A 
HETATM    7  N2    D T 500       4.745  12.075   1.275  1.00 26.47    -0.041 NA
HETATM    8  C2    D T 500       4.120  12.329   0.098  1.00 27.25     0.176 A 
HETATM    9  O1    D T 500       2.190  13.059  -3.439  1.00 25.90    -0.270 OA
HETATM   10  N4    D T 500       2.201  12.056  -1.407  1.00 24.91    -0.292 N 
HETATM   11  C11   D T 500       0.891  11.404  -1.604  1.00 26.11     0.134 C 
HETATM   12  C3    D T 500       2.861  11.813  -0.166  1.00 25.06     0.117 A 
ENDROOT
BRANCH   6  13
HETATM   13  N5    D T 500       4.723  10.961   3.347  1.00 28.04    -0.057 NA
BRANCH  13  14
HETATM   14  C7    D T 500       4.341   9.997   4.239  1.00 28.56     0.122 A 
HETATM   15  C20   D T 500       3.230  10.084   5.073  1.00 29.54     0.022 A 
HETATM   16  C19   D T 500       2.916   9.016   5.941  1.00 31.30     0.006 A 
HETATM   17  C18   D T 500       3.777   7.909   5.964  1.00 30.71     0.060 A 
HETATM   18  C17   D T 500       4.895   7.848   5.145  1.00 29.59     0.030 A 
HETATM   19  C16   D T 500       5.180   8.884   4.270  1.00 30.85     0.113 A 
BRANCH  17  20
HETATM   20  C21   D T 500       3.547   6.706   6.842  1.00 33.20     0.275 C 
HETATM   21  O2    D T 500       2.399   6.280   6.952  1.00 35.96    -0.266 OA
HETATM   22  N6    D T 500       4.561   6.187   7.509  1.00 37.33    -0.236 NA
BRANCH  22  23
HETATM   23  C22   D T 500       4.321   5.041   8.385  1.00 43.13     0.111 C 
HETATM   24  C29   D T 500       3.681   5.617   9.645  1.00 44.78     0.060 C 
HETATM   25  C28   D T 500       3.740   4.657  10.843  1.00 46.83     0.252 C 
HETATM   26  N7    D T 500       5.087   4.081  11.044  1.00 47.55     0.139 N 
HETATM   27  C24   D T 500       5.563   3.439   9.803  1.00 48.06     0.252 C 
HETATM   28  C30   D T 500       5.027   3.020  12.066  1.00 49.74     0.285 C 
HETATM   29  C23   D T 500       5.700   4.504   8.720  1.00 44.59     0.060 C 
ENDBRANCH  22  23
ENDBRANCH  17  20
BRANCH  19  30
HETATM   30  O3    D T 500       6.269   8.850   3.419  1.00 30.91    -0.327 OA
HETATM   31  C31   D T 500       7.641   8.789   3.853  1.00 35.09     0.181 C 
ENDBRANCH  19  30
ENDBRANCH  13  14
ENDBRANCH   6  13
BRANCH   2  32
HETATM   32  C8    D T 500       6.089  13.638  -0.479  1.00 26.27     0.083 C 
HETATM   33  C15   D T 500       6.269  14.985   0.210  1.00 26.00     0.022 C 
HETATM   34  C14   D T 500       7.679  15.389  -0.189  1.00 27.32     0.002 C 
HETATM   35  C13   D T 500       8.192  14.488  -1.300  1.00 30.42     0.002 C 
HETATM   36  C12   D T 500       7.032  13.573  -1.667  1.00 25.87     0.022 C 
ENDBRANCH   2  32
BRANCH   4  37
HETATM   37  C9    D T 500       3.575  14.997  -1.874  1.00 27.17     0.032 C 
HETATM   38  C10   D T 500       4.040  16.067  -2.897  1.00 25.21     0.003 C 
ENDBRANCH   4  37
TORSDOF 7
ENDMDL
MODEL 8
REMARK VINA RESULT:    -7.177      1.791      3.032
REMARK INTER + INTRA:         -10.983
REMARK INTER:                  -9.662
REMARK INTRA:                  -1.321
REMARK UNBOUND:                -0.869
REMARK  7 active torsions:
REMARK  status: ('A' for Active; 'I' for Inactive)
REMARK    1  A    between atoms: N3_2  and  C8_7 
REMARK    2  A    between atoms: C5_4  and  C9_34 
REMARK    3  A    between atoms: C7_6  and  N5_28 
REMARK       I    between atoms: C21_13  and  N6_18 
REMARK    4  A    between atoms: C21_13  and  C18_23 
REMARK    5  A    between atoms: C22_14  and  N6_18 
REMARK    6  A    between atoms: C16_24  and  O3_25 
REMARK    7  A    between atoms: N5_28  and  C1_29 
ROOT
HETATM    1  N1    D T 500       7.274   7.551   5.079  1.00 27.06    -0.056 NA
HETATM    2  N3    D T 500       3.839   9.670   4.488  1.00 26.37    -0.328 N 
HETATM    3  C4    D T 500       7.375   8.772   4.524  1.00 25.67     0.138 A 
HETATM    4  C5    D T 500       3.869  11.001   3.844  1.00 25.49     0.162 A 
HETATM    5  C6    D T 500       5.212  11.560   3.592  1.00 25.40     0.258 A 
HETATM    6  C1    D T 500       6.084   7.009   5.397  1.00 25.59     0.752 A 
HETATM    7  N2    D T 500       4.956   7.700   5.214  1.00 26.47    -0.041 NA
HETATM    8  C2    D T 500       5.019   8.953   4.696  1.00 27.25     0.176 A 
HETATM    9  O1    D T 500       5.269  12.730   3.134  1.00 25.90    -0.270 OA
HETATM   10  N4    D T 500       6.316  10.836   3.805  1.00 24.91    -0.292 N 
HETATM   11  C11   D T 500       7.668  11.354   3.512  1.00 26.11     0.134 C 
HETATM   12  C3    D T 500       6.233   9.513   4.332  1.00 25.06     0.117 A 
ENDROOT
BRANCH   6  13
HETATM   13  N5    D T 500       6.106   5.784   5.948  1.00 28.04    -0.057 NA
BRANCH  13  14
HETATM   14  C7    D T 500       5.857   5.429   7.245  1.00 28.56     0.122 A 
HETATM   15  C20   D T 500       4.629   5.577   7.885  1.00 29.54     0.022 A 
HETATM   16  C19   D T 500       4.479   5.155   9.224  1.00 31.30     0.006 A 
HETATM   17  C18   D T 500       5.603   4.636   9.883  1.00 30.71     0.060 A 
HETATM   18  C17   D T 500       6.826   4.518   9.239  1.00 29.59     0.030 A 
HETATM   19  C16   D T 500       6.960   4.903   7.915  1.00 30.85     0.113 A 
BRANCH  17  20
HETATM   20  C21   D T 500       5.568   4.146  11.307  1.00 33.20     0.275 C 
HETATM   21  O2    D T 500       4.476   3.866  11.798  1.00 35.96    -0.266 OA
HETATM   22  N6    D T 500       6.689   4.089  12.001  1.00 37.33    -0.236 NA
BRANCH  22  23
HETATM   23  C22   D T 500       6.640   3.645  13.394  1.00 43.13     0.111 C 
HETATM   24  C29   D T 500       7.479   4.654  14.174  1.00 44.78     0.060 C 
HETATM   25  C28   D T 500       7.902   4.143  15.559  1.00 46.83     0.252 C 
HETATM   26  N7    D T 500       8.466   2.777  15.512  1.00 47.55     0.139 N 
HETATM   27  C24   D T 500       7.525   1.853  14.851  1.00 48.06     0.252 C 
HETATM   28  C30   D T 500       8.655   2.270  16.884  1.00 49.74     0.285 C 
HETATM   29  C23   D T 500       7.335   2.298  13.404  1.00 44.59     0.060 C 
ENDBRANCH  22  23
ENDBRANCH  17  20
BRANCH  19  30
HETATM   30  O3    D T 500       8.154   4.778   7.230  1.00 30.91    -0.327 OA
HETATM   31  C31   D T 500       9.450   4.723   7.854  1.00 35.09     0.181 C 
ENDBRANCH  19  30
ENDBRANCH  13  14
ENDBRANCH   6  13
BRANCH   2  32
HETATM   32  C8    D T 500       2.597   8.997   4.931  1.00 26.27     0.083 C 
HETATM   33  C15   D T 500       1.702   8.288   3.923  1.00 26.00     0.022 C 
HETATM   34  C14   D T 500       0.333   8.341   4.580  1.00 27.32     0.002 C 
HETATM   35  C13   D T 500       0.353   9.297   5.762  1.00 30.42     0.002 C 
HETATM   36  C12   D T 500       1.738   9.928   5.769  1.00 25.87     0.022 C 
ENDBRANCH   2  32
BRANCH   4  37
HETATM   37  C9    D T 500       3.360  10.750   2.389  1.00 27.17     0.032 C 
HETATM   38  C10   D T 500       2.341  11.757   1.793  1.00 25.21     0.003 C 
ENDBRANCH   4  37
TORSDOF 7
ENDMDL
MODEL 9
REMARK VINA RESULT:    -7.079      3.531      5.713
REMARK INTER + INTRA:         -10.845
REMARK INTER:                  -9.312
REMARK INTRA:                  -1.533
REMARK UNBOUND:                -0.869
REMARK  7 active torsions:
REMARK  status: ('A' for Active; 'I' for Inactive)
REMARK    1  A    between atoms: N3_2  and  C8_7 
REMARK    2  A    between atoms: C5_4  and  C9_34 
REMARK    3  A    between atoms: C7_6  and  N5_28 
REMARK       I    between atoms: C21_13  and  N6_18 
REMARK    4  A    between atoms: C21_13  and  C18_23 
REMARK    5  A    between atoms: C22_14  and  N6_18 
REMARK    6  A    between atoms: C16_24  and  O3_25 
REMARK    7  A    between atoms: N5_28  and  C1_29 
ROOT
HETATM    1  N1    D T 500       3.872   5.420   8.452  1.00 27.06    -0.056 NA
HETATM    2  N3    D T 500       2.329   8.001   5.697  1.00 26.37    -0.328 N 
HETATM    3  C4    D T 500       2.543   5.631   8.463  1.00 25.67     0.138 A 
HETATM    4  C5    D T 500       0.884   8.315   5.676  1.00 25.49     0.162 A 
HETATM    5  C6    D T 500       0.042   7.519   6.591  1.00 25.40     0.258 A 
HETATM    6  C1    D T 500       4.689   6.062   7.597  1.00 25.59     0.752 A 
HETATM    7  N2    D T 500       4.190   6.902   6.687  1.00 26.47    -0.041 NA
HETATM    8  C2    D T 500       2.850   7.110   6.636  1.00 27.25     0.176 A 
HETATM    9  O1    D T 500      -1.201   7.696   6.527  1.00 25.90    -0.270 OA
HETATM   10  N4    D T 500       0.585   6.677   7.477  1.00 24.91    -0.292 N 
HETATM   11  C11   D T 500      -0.231   5.908   8.438  1.00 26.11     0.134 C 
HETATM   12  C3    D T 500       1.998   6.482   7.531  1.00 25.06     0.117 A 
ENDROOT
BRANCH   6  13
HETATM   13  N5    D T 500       5.997   5.768   7.677  1.00 28.04    -0.057 NA
BRANCH  13  14
HETATM   14  C7    D T 500       6.968   6.394   8.410  1.00 28.56     0.122 A 
HETATM   15  C20   D T 500       7.405   7.699   8.196  1.00 29.54     0.022 A 
HETATM   16  C19   D T 500       8.399   8.253   9.030  1.00 31.30     0.006 A 
HETATM   17  C18   D T 500       8.952   7.439  10.030  1.00 30.71     0.060 A 
HETATM   18  C17   D T 500       8.524   6.132  10.214  1.00 29.59     0.030 A 
HETATM   19  C16   D T 500       7.523   5.604   9.415  1.00 30.85     0.113 A 
BRANCH  17  20
HETATM   20  C21   D T 500      10.014   7.916  10.986  1.00 33.20     0.275 C 
HETATM   21  O2    D T 500      11.040   7.248  11.093  1.00 35.96    -0.266 OA
HETATM   22  N6    D T 500       9.791   8.991  11.719  1.00 37.33    -0.236 NA
BRANCH  22  23
HETATM   23  C22   D T 500      10.813   9.427  12.669  1.00 43.13     0.111 C 
HETATM   24  C29   D T 500      10.161   9.325  14.046  1.00 44.78     0.060 C 
HETATM   25  C28   D T 500      10.905  10.126  15.125  1.00 46.83     0.252 C 
HETATM   26  N7    D T 500      11.222  11.504  14.693  1.00 47.55     0.139 N 
HETATM   27  C24   D T 500      11.962  11.487  13.416  1.00 48.06     0.252 C 
HETATM   28  C30   D T 500      12.110  12.143  15.681  1.00 49.74     0.285 C 
HETATM   29  C23   D T 500      11.066  10.885  12.337  1.00 44.59     0.060 C 
ENDBRANCH  22  23
ENDBRANCH  17  20
BRANCH  19  30
HETATM   30  O3    D T 500       7.051   4.316   9.583  1.00 30.91    -0.327 OA
HETATM   31  C31   D T 500       6.651   3.752  10.845  1.00 35.09     0.181 C 
ENDBRANCH  19  30
ENDBRANCH  13  14
ENDBRANCH   6  13
BRANCH   2  32
HETATM   32  C8    D T 500       3.315   8.602   4.771  1.00 26.27     0.083 C 
HETATM   33  C15   D T 500       4.004   9.914   5.123  1.00 26.00     0.022 C 
HETATM   34  C14   D T 500       4.358  10.493   3.762  1.00 27.32     0.002 C 
HETATM   35  C13   D T 500       3.646   9.724   2.661  1.00 30.42     0.002 C 
HETATM   36  C12   D T 500       2.751   8.714   3.366  1.00 25.87     0.022 C 
ENDBRANCH   2  32
BRANCH   4  37
HETATM   37  C9    D T 500       0.777   9.737   6.315  1.00 27.17     0.032 C 
HETATM   38  C10   D T 500       0.390  10.921   5.389  1.00 25.21     0.003 C 
ENDBRANCH   4  37
TORSDOF 7
ENDMDL
