MODEL 1
REMARK VINA RESULT:    -8.257      0.000      0.000
REMARK INTER + INTRA:         -13.039
REMARK INTER:                 -11.636
REMARK INTRA:                  -1.403
REMARK UNBOUND:                -1.403
REMARK  7 active torsions:
REMARK  status: ('A' for Active; 'I' for Inactive)
REMARK    1  A    between atoms: N3_2  and  C8_7 
REMARK    2  A    between atoms: C5_4  and  C9_34 
REMARK    3  A    between atoms: C7_6  and  N5_28 
REMARK       I    between atoms: C21_13  and  N6_18 
REMARK    4  A    between atoms: C21_13  and  C18_23 
REMARK    5  A    between atoms: C22_14  and  N6_18 
REMARK    6  A    between atoms: C16_24  and  O3_25 
REMARK    7  A    between atoms: N5_28  and  C1_29 
ROOT
HETATM    1  N1    D T 500       7.767   1.977  -2.364  1.00 27.06    -0.056 NA
HETATM    2  N3    D T 500       7.252   2.924  -6.298  1.00 26.37    -0.328 N 
HETATM    3  C4    D T 500       7.756   0.971  -3.258  1.00 25.67     0.138 A 
HETATM    4  C5    D T 500       7.185   1.868  -7.332  1.00 25.49     0.162 A 
HETATM    5  C6    D T 500       7.479   0.498  -6.867  1.00 25.40     0.258 A 
HETATM    6  C1    D T 500       7.575   3.258  -2.731  1.00 25.59     0.752 A 
HETATM    7  N2    D T 500       7.413   3.575  -4.018  1.00 26.47    -0.041 NA
HETATM    8  C2    D T 500       7.438   2.595  -4.955  1.00 27.25     0.176 A 
HETATM    9  O1    D T 500       7.525  -0.407  -7.739  1.00 25.90    -0.270 OA
HETATM   10  N4    D T 500       7.649   0.228  -5.568  1.00 24.91    -0.292 N 
HETATM   11  C11   D T 500       7.894  -1.142  -5.072  1.00 26.11     0.134 C 
HETATM   12  C3    D T 500       7.602   1.267  -4.592  1.00 25.06     0.117 A 
ENDROOT
BRANCH   6  13
HETATM   13  N5    D T 500       7.610   4.177  -1.752  1.00 28.04    -0.057 NA
BRANCH  13  14
HETATM   14  C7    D T 500       8.660   4.959  -1.355  1.00 28.56     0.122 A 
HETATM   15  C20   D T 500       9.157   6.043  -2.076  1.00 29.54     0.022 A 
HETATM   16  C19   D T 500      10.232   6.796  -1.560  1.00 31.30     0.006 A 
HETATM   17  C18   D T 500      10.798   6.391  -0.342  1.00 30.71     0.060 A 
HETATM   18  C17   D T 500      10.307   5.294   0.352  1.00 29.59     0.030 A 
HETATM   19  C16   D T 500       9.230   4.578  -0.143  1.00 30.85     0.113 A 
BRANCH  17  20
HETATM   20  C21   D T 500      11.945   7.117   0.315  1.00 33.20     0.275 C 
HETATM   21  O2    D T 500      12.116   6.957   1.522  1.00 35.96    -0.266 OA
HETATM   22  N6    D T 500      12.685   7.941  -0.401  1.00 37.33    -0.236 NA
BRANCH  22  23
HETATM   23  C22   D T 500      13.774   8.667   0.254  1.00 43.13     0.111 C 
HETATM   24  C29   D T 500      13.195  10.033   0.613  1.00 44.78     0.060 C 
HETATM   25  C28   D T 500      14.274  11.083   0.916  1.00 46.83     0.252 C 
HETATM   26  N7    D T 500      15.341  11.115  -0.107  1.00 47.55     0.139 N 
HETATM   27  C24   D T 500      15.920   9.770  -0.289  1.00 48.06     0.252 C 
HETATM   28  C30   D T 500      16.441  11.985   0.347  1.00 49.74     0.285 C 
HETATM   29  C23   D T 500      14.835   8.835  -0.816  1.00 44.59     0.060 C 
ENDBRANCH  22  23
ENDBRANCH  17  20
BRANCH  19  30
HETATM   30  O3    D T 500       8.695   3.496   0.531  1.00 30.91    -0.327 OA
HETATM   31  C31   D T 500       9.420   2.294   0.851  1.00 35.09     0.181 C 
ENDBRANCH  19  30
ENDBRANCH  13  14
ENDBRANCH   6  13
BRANCH   2  32
HETATM   32  C8    D T 500       7.109   4.369  -6.588  1.00 26.27     0.083 C 
HETATM   33  C15   D T 500       5.765   5.062  -6.409  1.00 26.00     0.022 C 
HETATM   34  C14   D T 500       5.848   6.231  -7.378  1.00 27.32     0.002 C 
HETATM   35  C13   D T 500       7.042   6.064  -8.303  1.00 30.42     0.002 C 
HETATM   36  C12   D T 500       7.648   4.708  -7.965  1.00 25.87     0.022 C 
ENDBRANCH   2  32
BRANCH   4  37
HETATM   37  C9    D T 500       5.669   1.756  -7.687  1.00 27.17     0.032 C 
HETATM   38  C10   D T 500       5.225   2.177  -9.113  1.00 25.21     0.003 C 
ENDBRANCH   4  37
TORSDOF 7
ENDMDL
MODEL 2
REMARK VINA RESULT:    -7.695      6.187      8.848
REMARK INTER + INTRA:         -12.247
REMARK INTER:                 -11.422
REMARK INTRA:                  -0.825
REMARK UNBOUND:                -1.403
REMARK  7 active torsions:
REMARK  status: ('A' for Active; 'I' for Inactive)
REMARK    1  A    between atoms: N3_2  and  C8_7 
REMARK    2  A    between atoms: C5_4  and  C9_34 
REMARK    3  A    between atoms: C7_6  and  N5_28 
REMARK       I    between atoms: C21_13  and  N6_18 
REMARK    4  A    between atoms: C21_13  and  C18_23 
REMARK    5  A    between atoms: C22_14  and  N6_18 
REMARK    6  A    between atoms: C16_24  and  O3_25 
REMARK    7  A    between atoms: N5_28  and  C1_29 
ROOT
HETATM    1  N1    D T 500      10.845   9.467  -1.055  1.00 27.06    -0.056 NA
HETATM    2  N3    D T 500      10.482   5.443  -1.613  1.00 26.37    -0.328 N 
HETATM    3  C4    D T 500      11.750   8.666  -0.463  1.00 25.67     0.138 A 
HETATM    4  C5    D T 500      11.413   4.498  -0.959  1.00 25.49     0.162 A 
HETATM    5  C6    D T 500      12.553   5.111  -0.248  1.00 25.40     0.258 A 
HETATM    6  C1    D T 500       9.822   8.976  -1.776  1.00 25.59     0.752 A 
HETATM    7  N2    D T 500       9.701   7.660  -1.969  1.00 26.47    -0.041 NA
HETATM    8  C2    D T 500      10.617   6.819  -1.425  1.00 27.25     0.176 A 
HETATM    9  O1    D T 500      13.413   4.332   0.236  1.00 25.90    -0.270 OA
HETATM   10  N4    D T 500      12.640   6.437  -0.091  1.00 24.91    -0.292 N 
HETATM   11  C11   D T 500      13.743   7.071   0.661  1.00 26.11     0.134 C 
HETATM   12  C3    D T 500      11.659   7.306  -0.652  1.00 25.06     0.117 A 
ENDROOT
BRANCH   6  13
HETATM   13  N5    D T 500       8.983   9.872  -2.321  1.00 28.04    -0.057 NA
BRANCH  13  14
HETATM   14  C7    D T 500       8.503  11.031  -1.777  1.00 28.56     0.122 A 
HETATM   15  C20   D T 500       8.951  11.590  -0.582  1.00 29.54     0.022 A 
HETATM   16  C19   D T 500       8.398  12.805  -0.123  1.00 31.30     0.006 A 
HETATM   17  C18   D T 500       7.370  13.390  -0.878  1.00 30.71     0.060 A 
HETATM   18  C17   D T 500       6.918  12.806  -2.054  1.00 29.59     0.030 A 
HETATM   19  C16   D T 500       7.487  11.632  -2.516  1.00 30.85     0.113 A 
BRANCH  17  20
HETATM   20  C21   D T 500       6.706  14.688  -0.497  1.00 33.20     0.275 C 
HETATM   21  O2    D T 500       5.481  14.756  -0.573  1.00 35.96    -0.266 OA
HETATM   22  N6    D T 500       7.451  15.722  -0.158  1.00 37.33    -0.236 NA
BRANCH  22  23
HETATM   23  C22   D T 500       6.798  16.988   0.177  1.00 43.13     0.111 C 
HETATM   24  C29   D T 500       7.709  18.077  -0.384  1.00 44.78     0.060 C 
HETATM   25  C28   D T 500       7.433  19.462   0.219  1.00 46.83     0.252 C 
HETATM   26  N7    D T 500       7.343  19.432   1.695  1.00 47.55     0.139 N 
HETATM   27  C24   D T 500       6.346  18.436   2.130  1.00 48.06     0.252 C 
HETATM   28  C30   D T 500       6.872  20.738   2.191  1.00 49.74     0.285 C 
HETATM   29  C23   D T 500       6.811  17.051   1.691  1.00 44.59     0.060 C 
ENDBRANCH  22  23
ENDBRANCH  17  20
BRANCH  19  30
HETATM   30  O3    D T 500       7.082  11.034  -3.695  1.00 30.91    -0.327 OA
HETATM   31  C31   D T 500       5.928  11.432  -4.458  1.00 35.09     0.181 C 
ENDBRANCH  19  30
ENDBRANCH  13  14
ENDBRANCH   6  13
BRANCH   2  32
HETATM   32  C8    D T 500       9.352   5.023  -2.472  1.00 26.27     0.083 C 
HETATM   33  C15   D T 500       8.022   4.615  -1.853  1.00 26.00     0.022 C 
HETATM   34  C14   D T 500       7.430   3.678  -2.893  1.00 27.32     0.002 C 
HETATM   35  C13   D T 500       8.481   3.306  -3.926  1.00 30.42     0.002 C 
HETATM   36  C12   D T 500       9.780   3.945  -3.452  1.00 25.87     0.022 C 
ENDBRANCH   2  32
BRANCH   4  37
HETATM   37  C9    D T 500      10.598   3.892   0.226  1.00 27.17     0.032 C 
HETATM   38  C10   D T 500      10.197   2.395   0.141  1.00 25.21     0.003 C 
ENDBRANCH   4  37
TORSDOF 7
ENDMDL
MODEL 3
REMARK VINA RESULT:    -7.539      6.130      9.519
REMARK INTER + INTRA:         -12.026
REMARK INTER:                 -10.692
REMARK INTRA:                  -1.334
REMARK UNBOUND:                -1.403
REMARK  7 active torsions:
REMARK  status: ('A' for Active; 'I' for Inactive)
REMARK    1  A    between atoms: N3_2  and  C8_7 
REMARK    2  A    between atoms: C5_4  and  C9_34 
REMARK    3  A    between atoms: C7_6  and  N5_28 
REMARK       I    between atoms: C21_13  and  N6_18 
REMARK    4  A    between atoms: C21_13  and  C18_23 
REMARK    5  A    between atoms: C22_14  and  N6_18 
REMARK    6  A    between atoms: C16_24  and  O3_25 
REMARK    7  A    between atoms: N5_28  and  C1_29 
ROOT
HETATM    1  N1    D T 500       8.524   7.869  -1.275  1.00 27.06    -0.056 NA
HETATM    2  N3    D T 500      12.348   7.033  -0.125  1.00 26.37    -0.328 N 
HETATM    3  C4    D T 500       8.751   6.700  -0.646  1.00 25.67     0.138 A 
HETATM    4  C5    D T 500      12.681   5.750   0.532  1.00 25.49     0.162 A 
HETATM    5  C6    D T 500      11.531   4.893   0.882  1.00 25.40     0.258 A 
HETATM    6  C1    D T 500       9.519   8.728  -1.562  1.00 25.59     0.752 A 
HETATM    7  N2    D T 500      10.772   8.464  -1.182  1.00 26.47    -0.041 NA
HETATM    8  C2    D T 500      11.036   7.317  -0.508  1.00 27.25     0.176 A 
HETATM    9  O1    D T 500      11.774   3.841   1.526  1.00 25.90    -0.270 OA
HETATM   10  N4    D T 500      10.289   5.204   0.492  1.00 24.91    -0.292 N 
HETATM   11  C11   D T 500       9.129   4.338   0.785  1.00 26.11     0.134 C 
HETATM   12  C3    D T 500      10.030   6.405  -0.232  1.00 25.06     0.117 A 
ENDROOT
BRANCH   6  13
HETATM   13  N5    D T 500       9.172   9.864  -2.190  1.00 28.04    -0.057 NA
BRANCH  13  14
HETATM   14  C7    D T 500       8.695  11.026  -1.648  1.00 28.56     0.122 A 
HETATM   15  C20   D T 500       9.143  11.584  -0.453  1.00 29.54     0.022 A 
HETATM   16  C19   D T 500       8.594  12.802   0.002  1.00 31.30     0.006 A 
HETATM   17  C18   D T 500       7.571  13.390  -0.756  1.00 30.71     0.060 A 
HETATM   18  C17   D T 500       7.119  12.807  -1.932  1.00 29.59     0.030 A 
HETATM   19  C16   D T 500       7.684  11.630  -2.391  1.00 30.85     0.113 A 
BRANCH  17  20
HETATM   20  C21   D T 500       6.910  14.692  -0.379  1.00 33.20     0.275 C 
HETATM   21  O2    D T 500       5.684  14.721  -0.308  1.00 35.96    -0.266 OA
HETATM   22  N6    D T 500       7.654  15.767  -0.199  1.00 37.33    -0.236 NA
BRANCH  22  23
HETATM   23  C22   D T 500       7.001  17.034   0.132  1.00 43.13     0.111 C 
HETATM   24  C29   D T 500       7.913  18.121  -0.429  1.00 44.78     0.060 C 
HETATM   25  C28   D T 500       7.637  19.508   0.171  1.00 46.83     0.252 C 
HETATM   26  N7    D T 500       7.545  19.481   1.647  1.00 47.55     0.139 N 
HETATM   27  C24   D T 500       6.548  18.485   2.083  1.00 48.06     0.252 C 
HETATM   28  C30   D T 500       7.075  20.788   2.141  1.00 49.74     0.285 C 
HETATM   29  C23   D T 500       7.013  17.099   1.647  1.00 44.59     0.060 C 
ENDBRANCH  22  23
ENDBRANCH  17  20
BRANCH  19  30
HETATM   30  O3    D T 500       7.280  11.032  -3.571  1.00 30.91    -0.327 OA
HETATM   31  C31   D T 500       6.098  11.396  -4.308  1.00 35.09     0.181 C 
ENDBRANCH  19  30
ENDBRANCH  13  14
ENDBRANCH   6  13
BRANCH   2  32
HETATM   32  C8    D T 500      13.347   8.078  -0.442  1.00 26.27     0.083 C 
HETATM   33  C15   D T 500      14.150   8.011  -1.735  1.00 26.00     0.022 C 
HETATM   34  C14   D T 500      15.420   8.773  -1.392  1.00 27.32     0.002 C 
HETATM   35  C13   D T 500      15.502   9.011   0.106  1.00 30.42     0.002 C 
HETATM   36  C12   D T 500      14.308   8.287   0.713  1.00 25.87     0.022 C 
ENDBRANCH   2  32
BRANCH   4  37
HETATM   37  C9    D T 500      13.372   4.901  -0.581  1.00 27.17     0.032 C 
HETATM   38  C10   D T 500      14.788   4.338  -0.289  1.00 25.21     0.003 C 
ENDBRANCH   4  37
TORSDOF 7
ENDMDL
MODEL 4
REMARK VINA RESULT:    -7.370      6.783     10.612
REMARK INTER + INTRA:         -11.789
REMARK INTER:                 -10.631
REMARK INTRA:                  -1.159
REMARK UNBOUND:                -1.403
REMARK  7 active torsions:
REMARK  status: ('A' for Active; 'I' for Inactive)
REMARK    1  A    between atoms: N3_2  and  C8_7 
REMARK    2  A    between atoms: C5_4  and  C9_34 
REMARK    3  A    between atoms: C7_6  and  N5_28 
REMARK       I    between atoms: C21_13  and  N6_18 
REMARK    4  A    between atoms: C21_13  and  C18_23 
REMARK    5  A    between atoms: C22_14  and  N6_18 
REMARK    6  A    between atoms: C16_24  and  O3_25 
REMARK    7  A    between atoms: N5_28  and  C1_29 
ROOT
HETATM    1  N1    D T 500       9.286   7.789  -1.772  1.00 27.06    -0.056 NA
HETATM    2  N3    D T 500      12.658   9.473  -0.210  1.00 26.37    -0.328 N 
HETATM    3  C4    D T 500      10.291   6.969  -1.413  1.00 25.67     0.138 A 
HETATM    4  C5    D T 500      13.820   8.638   0.166  1.00 25.49     0.162 A 
HETATM    5  C6    D T 500      13.609   7.178   0.095  1.00 25.40     0.258 A 
HETATM    6  C1    D T 500       9.386   9.127  -1.666  1.00 25.59     0.752 A 
HETATM    7  N2    D T 500      10.484   9.684  -1.149  1.00 26.47    -0.041 NA
HETATM    8  C2    D T 500      11.504   8.890  -0.735  1.00 27.25     0.176 A 
HETATM    9  O1    D T 500      14.545   6.443   0.500  1.00 25.90    -0.270 OA
HETATM   10  N4    D T 500      12.486   6.664  -0.419  1.00 24.91    -0.292 N 
HETATM   11  C11   D T 500      12.272   5.208  -0.548  1.00 26.11     0.134 C 
HETATM   12  C3    D T 500      11.431   7.512  -0.866  1.00 25.06     0.117 A 
ENDROOT
BRANCH   6  13
HETATM   13  N5    D T 500       8.319   9.844  -2.053  1.00 28.04    -0.057 NA
BRANCH  13  14
HETATM   14  C7    D T 500       8.036  11.158  -1.799  1.00 28.56     0.122 A 
HETATM   15  C20   D T 500       8.385  11.831  -0.630  1.00 29.54     0.022 A 
HETATM   16  C19   D T 500       8.060  13.196  -0.482  1.00 31.30     0.006 A 
HETATM   17  C18   D T 500       7.349  13.822  -1.516  1.00 30.71     0.060 A 
HETATM   18  C17   D T 500       6.988  13.130  -2.664  1.00 29.59     0.030 A 
HETATM   19  C16   D T 500       7.337  11.800  -2.818  1.00 30.85     0.113 A 
BRANCH  17  20
HETATM   20  C21   D T 500       6.951  15.276  -1.480  1.00 33.20     0.275 C 
HETATM   21  O2    D T 500       7.237  15.979  -2.447  1.00 35.96    -0.266 OA
HETATM   22  N6    D T 500       6.371  15.762  -0.399  1.00 37.33    -0.236 NA
BRANCH  22  23
HETATM   23  C22   D T 500       6.020  17.181  -0.360  1.00 43.13     0.111 C 
HETATM   24  C29   D T 500       6.204  17.607   1.094  1.00 44.78     0.060 C 
HETATM   25  C28   D T 500       5.492  18.926   1.430  1.00 46.83     0.252 C 
HETATM   26  N7    D T 500       4.094  18.956   0.951  1.00 47.55     0.139 N 
HETATM   27  C24   D T 500       4.037  18.654  -0.492  1.00 48.06     0.252 C 
HETATM   28  C30   D T 500       3.540  20.312   1.116  1.00 49.74     0.285 C 
HETATM   29  C23   D T 500       4.547  17.234  -0.718  1.00 44.59     0.060 C 
ENDBRANCH  22  23
ENDBRANCH  17  20
BRANCH  19  30
HETATM   30  O3    D T 500       7.018  11.083  -3.957  1.00 30.91    -0.327 OA
HETATM   31  C31   D T 500       5.710  11.043  -4.557  1.00 35.09     0.181 C 
ENDBRANCH  19  30
ENDBRANCH  13  14
ENDBRANCH   6  13
BRANCH   2  32
HETATM   32  C8    D T 500      12.631  10.948  -0.088  1.00 26.27     0.083 C 
HETATM   33  C15   D T 500      13.036  11.826  -1.264  1.00 26.00     0.022 C 
HETATM   34  C14   D T 500      13.507  13.106  -0.593  1.00 27.32     0.002 C 
HETATM   35  C13   D T 500      13.665  12.888   0.903  1.00 30.42     0.002 C 
HETATM   36  C12   D T 500      13.387  11.410   1.143  1.00 25.87     0.022 C 
ENDBRANCH   2  32
BRANCH   4  37
HETATM   37  C9    D T 500      14.856   8.858  -0.981  1.00 27.17     0.032 C 
HETATM   38  C10   D T 500      16.107   9.722  -0.671  1.00 25.21     0.003 C 
ENDBRANCH   4  37
TORSDOF 7
ENDMDL
MODEL 5
REMARK VINA RESULT:    -7.064      5.053      7.292
REMARK INTER + INTRA:         -11.357
REMARK INTER:                  -9.986
REMARK INTRA:                  -1.371
REMARK UNBOUND:                -1.403
REMARK  7 active torsions:
REMARK  status: ('A' for Active; 'I' for Inactive)
REMARK    1  A    between atoms: N3_2  and  C8_7 
REMARK    2  A    between atoms: C5_4  and  C9_34 
REMARK    3  A    between atoms: C7_6  and  N5_28 
REMARK       I    between atoms: C21_13  and  N6_18 
REMARK    4  A    between atoms: C21_13  and  C18_23 
REMARK    5  A    between atoms: C22_14  and  N6_18 
REMARK    6  A    between atoms: C16_24  and  O3_25 
REMARK    7  A    between atoms: N5_28  and  C1_29 
ROOT
HETATM    1  N1    D T 500      11.779   6.491   0.364  1.00 27.06    -0.056 NA
HETATM    2  N3    D T 500      10.398   3.623  -2.188  1.00 26.37    -0.328 N 
HETATM    3  C4    D T 500      11.663   5.234   0.832  1.00 25.67     0.138 A 
HETATM    4  C5    D T 500      10.204   2.230  -1.732  1.00 25.49     0.162 A 
HETATM    5  C6    D T 500      10.693   1.927  -0.372  1.00 25.40     0.258 A 
HETATM    6  C1    D T 500      11.416   6.820  -0.890  1.00 25.59     0.752 A 
HETATM    7  N2    D T 500      10.970   5.885  -1.732  1.00 26.47    -0.041 NA
HETATM    8  C2    D T 500      10.879   4.598  -1.313  1.00 27.25     0.176 A 
HETATM    9  O1    D T 500      10.629   0.730   0.008  1.00 25.90    -0.270 OA
HETATM   10  N4    D T 500      11.145   2.895   0.434  1.00 24.91    -0.292 N 
HETATM   11  C11   D T 500      11.592   2.626   1.816  1.00 26.11     0.134 C 
HETATM   12  C3    D T 500      11.218   4.247  -0.015  1.00 25.06     0.117 A 
ENDROOT
BRANCH   6  13
HETATM   13  N5    D T 500      11.579   8.105  -1.246  1.00 28.04    -0.057 NA
BRANCH  13  14
HETATM   14  C7    D T 500      10.800   9.183  -0.928  1.00 28.56     0.122 A 
HETATM   15  C20   D T 500       9.411   9.154  -0.825  1.00 29.54     0.022 A 
HETATM   16  C19   D T 500       8.709  10.325  -0.469  1.00 31.30     0.006 A 
HETATM   17  C18   D T 500       9.444  11.503  -0.271  1.00 30.71     0.060 A 
HETATM   18  C17   D T 500      10.826  11.520  -0.402  1.00 29.59     0.030 A 
HETATM   19  C16   D T 500      11.514  10.361  -0.720  1.00 30.85     0.113 A 
BRANCH  17  20
HETATM   20  C21   D T 500       8.811  12.814   0.119  1.00 33.20     0.275 C 
HETATM   21  O2    D T 500       9.167  13.339   1.172  1.00 35.96    -0.266 OA
HETATM   22  N6    D T 500       7.858  13.324  -0.638  1.00 37.33    -0.236 NA
BRANCH  22  23
HETATM   23  C22   D T 500       7.226  14.579  -0.233  1.00 43.13     0.111 C 
HETATM   24  C29   D T 500       5.749  14.423  -0.584  1.00 44.78     0.060 C 
HETATM   25  C28   D T 500       4.997  15.761  -0.634  1.00 46.83     0.252 C 
HETATM   26  N7    D T 500       5.713  16.787  -1.422  1.00 47.55     0.139 N 
HETATM   27  C24   D T 500       7.092  16.951  -0.923  1.00 48.06     0.252 C 
HETATM   28  C30   D T 500       5.051  18.094  -1.257  1.00 49.74     0.285 C 
HETATM   29  C23   D T 500       7.846  15.639  -1.122  1.00 44.59     0.060 C 
ENDBRANCH  22  23
ENDBRANCH  17  20
BRANCH  19  30
HETATM   30  O3    D T 500      12.891  10.332  -0.833  1.00 30.91    -0.327 OA
HETATM   31  C31   D T 500      13.741  11.492  -0.765  1.00 35.09     0.181 C 
ENDBRANCH  19  30
ENDBRANCH  13  14
ENDBRANCH   6  13
BRANCH   2  32
HETATM   32  C8    D T 500      10.087   4.092  -3.557  1.00 26.27     0.083 C 
HETATM   33  C15   D T 500       8.696   4.612  -3.897  1.00 26.00     0.022 C 
HETATM   34  C14   D T 500       8.585   4.351  -5.390  1.00 27.32     0.002 C 
HETATM   35  C13   D T 500       9.716   3.446  -5.851  1.00 30.42     0.002 C 
HETATM   36  C12   D T 500      10.481   3.056  -4.594  1.00 25.87     0.022 C 
ENDBRANCH   2  32
BRANCH   4  37
HETATM   37  C9    D T 500       8.660   2.084  -1.546  1.00 27.17     0.032 C 
HETATM   38  C10   D T 500       7.861   1.354  -2.658  1.00 25.21     0.003 C 
ENDBRANCH   4  37
TORSDOF 7
ENDMDL
MODEL 6
REMARK VINA RESULT:    -7.050      3.920     10.532
REMARK INTER + INTRA:         -11.338
REMARK INTER:                 -10.226
REMARK INTRA:                  -1.112
REMARK UNBOUND:                -1.403
REMARK  7 active torsions:
REMARK  status: ('A' for Active; 'I' for Inactive)
REMARK    1  A    between atoms: N3_2  and  C8_7 
REMARK    2  A    between atoms: C5_4  and  C9_34 
REMARK    3  A    between atoms: C7_6  and  N5_28 
REMARK       I    between atoms: C21_13  and  N6_18 
REMARK    4  A    between atoms: C21_13  and  C18_23 
REMARK    5  A    between atoms: C22_14  and  N6_18 
REMARK    6  A    between atoms: C16_24  and  O3_25 
REMARK    7  A    between atoms: N5_28  and  C1_29 
ROOT
HETATM    1  N1    D T 500       9.528   8.053  -1.995  1.00 27.06    -0.056 NA
HETATM    2  N3    D T 500      11.807  10.496   0.346  1.00 26.37    -0.328 N 
HETATM    3  C4    D T 500       9.032   9.263  -1.678  1.00 25.67     0.138 A 
HETATM    4  C5    D T 500      11.309  11.822   0.771  1.00 25.49     0.162 A 
HETATM    5  C6    D T 500      10.034  12.253   0.162  1.00 25.40     0.258 A 
HETATM    6  C1    D T 500      10.717   7.627  -1.531  1.00 25.59     0.752 A 
HETATM    7  N2    D T 500      11.471   8.424  -0.770  1.00 26.47    -0.041 NA
HETATM    8  C2    D T 500      11.026   9.668  -0.463  1.00 27.25     0.176 A 
HETATM    9  O1    D T 500       9.634  13.414   0.429  1.00 25.90    -0.270 OA
HETATM   10  N4    D T 500       9.318  11.424  -0.606  1.00 24.91    -0.292 N 
HETATM   11  C11   D T 500       8.015  11.812  -1.185  1.00 26.11     0.134 C 
HETATM   12  C3    D T 500       9.790  10.112  -0.905  1.00 25.06     0.117 A 
ENDROOT
BRANCH   6  13
HETATM   13  N5    D T 500      11.110   6.402  -1.916  1.00 28.04    -0.057 NA
BRANCH  13  14
HETATM   14  C7    D T 500      10.998   5.218  -1.240  1.00 28.56     0.122 A 
HETATM   15  C20   D T 500      11.379   5.025   0.087  1.00 29.54     0.022 A 
HETATM   16  C19   D T 500      11.199   3.763   0.692  1.00 31.30     0.006 A 
HETATM   17  C18   D T 500      10.675   2.723  -0.090  1.00 30.71     0.060 A 
HETATM   18  C17   D T 500      10.323   2.926  -1.417  1.00 29.59     0.030 A 
HETATM   19  C16   D T 500      10.472   4.174  -1.997  1.00 30.85     0.113 A 
BRANCH  17  20
HETATM   20  C21   D T 500      10.429   1.335   0.444  1.00 33.20     0.275 C 
HETATM   21  O2    D T 500       9.275   1.019   0.727  1.00 35.96    -0.266 OA
HETATM   22  N6    D T 500      11.453   0.529   0.649  1.00 37.33    -0.236 NA
BRANCH  22  23
HETATM   23  C22   D T 500      11.207  -0.804   1.199  1.00 43.13     0.111 C 
HETATM   24  C29   D T 500      12.272  -1.004   2.274  1.00 44.78     0.060 C 
HETATM   25  C28   D T 500      12.457  -2.476   2.672  1.00 46.83     0.252 C 
HETATM   26  N7    D T 500      12.587  -3.370   1.501  1.00 47.55     0.139 N 
HETATM   27  C24   D T 500      11.445  -3.189   0.585  1.00 48.06     0.252 C 
HETATM   28  C30   D T 500      12.550  -4.776   1.942  1.00 49.74     0.285 C 
HETATM   29  C23   D T 500      11.465  -1.760   0.051  1.00 44.59     0.060 C 
ENDBRANCH  22  23
ENDBRANCH  17  20
BRANCH  19  30
HETATM   30  O3    D T 500      10.110   4.423  -3.308  1.00 30.91    -0.327 OA
HETATM   31  C31   D T 500       9.073   3.720  -4.017  1.00 35.09     0.181 C 
ENDBRANCH  19  30
ENDBRANCH  13  14
ENDBRANCH   6  13
BRANCH   2  32
HETATM   32  C8    D T 500      13.120   9.943   0.748  1.00 26.27     0.083 C 
HETATM   33  C15   D T 500      13.271   9.197   2.067  1.00 26.00     0.022 C 
HETATM   34  C14   D T 500      14.740   9.392   2.407  1.00 27.32     0.002 C 
HETATM   35  C13   D T 500      15.352  10.451   1.506  1.00 30.42     0.002 C 
HETATM   36  C12   D T 500      14.209  10.996   0.661  1.00 25.87     0.022 C 
ENDBRANCH   2  32
BRANCH   4  37
HETATM   37  C9    D T 500      10.891  11.631   2.263  1.00 27.17     0.032 C 
HETATM   38  C10   D T 500       9.825  10.550   2.585  1.00 25.21     0.003 C 
ENDBRANCH   4  37
TORSDOF 7
ENDMDL
MODEL 7
REMARK VINA RESULT:    -6.966      6.251     12.402
REMARK INTER + INTRA:         -11.219
REMARK INTER:                  -9.737
REMARK INTRA:                  -1.482
REMARK UNBOUND:                -1.403
REMARK  7 active torsions:
REMARK  status: ('A' for Active; 'I' for Inactive)
REMARK    1  A    between atoms: N3_2  and  C8_7 
REMARK    2  A    between atoms: C5_4  and  C9_34 
REMARK    3  A    between atoms: C7_6  and  N5_28 
REMARK       I    between atoms: C21_13  and  N6_18 
REMARK    4  A    between atoms: C21_13  and  C18_23 
REMARK    5  A    between atoms: C22_14  and  N6_18 
REMARK    6  A    between atoms: C16_24  and  O3_25 
REMARK    7  A    between atoms: N5_28  and  C1_29 
ROOT
HETATM    1  N1    D T 500      11.592  13.731   0.141  1.00 27.06    -0.056 NA
HETATM    2  N3    D T 500       9.126  16.926  -0.452  1.00 26.37    -0.328 N 
HETATM    3  C4    D T 500      12.151  14.897  -0.233  1.00 25.67     0.138 A 
HETATM    4  C5    D T 500       9.663  18.227  -0.906  1.00 25.49     0.162 A 
HETATM    5  C6    D T 500      11.135  18.327  -0.963  1.00 25.40     0.258 A 
HETATM    6  C1    D T 500      10.261  13.591   0.280  1.00 25.59     0.752 A 
HETATM    7  N2    D T 500       9.449  14.635   0.094  1.00 26.47    -0.041 NA
HETATM    8  C2    D T 500       9.976  15.839  -0.242  1.00 27.25     0.176 A 
HETATM    9  O1    D T 500      11.624  19.449  -1.252  1.00 25.90    -0.270 OA
HETATM   10  N4    D T 500      11.912  17.257  -0.755  1.00 24.91    -0.292 N 
HETATM   11  C11   D T 500      13.384  17.319  -0.857  1.00 26.11     0.134 C 
HETATM   12  C3    D T 500      11.342  15.993  -0.421  1.00 25.06     0.117 A 
ENDROOT
BRANCH   6  13
HETATM   13  N5    D T 500       9.819  12.382   0.660  1.00 28.04    -0.057 NA
BRANCH  13  14
HETATM   14  C7    D T 500       9.908  11.192  -0.009  1.00 28.56     0.122 A 
HETATM   15  C20   D T 500       9.204  10.882  -1.171  1.00 29.54     0.022 A 
HETATM   16  C19   D T 500       9.390   9.628  -1.791  1.00 31.30     0.006 A 
HETATM   17  C18   D T 500      10.257   8.710  -1.180  1.00 30.71     0.060 A 
HETATM   18  C17   D T 500      10.932   9.026  -0.009  1.00 29.59     0.030 A 
HETATM   19  C16   D T 500      10.771  10.270   0.578  1.00 30.85     0.113 A 
BRANCH  17  20
HETATM   20  C21   D T 500      10.544   7.344  -1.748  1.00 33.20     0.275 C 
HETATM   21  O2    D T 500      11.701   6.931  -1.710  1.00 35.96    -0.266 OA
HETATM   22  N6    D T 500       9.569   6.663  -2.320  1.00 37.33    -0.236 NA
BRANCH  22  23
HETATM   23  C22   D T 500       9.865   5.352  -2.899  1.00 43.13     0.111 C 
HETATM   24  C29   D T 500       9.870   5.566  -4.410  1.00 44.78     0.060 C 
HETATM   25  C28   D T 500       9.739   4.258  -5.205  1.00 46.83     0.252 C 
HETATM   26  N7    D T 500       8.644   3.399  -4.708  1.00 47.55     0.139 N 
HETATM   27  C24   D T 500       8.799   3.149  -3.262  1.00 48.06     0.252 C 
HETATM   28  C30   D T 500       8.706   2.082  -5.367  1.00 49.74     0.285 C 
HETATM   29  C23   D T 500       8.686   4.477  -2.519  1.00 44.59     0.060 C 
ENDBRANCH  22  23
ENDBRANCH  17  20
BRANCH  19  30
HETATM   30  O3    D T 500      11.445  10.631   1.730  1.00 30.91    -0.327 OA
HETATM   31  C31   D T 500      12.810  10.279   2.022  1.00 35.09     0.181 C 
ENDBRANCH  19  30
ENDBRANCH  13  14
ENDBRANCH   6  13
BRANCH   2  32
HETATM   32  C8    D T 500       7.688  16.668  -0.213  1.00 26.27     0.083 C 
HETATM   33  C15   D T 500       6.794  16.176  -1.344  1.00 26.00     0.022 C 
HETATM   34  C14   D T 500       5.415  16.662  -0.931  1.00 27.32     0.002 C 
HETATM   35  C13   D T 500       5.528  17.651   0.217  1.00 30.42     0.002 C 
HETATM   36  C12   D T 500       7.019  17.859   0.447  1.00 25.87     0.022 C 
ENDBRANCH   2  32
BRANCH   4  37
HETATM   37  C9    D T 500       9.289  18.306  -2.419  1.00 27.17     0.032 C 
HETATM   38  C10   D T 500       8.185  19.311  -2.842  1.00 25.21     0.003 C 
ENDBRANCH   4  37
TORSDOF 7
ENDMDL
MODEL 8
REMARK VINA RESULT:    -6.934      5.196      7.848
REMARK INTER + INTRA:         -11.174
REMARK INTER:                 -10.070
REMARK INTRA:                  -1.104
REMARK UNBOUND:                -1.403
REMARK  7 active torsions:
REMARK  status: ('A' for Active; 'I' for Inactive)
REMARK    1  A    between atoms: N3_2  and  C8_7 
REMARK    2  A    between atoms: C5_4  and  C9_34 
REMARK    3  A    between atoms: C7_6  and  N5_28 
REMARK       I    between atoms: C21_13  and  N6_18 
REMARK    4  A    between atoms: C21_13  and  C18_23 
REMARK    5  A    between atoms: C22_14  and  N6_18 
REMARK    6  A    between atoms: C16_24  and  O3_25 
REMARK    7  A    between atoms: N5_28  and  C1_29 
ROOT
HETATM    1  N1    D T 500      10.269   6.981  -2.851  1.00 27.06    -0.056 NA
HETATM    2  N3    D T 500      10.463   3.346  -1.010  1.00 26.37    -0.328 N 
HETATM    3  C4    D T 500       9.805   5.911  -3.522  1.00 25.67     0.138 A 
HETATM    4  C5    D T 500      10.012   2.119  -1.702  1.00 25.49     0.162 A 
HETATM    5  C6    D T 500       9.350   2.326  -3.005  1.00 25.40     0.258 A 
HETATM    6  C1    D T 500      10.821   6.872  -1.629  1.00 25.59     0.752 A 
HETATM    7  N2    D T 500      10.881   5.686  -1.018  1.00 26.47    -0.041 NA
HETATM    8  C2    D T 500      10.386   4.588  -1.642  1.00 27.25     0.176 A 
HETATM    9  O1    D T 500       8.870   1.311  -3.573  1.00 25.90    -0.270 OA
HETATM   10  N4    D T 500       9.301   3.536  -3.575  1.00 24.91    -0.292 N 
HETATM   11  C11   D T 500       8.689   3.759  -4.901  1.00 26.11     0.134 C 
HETATM   12  C3    D T 500       9.842   4.677  -2.914  1.00 25.06     0.117 A 
ENDROOT
BRANCH   6  13
HETATM   13  N5    D T 500      11.247   8.010  -1.056  1.00 28.04    -0.057 NA
BRANCH  13  14
HETATM   14  C7    D T 500      10.554   9.170  -0.846  1.00 28.56     0.122 A 
HETATM   15  C20   D T 500       9.167   9.286  -0.907  1.00 29.54     0.022 A 
HETATM   16  C19   D T 500       8.554  10.530  -0.651  1.00 31.30     0.006 A 
HETATM   17  C18   D T 500       9.380  11.632  -0.383  1.00 30.71     0.060 A 
HETATM   18  C17   D T 500      10.762  11.504  -0.350  1.00 29.59     0.030 A 
HETATM   19  C16   D T 500      11.357  10.274  -0.570  1.00 30.85     0.113 A 
BRANCH  17  20
HETATM   20  C21   D T 500       8.846  13.010  -0.087  1.00 33.20     0.275 C 
HETATM   21  O2    D T 500       9.469  13.715   0.704  1.00 35.96    -0.266 OA
HETATM   22  N6    D T 500       7.706  13.393  -0.629  1.00 37.33    -0.236 NA
BRANCH  22  23
HETATM   23  C22   D T 500       7.179  14.719  -0.309  1.00 43.13     0.111 C 
HETATM   24  C29   D T 500       5.663  14.600  -0.448  1.00 44.78     0.060 C 
HETATM   25  C28   D T 500       4.961  15.960  -0.570  1.00 46.83     0.252 C 
HETATM   26  N7    D T 500       5.604  16.845  -1.565  1.00 47.55     0.139 N 
HETATM   27  C24   D T 500       7.041  16.995  -1.269  1.00 48.06     0.252 C 
HETATM   28  C30   D T 500       5.017  18.195  -1.484  1.00 49.74     0.285 C 
HETATM   29  C23   D T 500       7.714  15.631  -1.396  1.00 44.59     0.060 C 
ENDBRANCH  22  23
ENDBRANCH  17  20
BRANCH  19  30
HETATM   30  O3    D T 500      12.728  10.101  -0.520  1.00 30.91    -0.327 OA
HETATM   31  C31   D T 500      13.667  10.768  -1.383  1.00 35.09     0.181 C 
ENDBRANCH  19  30
ENDBRANCH  13  14
ENDBRANCH   6  13
BRANCH   2  32
HETATM   32  C8    D T 500      11.036   3.358   0.354  1.00 26.27     0.083 C 
HETATM   33  C15   D T 500      12.539   3.223   0.561  1.00 26.00     0.022 C 
HETATM   34  C14   D T 500      12.644   2.628   1.956  1.00 27.32     0.002 C 
HETATM   35  C13   D T 500      11.281   2.149   2.427  1.00 30.42     0.002 C 
HETATM   36  C12   D T 500      10.334   2.357   1.253  1.00 25.87     0.022 C 
ENDBRANCH   2  32
BRANCH   4  37
HETATM   37  C9    D T 500      11.329   1.400  -2.134  1.00 27.17     0.032 C 
HETATM   38  C10   D T 500      11.784   0.164  -1.313  1.00 25.21     0.003 C 
ENDBRANCH   4  37
TORSDOF 7
ENDMDL
MODEL 9
REMARK VINA RESULT:    -6.242     17.592     20.085
REMARK INTER + INTRA:         -10.199
REMARK INTER:                  -8.606
REMARK INTRA:                  -1.593
REMARK UNBOUND:                -1.403
REMARK  7 active torsions:
REMARK  status: ('A' for Active; 'I' for Inactive)
REMARK    1  A    between atoms: N3_2  and  C8_7 
REMARK    2  A    between atoms: C5_4  and  C9_34 
REMARK    3  A    between atoms: C7_6  and  N5_28 
REMARK       I    between atoms: C21_13  and  N6_18 
REMARK    4  A    between atoms: C21_13  and  C18_23 
REMARK    5  A    between atoms: C22_14  and  N6_18 
REMARK    6  A    between atoms: C16_24  and  O3_25 
REMARK    7  A    between atoms: N5_28  and  C1_29 
ROOT
HETATM    1  N1    D T 500       4.791  15.060 -20.386  1.00 27.06    -0.056 NA
HETATM    2  N3    D T 500       6.483  16.916 -17.172  1.00 26.37    -0.328 N 
HETATM    3  C4    D T 500       4.042  15.948 -19.706  1.00 25.67     0.138 A 
HETATM    4  C5    D T 500       5.707  17.871 -16.351  1.00 25.49     0.162 A 
HETATM    5  C6    D T 500       4.369  18.220 -16.868  1.00 25.40     0.258 A 
HETATM    6  C1    D T 500       6.045  14.749 -20.010  1.00 25.59     0.752 A 
HETATM    7  N2    D T 500       6.607  15.358 -18.963  1.00 26.47    -0.041 NA
HETATM    8  C2    D T 500       5.902  16.291 -18.276  1.00 27.25     0.176 A 
HETATM    9  O1    D T 500       3.724  19.101 -16.244  1.00 25.90    -0.270 OA
HETATM   10  N4    D T 500       3.850  17.592 -17.930  1.00 24.91    -0.292 N 
HETATM   11  C11   D T 500       2.493  17.886 -18.435  1.00 26.11     0.134 C 
HETATM   12  C3    D T 500       4.597  16.601 -18.630  1.00 25.06     0.117 A 
ENDROOT
BRANCH   6  13
HETATM   13  N5    D T 500       6.696  13.851 -20.767  1.00 28.04    -0.057 NA
BRANCH  13  14
HETATM   14  C7    D T 500       8.041  13.739 -20.989  1.00 28.56     0.122 A 
HETATM   15  C20   D T 500       8.754  14.484 -21.926  1.00 29.54     0.022 A 
HETATM   16  C19   D T 500      10.147  14.300 -22.057  1.00 31.30     0.006 A 
HETATM   17  C18   D T 500      10.764  13.327 -21.256  1.00 30.71     0.060 A 
HETATM   18  C17   D T 500      10.034  12.576 -20.345  1.00 29.59     0.030 A 
HETATM   19  C16   D T 500       8.674  12.783 -20.197  1.00 30.85     0.113 A 
BRANCH  17  20
HETATM   20  C21   D T 500      12.243  13.044 -21.298  1.00 33.20     0.275 C 
HETATM   21  O2    D T 500      12.730  12.656 -22.358  1.00 35.96    -0.266 OA
HETATM   22  N6    D T 500      12.956  13.157 -20.193  1.00 37.33    -0.236 NA
BRANCH  22  23
HETATM   23  C22   D T 500      14.385  12.846 -20.236  1.00 43.13     0.111 C 
HETATM   24  C29   D T 500      14.701  12.195 -18.892  1.00 44.78     0.060 C 
HETATM   25  C28   D T 500      16.202  12.181 -18.568  1.00 46.83     0.252 C 
HETATM   26  N7    D T 500      16.842  13.497 -18.781  1.00 47.55     0.139 N 
HETATM   27  C24   D T 500      16.581  13.981 -20.149  1.00 48.06     0.252 C 
HETATM   28  C30   D T 500      18.305  13.364 -18.656  1.00 49.74     0.285 C 
HETATM   29  C23   D T 500      15.080  14.191 -20.319  1.00 44.59     0.060 C 
ENDBRANCH  22  23
ENDBRANCH  17  20
BRANCH  19  30
HETATM   30  O3    D T 500       7.917  12.073 -19.283  1.00 30.91    -0.327 OA
HETATM   31  C31   D T 500       7.586  10.678 -19.405  1.00 35.09     0.181 C 
ENDBRANCH  19  30
ENDBRANCH  13  14
ENDBRANCH   6  13
BRANCH   2  32
HETATM   32  C8    D T 500       7.886  16.538 -16.888  1.00 26.27     0.083 C 
HETATM   33  C15   D T 500       8.197  15.365 -15.967  1.00 26.00     0.022 C 
HETATM   34  C14   D T 500       9.575  15.708 -15.425  1.00 27.32     0.002 C 
HETATM   35  C13   D T 500       9.929  17.147 -15.761  1.00 30.42     0.002 C 
HETATM   36  C12   D T 500       8.697  17.737 -16.434  1.00 25.87     0.022 C 
ENDBRANCH   2  32
BRANCH   4  37
HETATM   37  C9    D T 500       5.343  17.079 -15.056  1.00 27.17     0.032 C 
HETATM   38  C10   D T 500       6.079  17.456 -13.743  1.00 25.21     0.003 C 
ENDBRANCH   4  37
TORSDOF 7
ENDMDL
