MODEL 1
REMARK VINA RESULT:    -8.310      0.000      0.000
REMARK INTER + INTRA:         -12.992
REMARK INTER:                 -11.710
REMARK INTRA:                  -1.282
REMARK UNBOUND:                -1.282
REMARK  7 active torsions:
REMARK  status: ('A' for Active; 'I' for Inactive)
REMARK    1  A    between atoms: N3_2  and  C8_7 
REMARK    2  A    between atoms: C5_4  and  C9_34 
REMARK    3  A    between atoms: C7_6  and  N5_28 
REMARK       I    between atoms: C21_13  and  N6_18 
REMARK    4  A    between atoms: C21_13  and  C18_23 
REMARK    5  A    between atoms: C22_14  and  N6_18 
REMARK    6  A    between atoms: C16_24  and  O3_25 
REMARK    7  A    between atoms: N5_28  and  C1_29 
ROOT
HETATM    1  N1    D T 500     -13.545   6.568  -1.560  1.00 27.06    -0.056 NA
HETATM    2  N3    D T 500     -16.978   4.658  -0.456  1.00 26.37    -0.328 N 
HETATM    3  C4    D T 500     -14.037   6.815  -0.332  1.00 25.67     0.138 A 
HETATM    4  C5    D T 500     -17.599   4.915   0.861  1.00 25.49     0.162 A 
HETATM    5  C6    D T 500     -16.817   5.759   1.784  1.00 25.40     0.258 A 
HETATM    6  C1    D T 500     -14.173   5.752  -2.427  1.00 25.59     0.752 A 
HETATM    7  N2    D T 500     -15.293   5.118  -2.070  1.00 26.47    -0.041 NA
HETATM    8  C2    D T 500     -15.798   5.308  -0.825  1.00 27.25     0.176 A 
HETATM    9  O1    D T 500     -17.274   5.916   2.946  1.00 25.90    -0.270 OA
HETATM   10  N4    D T 500     -15.691   6.364   1.388  1.00 24.91    -0.292 N 
HETATM   11  C11   D T 500     -14.918   7.255   2.277  1.00 26.11     0.134 C 
HETATM   12  C3    D T 500     -15.183   6.170   0.069  1.00 25.06     0.117 A 
ENDROOT
BRANCH   6  13
HETATM   13  N5    D T 500     -13.587   5.578  -3.623  1.00 28.04    -0.057 NA
BRANCH  13  14
HETATM   14  C7    D T 500     -13.574   4.459  -4.412  1.00 28.56     0.122 A 
HETATM   15  C20   D T 500     -14.712   3.792  -4.858  1.00 29.54     0.022 A 
HETATM   16  C19   D T 500     -14.581   2.658  -5.687  1.00 31.30     0.006 A 
HETATM   17  C18   D T 500     -13.288   2.212  -5.999  1.00 30.71     0.060 A 
HETATM   18  C17   D T 500     -12.164   2.875  -5.526  1.00 29.59     0.030 A 
HETATM   19  C16   D T 500     -12.297   4.007  -4.740  1.00 30.85     0.113 A 
BRANCH  17  20
HETATM   20  C21   D T 500     -13.019   1.020  -6.880  1.00 33.20     0.275 C 
HETATM   21  O2    D T 500     -11.940   0.967  -7.469  1.00 35.96    -0.266 OA
HETATM   22  N6    D T 500     -13.957   0.108  -7.044  1.00 37.33    -0.236 NA
BRANCH  22  23
HETATM   23  C22   D T 500     -13.699  -1.028  -7.927  1.00 43.13     0.111 C 
HETATM   24  C29   D T 500     -14.382  -0.681  -9.247  1.00 44.78     0.060 C 
HETATM   25  C28   D T 500     -14.592  -1.903 -10.156  1.00 46.83     0.252 C 
HETATM   26  N7    D T 500     -15.185  -3.051  -9.437  1.00 47.55     0.139 N 
HETATM   27  C24   D T 500     -14.380  -3.385  -8.246  1.00 48.06     0.252 C 
HETATM   28  C30   D T 500     -15.165  -4.244 -10.301  1.00 49.74     0.285 C 
HETATM   29  C23   D T 500     -14.412  -2.201  -7.283  1.00 44.59     0.060 C 
ENDBRANCH  22  23
ENDBRANCH  17  20
BRANCH  19  30
HETATM   30  O3    D T 500     -11.203   4.710  -4.270  1.00 30.91    -0.327 OA
HETATM   31  C31   D T 500      -9.880   4.630  -4.831  1.00 35.09     0.181 C 
ENDBRANCH  19  30
ENDBRANCH  13  14
ENDBRANCH   6  13
BRANCH   2  32
HETATM   32  C8    D T 500     -17.545   3.741  -1.471  1.00 26.27     0.083 C 
HETATM   33  C15   D T 500     -18.538   4.255  -2.506  1.00 26.00     0.022 C 
HETATM   34  C14   D T 500     -19.336   3.011  -2.864  1.00 27.32     0.002 C 
HETATM   35  C13   D T 500     -19.042   1.895  -1.876  1.00 30.42     0.002 C 
HETATM   36  C12   D T 500     -18.124   2.497  -0.822  1.00 25.87     0.022 C 
ENDBRANCH   2  32
BRANCH   4  37
HETATM   37  C9    D T 500     -18.818   5.841   0.552  1.00 27.17     0.032 C 
HETATM   38  C10   D T 500     -20.242   5.258   0.758  1.00 25.21     0.003 C 
ENDBRANCH   4  37
TORSDOF 7
ENDMDL
MODEL 2
REMARK VINA RESULT:    -8.088      2.569     10.624
REMARK INTER + INTRA:         -12.679
REMARK INTER:                 -11.655
REMARK INTRA:                  -1.023
REMARK UNBOUND:                -1.282
REMARK  7 active torsions:
REMARK  status: ('A' for Active; 'I' for Inactive)
REMARK    1  A    between atoms: N3_2  and  C8_7 
REMARK    2  A    between atoms: C5_4  and  C9_34 
REMARK    3  A    between atoms: C7_6  and  N5_28 
REMARK       I    between atoms: C21_13  and  N6_18 
REMARK    4  A    between atoms: C21_13  and  C18_23 
REMARK    5  A    between atoms: C22_14  and  N6_18 
REMARK    6  A    between atoms: C16_24  and  O3_25 
REMARK    7  A    between atoms: N5_28  and  C1_29 
ROOT
HETATM    1  N1    D T 500     -11.400  -0.739 -10.035  1.00 27.06    -0.056 NA
HETATM    2  N3    D T 500     -14.588  -2.928  -8.734  1.00 26.37    -0.328 N 
HETATM    3  C4    D T 500     -11.773  -1.805 -10.766  1.00 25.67     0.138 A 
HETATM    4  C5    D T 500     -15.025  -4.138  -9.462  1.00 25.49     0.162 A 
HETATM    5  C6    D T 500     -14.350  -4.391 -10.749  1.00 25.40     0.258 A 
HETATM    6  C1    D T 500     -12.020  -0.411  -8.886  1.00 25.59     0.752 A 
HETATM    7  N2    D T 500     -13.069  -1.120  -8.458  1.00 26.47    -0.041 NA
HETATM    8  C2    D T 500     -13.502  -2.177  -9.189  1.00 27.25     0.176 A 
HETATM    9  O1    D T 500     -14.766  -5.358 -11.437  1.00 25.90    -0.270 OA
HETATM   10  N4    D T 500     -13.311  -3.645 -11.147  1.00 24.91    -0.292 N 
HETATM   11  C11   D T 500     -12.586  -3.910 -12.405  1.00 26.11     0.134 C 
HETATM   12  C3    D T 500     -12.855  -2.548 -10.358  1.00 25.06     0.117 A 
ENDROOT
BRANCH   6  13
HETATM   13  N5    D T 500     -11.564   0.676  -8.244  1.00 28.04    -0.057 NA
BRANCH  13  14
HETATM   14  C7    D T 500     -12.247   1.529  -7.419  1.00 28.56     0.122 A 
HETATM   15  C20   D T 500     -13.626   1.507  -7.225  1.00 29.54     0.022 A 
HETATM   16  C19   D T 500     -14.224   2.422  -6.332  1.00 31.30     0.006 A 
HETATM   17  C18   D T 500     -13.399   3.362  -5.698  1.00 30.71     0.060 A 
HETATM   18  C17   D T 500     -12.029   3.385  -5.922  1.00 29.59     0.030 A 
HETATM   19  C16   D T 500     -11.442   2.465  -6.773  1.00 30.85     0.113 A 
BRANCH  17  20
HETATM   20  C21   D T 500     -13.916   4.384  -4.719  1.00 33.20     0.275 C 
HETATM   21  O2    D T 500     -14.391   5.426  -5.166  1.00 35.96    -0.266 OA
HETATM   22  N6    D T 500     -13.791   4.164  -3.424  1.00 37.33    -0.236 NA
BRANCH  22  23
HETATM   23  C22   D T 500     -14.266   5.176  -2.482  1.00 43.13     0.111 C 
HETATM   24  C29   D T 500     -13.150   5.331  -1.453  1.00 44.78     0.060 C 
HETATM   25  C28   D T 500     -13.614   6.020  -0.160  1.00 46.83     0.252 C 
HETATM   26  N7    D T 500     -14.868   5.446   0.372  1.00 47.55     0.139 N 
HETATM   27  C24   D T 500     -15.920   5.457  -0.664  1.00 48.06     0.252 C 
HETATM   28  C30   D T 500     -15.366   6.279   1.481  1.00 49.74     0.285 C 
HETATM   29  C23   D T 500     -15.482   4.560  -1.819  1.00 44.59     0.060 C 
ENDBRANCH  22  23
ENDBRANCH  17  20
BRANCH  19  30
HETATM   30  O3    D T 500     -10.079   2.439  -7.003  1.00 30.91    -0.327 OA
HETATM   31  C31   D T 500      -9.080   2.772  -6.021  1.00 35.09     0.181 C 
ENDBRANCH  19  30
ENDBRANCH  13  14
ENDBRANCH   6  13
BRANCH   2  32
HETATM   32  C8    D T 500     -15.224  -2.439  -7.489  1.00 26.27     0.083 C 
HETATM   33  C15   D T 500     -14.764  -2.954  -6.132  1.00 26.00     0.022 C 
HETATM   34  C14   D T 500     -15.997  -2.777  -5.260  1.00 27.32     0.002 C 
HETATM   35  C13   D T 500     -17.210  -2.468  -6.121  1.00 30.42     0.002 C 
HETATM   36  C12   D T 500     -16.736  -2.560  -7.564  1.00 25.87     0.022 C 
ENDBRANCH   2  32
BRANCH   4  37
HETATM   37  C9    D T 500     -14.504  -5.332  -8.600  1.00 27.17     0.032 C 
HETATM   38  C10   D T 500     -15.532  -6.405  -8.151  1.00 25.21     0.003 C 
ENDBRANCH   4  37
TORSDOF 7
ENDMDL
MODEL 3
REMARK VINA RESULT:    -7.823      1.808      2.217
REMARK INTER + INTRA:         -12.306
REMARK INTER:                 -11.054
REMARK INTRA:                  -1.252
REMARK UNBOUND:                -1.282
REMARK  7 active torsions:
REMARK  status: ('A' for Active; 'I' for Inactive)
REMARK    1  A    between atoms: N3_2  and  C8_7 
REMARK    2  A    between atoms: C5_4  and  C9_34 
REMARK    3  A    between atoms: C7_6  and  N5_28 
REMARK       I    between atoms: C21_13  and  N6_18 
REMARK    4  A    between atoms: C21_13  and  C18_23 
REMARK    5  A    between atoms: C22_14  and  N6_18 
REMARK    6  A    between atoms: C16_24  and  O3_25 
REMARK    7  A    between atoms: N5_28  and  C1_29 
ROOT
HETATM    1  N1    D T 500     -13.935   3.881  -1.006  1.00 27.06    -0.056 NA
HETATM    2  N3    D T 500     -17.863   3.497  -2.038  1.00 26.37    -0.328 N 
HETATM    3  C4    D T 500     -14.861   4.142  -0.066  1.00 25.67     0.138 A 
HETATM    4  C5    D T 500     -18.936   3.809  -1.070  1.00 25.49     0.162 A 
HETATM    5  C6    D T 500     -18.492   4.098   0.307  1.00 25.40     0.258 A 
HETATM    6  C1    D T 500     -14.272   3.543  -2.264  1.00 25.59     0.752 A 
HETATM    7  N2    D T 500     -15.556   3.409  -2.607  1.00 26.47    -0.041 NA
HETATM    8  C2    D T 500     -16.520   3.621  -1.676  1.00 27.25     0.176 A 
HETATM    9  O1    D T 500     -19.387   4.273   1.174  1.00 25.90    -0.270 OA
HETATM   10  N4    D T 500     -17.193   4.209   0.610  1.00 24.91    -0.292 N 
HETATM   11  C11   D T 500     -16.725   4.549   1.968  1.00 26.11     0.134 C 
HETATM   12  C3    D T 500     -16.192   4.001  -0.385  1.00 25.06     0.117 A 
ENDROOT
BRANCH   6  13
HETATM   13  N5    D T 500     -13.262   3.303  -3.115  1.00 28.04    -0.057 NA
BRANCH  13  14
HETATM   14  C7    D T 500     -13.249   2.490  -4.217  1.00 28.56     0.122 A 
HETATM   15  C20   D T 500     -14.030   1.347  -4.366  1.00 29.54     0.022 A 
HETATM   16  C19   D T 500     -13.952   0.595  -5.557  1.00 31.30     0.006 A 
HETATM   17  C18   D T 500     -13.044   1.008  -6.543  1.00 30.71     0.060 A 
HETATM   18  C17   D T 500     -12.256   2.137  -6.367  1.00 29.59     0.030 A 
HETATM   19  C16   D T 500     -12.359   2.891  -5.211  1.00 30.85     0.113 A 
BRANCH  17  20
HETATM   20  C21   D T 500     -12.875   0.294  -7.859  1.00 33.20     0.275 C 
HETATM   21  O2    D T 500     -11.925   0.611  -8.572  1.00 35.96    -0.266 OA
HETATM   22  N6    D T 500     -13.773  -0.597  -8.234  1.00 37.33    -0.236 NA
BRANCH  22  23
HETATM   23  C22   D T 500     -13.619  -1.260  -9.528  1.00 43.13     0.111 C 
HETATM   24  C29   D T 500     -14.956  -1.082 -10.240  1.00 44.78     0.060 C 
HETATM   25  C28   D T 500     -15.147  -2.053 -11.416  1.00 46.83     0.252 C 
HETATM   26  N7    D T 500     -14.820  -3.449 -11.058  1.00 47.55     0.139 N 
HETATM   27  C24   D T 500     -13.459  -3.532 -10.494  1.00 48.06     0.252 C 
HETATM   28  C30   D T 500     -14.820  -4.287 -12.271  1.00 49.74     0.285 C 
HETATM   29  C23   D T 500     -13.414  -2.726  -9.198  1.00 44.59     0.060 C 
ENDBRANCH  22  23
ENDBRANCH  17  20
BRANCH  19  30
HETATM   30  O3    D T 500     -11.610   4.036  -5.009  1.00 30.91    -0.327 OA
HETATM   31  C31   D T 500     -10.184   4.119  -5.187  1.00 35.09     0.181 C 
ENDBRANCH  19  30
ENDBRANCH  13  14
ENDBRANCH   6  13
BRANCH   2  32
HETATM   32  C8    D T 500     -18.110   3.064  -3.433  1.00 26.27     0.083 C 
HETATM   33  C15   D T 500     -18.252   4.093  -4.547  1.00 26.00     0.022 C 
HETATM   34  C14   D T 500     -19.111   3.372  -5.574  1.00 27.32     0.002 C 
HETATM   35  C13   D T 500     -19.703   2.110  -4.972  1.00 30.42     0.002 C 
HETATM   36  C12   D T 500     -19.286   2.106  -3.508  1.00 25.87     0.022 C 
ENDBRANCH   2  32
BRANCH   4  37
HETATM   37  C9    D T 500     -19.483   5.202  -1.518  1.00 27.17     0.032 C 
HETATM   38  C10   D T 500     -20.857   5.244  -2.239  1.00 25.21     0.003 C 
ENDBRANCH   4  37
TORSDOF 7
ENDMDL
MODEL 4
REMARK VINA RESULT:    -7.820      3.151      5.660
REMARK INTER + INTRA:         -12.302
REMARK INTER:                 -11.712
REMARK INTRA:                  -0.590
REMARK UNBOUND:                -1.282
REMARK  7 active torsions:
REMARK  status: ('A' for Active; 'I' for Inactive)
REMARK    1  A    between atoms: N3_2  and  C8_7 
REMARK    2  A    between atoms: C5_4  and  C9_34 
REMARK    3  A    between atoms: C7_6  and  N5_28 
REMARK       I    between atoms: C21_13  and  N6_18 
REMARK    4  A    between atoms: C21_13  and  C18_23 
REMARK    5  A    between atoms: C22_14  and  N6_18 
REMARK    6  A    between atoms: C16_24  and  O3_25 
REMARK    7  A    between atoms: N5_28  and  C1_29 
ROOT
HETATM    1  N1    D T 500     -14.800   2.128  -5.750  1.00 27.06    -0.056 NA
HETATM    2  N3    D T 500     -13.999   5.155  -3.135  1.00 26.37    -0.328 N 
HETATM    3  C4    D T 500     -15.748   2.451  -4.852  1.00 25.67     0.138 A 
HETATM    4  C5    D T 500     -14.976   5.535  -2.092  1.00 25.49     0.162 A 
HETATM    5  C6    D T 500     -16.291   4.871  -2.174  1.00 25.40     0.258 A 
HETATM    6  C1    D T 500     -13.603   2.743  -5.776  1.00 25.59     0.752 A 
HETATM    7  N2    D T 500     -13.337   3.739  -4.927  1.00 26.47    -0.041 NA
HETATM    8  C2    D T 500     -14.283   4.124  -4.034  1.00 27.25     0.176 A 
HETATM    9  O1    D T 500     -17.175   5.244  -1.360  1.00 25.90    -0.270 OA
HETATM   10  N4    D T 500     -16.519   3.886  -3.051  1.00 24.91    -0.292 N 
HETATM   11  C11   D T 500     -17.809   3.171  -3.117  1.00 26.11     0.134 C 
HETATM   12  C3    D T 500     -15.508   3.480  -3.972  1.00 25.06     0.117 A 
ENDROOT
BRANCH   6  13
HETATM   13  N5    D T 500     -12.738   2.339  -6.719  1.00 28.04    -0.057 NA
BRANCH  13  14
HETATM   14  C7    D T 500     -12.803   1.229  -7.518  1.00 28.56     0.122 A 
HETATM   15  C20   D T 500     -13.961   0.492  -7.755  1.00 29.54     0.022 A 
HETATM   16  C19   D T 500     -13.917  -0.625  -8.617  1.00 31.30     0.006 A 
HETATM   17  C18   D T 500     -12.681  -0.983  -9.174  1.00 30.71     0.060 A 
HETATM   18  C17   D T 500     -11.532  -0.251  -8.908  1.00 29.59     0.030 A 
HETATM   19  C16   D T 500     -11.586   0.864  -8.089  1.00 30.85     0.113 A 
BRANCH  17  20
HETATM   20  C21   D T 500     -12.508  -2.148 -10.113  1.00 33.20     0.275 C 
HETATM   21  O2    D T 500     -12.799  -3.271  -9.704  1.00 35.96    -0.266 OA
HETATM   22  N6    D T 500     -11.997  -1.945 -11.313  1.00 37.33    -0.236 NA
BRANCH  22  23
HETATM   23  C22   D T 500     -11.801  -3.087 -12.204  1.00 43.13     0.111 C 
HETATM   24  C29   D T 500     -10.482  -2.822 -12.923  1.00 44.78     0.060 C 
HETATM   25  C28   D T 500     -10.305  -3.672 -14.192  1.00 46.83     0.252 C 
HETATM   26  N7    D T 500     -11.499  -3.646 -15.064  1.00 47.55     0.139 N 
HETATM   27  C24   D T 500     -12.702  -4.039 -14.303  1.00 48.06     0.252 C 
HETATM   28  C30   D T 500     -11.348  -4.637 -16.145  1.00 49.74     0.285 C 
HETATM   29  C23   D T 500     -12.943  -3.012 -13.200  1.00 44.59     0.060 C 
ENDBRANCH  22  23
ENDBRANCH  17  20
BRANCH  19  30
HETATM   30  O3    D T 500     -10.469   1.634  -7.819  1.00 30.91    -0.327 OA
HETATM   31  C31   D T 500      -9.111   1.179  -7.964  1.00 35.09     0.181 C 
ENDBRANCH  19  30
ENDBRANCH  13  14
ENDBRANCH   6  13
BRANCH   2  32
HETATM   32  C8    D T 500     -12.674   5.795  -3.296  1.00 26.27     0.083 C 
HETATM   33  C15   D T 500     -11.511   5.399  -2.395  1.00 26.00     0.022 C 
HETATM   34  C14   D T 500     -10.635   6.642  -2.397  1.00 27.32     0.002 C 
HETATM   35  C13   D T 500     -11.386   7.813  -3.008  1.00 30.42     0.002 C 
HETATM   36  C12   D T 500     -12.793   7.309  -3.294  1.00 25.87     0.022 C 
ENDBRANCH   2  32
BRANCH   4  37
HETATM   37  C9    D T 500     -14.405   4.929  -0.771  1.00 27.17     0.032 C 
HETATM   38  C10   D T 500     -14.020   5.908   0.369  1.00 25.21     0.003 C 
ENDBRANCH   4  37
TORSDOF 7
ENDMDL
MODEL 5
REMARK VINA RESULT:    -7.477      1.760      2.385
REMARK INTER + INTRA:         -11.818
REMARK INTER:                 -11.056
REMARK INTRA:                  -0.762
REMARK UNBOUND:                -1.282
REMARK  7 active torsions:
REMARK  status: ('A' for Active; 'I' for Inactive)
REMARK    1  A    between atoms: N3_2  and  C8_7 
REMARK    2  A    between atoms: C5_4  and  C9_34 
REMARK    3  A    between atoms: C7_6  and  N5_28 
REMARK       I    between atoms: C21_13  and  N6_18 
REMARK    4  A    between atoms: C21_13  and  C18_23 
REMARK    5  A    between atoms: C22_14  and  N6_18 
REMARK    6  A    between atoms: C16_24  and  O3_25 
REMARK    7  A    between atoms: N5_28  and  C1_29 
ROOT
HETATM    1  N1    D T 500     -13.884   6.256  -1.946  1.00 27.06    -0.056 NA
HETATM    2  N3    D T 500     -17.181   4.665  -0.145  1.00 26.37    -0.328 N 
HETATM    3  C4    D T 500     -14.205   6.697  -0.716  1.00 25.67     0.138 A 
HETATM    4  C5    D T 500     -17.618   5.133   1.188  1.00 25.49     0.162 A 
HETATM    5  C6    D T 500     -16.704   6.069   1.869  1.00 25.40     0.258 A 
HETATM    6  C1    D T 500     -14.638   5.350  -2.596  1.00 25.59     0.752 A 
HETATM    7  N2    D T 500     -15.714   4.820  -2.010  1.00 26.47    -0.041 NA
HETATM    8  C2    D T 500     -16.046   5.206  -0.752  1.00 27.25     0.176 A 
HETATM    9  O1    D T 500     -17.001   6.410   3.043  1.00 25.90    -0.270 OA
HETATM   10  N4    D T 500     -15.627   6.565   1.248  1.00 24.91    -0.292 N 
HETATM   11  C11   D T 500     -14.726   7.543   1.890  1.00 26.11     0.134 C 
HETATM   12  C3    D T 500     -15.301   6.163  -0.081  1.00 25.06     0.117 A 
ENDROOT
BRANCH   6  13
HETATM   13  N5    D T 500     -14.218   4.982  -3.818  1.00 28.04    -0.057 NA
BRANCH  13  14
HETATM   14  C7    D T 500     -14.074   3.719  -4.326  1.00 28.56     0.122 A 
HETATM   15  C20   D T 500     -12.865   3.032  -4.410  1.00 29.54     0.022 A 
HETATM   16  C19   D T 500     -12.837   1.722  -4.933  1.00 31.30     0.006 A 
HETATM   17  C18   D T 500     -14.039   1.170  -5.398  1.00 30.71     0.060 A 
HETATM   18  C17   D T 500     -15.231   1.877  -5.329  1.00 29.59     0.030 A 
HETATM   19  C16   D T 500     -15.260   3.150  -4.784  1.00 30.85     0.113 A 
BRANCH  17  20
HETATM   20  C21   D T 500     -14.139  -0.221  -5.970  1.00 33.20     0.275 C 
HETATM   21  O2    D T 500     -13.173  -0.663  -6.589  1.00 35.96    -0.266 OA
HETATM   22  N6    D T 500     -15.267  -0.894  -5.847  1.00 37.33    -0.236 NA
BRANCH  22  23
HETATM   23  C22   D T 500     -15.366  -2.229  -6.435  1.00 43.13     0.111 C 
HETATM   24  C29   D T 500     -16.068  -2.033  -7.776  1.00 44.78     0.060 C 
HETATM   25  C28   D T 500     -16.643  -3.338  -8.351  1.00 46.83     0.252 C 
HETATM   26  N7    D T 500     -17.419  -4.105  -7.354  1.00 47.55     0.139 N 
HETATM   27  C24   D T 500     -16.609  -4.349  -6.145  1.00 48.06     0.252 C 
HETATM   28  C30   D T 500     -17.761  -5.430  -7.901  1.00 49.74     0.285 C 
HETATM   29  C23   D T 500     -16.272  -3.007  -5.500  1.00 44.59     0.060 C 
ENDBRANCH  22  23
ENDBRANCH  17  20
BRANCH  19  30
HETATM   30  O3    D T 500     -16.431   3.877  -4.675  1.00 30.91    -0.327 OA
HETATM   31  C31   D T 500     -17.742   3.360  -4.966  1.00 35.09     0.181 C 
ENDBRANCH  19  30
ENDBRANCH  13  14
ENDBRANCH   6  13
BRANCH   2  32
HETATM   32  C8    D T 500     -17.897   3.635  -0.933  1.00 26.27     0.083 C 
HETATM   33  C15   D T 500     -19.160   3.993  -1.704  1.00 26.00     0.022 C 
HETATM   34  C14   D T 500     -19.903   2.669  -1.782  1.00 27.32     0.002 C 
HETATM   35  C13   D T 500     -19.269   1.654  -0.845  1.00 30.42     0.002 C 
HETATM   36  C12   D T 500     -18.176   2.400  -0.094  1.00 25.87     0.022 C 
ENDBRANCH   2  32
BRANCH   4  37
HETATM   37  C9    D T 500     -18.847   6.053   0.903  1.00 27.17     0.032 C 
HETATM   38  C10   D T 500     -18.633   7.288  -0.011  1.00 25.21     0.003 C 
ENDBRANCH   4  37
TORSDOF 7
ENDMDL
MODEL 6
REMARK VINA RESULT:    -7.457      2.717      4.010
REMARK INTER + INTRA:         -11.790
REMARK INTER:                 -10.255
REMARK INTRA:                  -1.536
REMARK UNBOUND:                -1.282
REMARK  7 active torsions:
REMARK  status: ('A' for Active; 'I' for Inactive)
REMARK    1  A    between atoms: N3_2  and  C8_7 
REMARK    2  A    between atoms: C5_4  and  C9_34 
REMARK    3  A    between atoms: C7_6  and  N5_28 
REMARK       I    between atoms: C21_13  and  N6_18 
REMARK    4  A    between atoms: C21_13  and  C18_23 
REMARK    5  A    between atoms: C22_14  and  N6_18 
REMARK    6  A    between atoms: C16_24  and  O3_25 
REMARK    7  A    between atoms: N5_28  and  C1_29 
ROOT
HETATM    1  N1    D T 500     -14.513   4.725  -4.565  1.00 27.06    -0.056 NA
HETATM    2  N3    D T 500     -16.329   4.994  -0.921  1.00 26.37    -0.328 N 
HETATM    3  C4    D T 500     -13.994   5.578  -3.664  1.00 25.67     0.138 A 
HETATM    4  C5    D T 500     -15.840   5.943   0.102  1.00 25.49     0.162 A 
HETATM    5  C6    D T 500     -14.582   6.642  -0.222  1.00 25.40     0.258 A 
HETATM    6  C1    D T 500     -15.620   4.003  -4.307  1.00 25.59     0.752 A 
HETATM    7  N2    D T 500     -16.215   4.081  -3.114  1.00 26.47    -0.041 NA
HETATM    8  C2    D T 500     -15.697   4.899  -2.163  1.00 27.25     0.176 A 
HETATM    9  O1    D T 500     -14.090   7.382   0.669  1.00 25.90    -0.270 OA
HETATM   10  N4    D T 500     -14.011   6.523  -1.427  1.00 24.91    -0.292 N 
HETATM   11  C11   D T 500     -12.781   7.252  -1.792  1.00 26.11     0.134 C 
HETATM   12  C3    D T 500     -14.578   5.673  -2.422  1.00 25.06     0.117 A 
ENDROOT
BRANCH   6  13
HETATM   13  N5    D T 500     -16.044   3.181  -5.281  1.00 28.04    -0.057 NA
BRANCH  13  14
HETATM   14  C7    D T 500     -15.737   1.862  -5.477  1.00 28.56     0.122 A 
HETATM   15  C20   D T 500     -14.470   1.309  -5.304  1.00 29.54     0.022 A 
HETATM   16  C19   D T 500     -14.272  -0.072  -5.514  1.00 31.30     0.006 A 
HETATM   17  C18   D T 500     -15.366  -0.840  -5.939  1.00 30.71     0.060 A 
HETATM   18  C17   D T 500     -16.617  -0.268  -6.129  1.00 29.59     0.030 A 
HETATM   19  C16   D T 500     -16.814   1.081  -5.890  1.00 30.85     0.113 A 
BRANCH  17  20
HETATM   20  C21   D T 500     -15.283  -2.324  -6.188  1.00 33.20     0.275 C 
HETATM   21  O2    D T 500     -14.254  -2.910  -5.857  1.00 35.96    -0.266 OA
HETATM   22  N6    D T 500     -16.278  -2.935  -6.802  1.00 37.33    -0.236 NA
BRANCH  22  23
HETATM   23  C22   D T 500     -16.173  -4.369  -7.070  1.00 43.13     0.111 C 
HETATM   24  C29   D T 500     -15.988  -4.489  -8.580  1.00 44.78     0.060 C 
HETATM   25  C28   D T 500     -16.280  -5.901  -9.112  1.00 46.83     0.252 C 
HETATM   26  N7    D T 500     -17.555  -6.448  -8.602  1.00 47.55     0.139 N 
HETATM   27  C24   D T 500     -17.583  -6.402  -7.127  1.00 48.06     0.252 C 
HETATM   28  C30   D T 500     -17.673  -7.869  -8.976  1.00 49.74     0.285 C 
HETATM   29  C23   D T 500     -17.522  -4.943  -6.680  1.00 44.59     0.060 C 
ENDBRANCH  22  23
ENDBRANCH  17  20
BRANCH  19  30
HETATM   30  O3    D T 500     -18.050   1.683  -6.044  1.00 30.91    -0.327 OA
HETATM   31  C31   D T 500     -19.010   1.326  -7.055  1.00 35.09     0.181 C 
ENDBRANCH  19  30
ENDBRANCH  13  14
ENDBRANCH   6  13
BRANCH   2  32
HETATM   32  C8    D T 500     -17.502   4.110  -0.733  1.00 26.27     0.083 C 
HETATM   33  C15   D T 500     -18.900   4.597  -1.092  1.00 26.00     0.022 C 
HETATM   34  C14   D T 500     -19.797   3.765  -0.188  1.00 27.32     0.002 C 
HETATM   35  C13   D T 500     -18.966   3.052   0.865  1.00 30.42     0.002 C 
HETATM   36  C12   D T 500     -17.536   3.537   0.673  1.00 25.87     0.022 C 
ENDBRANCH   2  32
BRANCH   4  37
HETATM   37  C9    D T 500     -16.865   7.120   0.074  1.00 27.17     0.032 C 
HETATM   38  C10   D T 500     -17.839   7.263   1.274  1.00 25.21     0.003 C 
ENDBRANCH   4  37
TORSDOF 7
ENDMDL
MODEL 7
REMARK VINA RESULT:    -7.449      3.139      6.000
REMARK INTER + INTRA:         -11.778
REMARK INTER:                 -11.436
REMARK INTRA:                  -0.343
REMARK UNBOUND:                -1.282
REMARK  7 active torsions:
REMARK  status: ('A' for Active; 'I' for Inactive)
REMARK    1  A    between atoms: N3_2  and  C8_7 
REMARK    2  A    between atoms: C5_4  and  C9_34 
REMARK    3  A    between atoms: C7_6  and  N5_28 
REMARK       I    between atoms: C21_13  and  N6_18 
REMARK    4  A    between atoms: C21_13  and  C18_23 
REMARK    5  A    between atoms: C22_14  and  N6_18 
REMARK    6  A    between atoms: C16_24  and  O3_25 
REMARK    7  A    between atoms: N5_28  and  C1_29 
ROOT
HETATM    1  N1    D T 500     -11.574   2.959  -6.090  1.00 27.06    -0.056 NA
HETATM    2  N3    D T 500     -12.731   4.905  -2.696  1.00 26.37    -0.328 N 
HETATM    3  C4    D T 500     -10.732   3.869  -5.567  1.00 25.67     0.138 A 
HETATM    4  C5    D T 500     -11.877   5.949  -2.091  1.00 25.49     0.162 A 
HETATM    5  C6    D T 500     -10.539   6.110  -2.692  1.00 25.40     0.258 A 
HETATM    6  C1    D T 500     -12.782   2.713  -5.550  1.00 25.59     0.752 A 
HETATM    7  N2    D T 500     -13.164   3.342  -4.435  1.00 26.47    -0.041 NA
HETATM    8  C2    D T 500     -12.326   4.235  -3.853  1.00 27.25     0.176 A 
HETATM    9  O1    D T 500      -9.754   6.922  -2.139  1.00 25.90    -0.270 OA
HETATM   10  N4    D T 500     -10.192   5.448  -3.803  1.00 24.91    -0.292 N 
HETATM   11  C11   D T 500      -8.879   5.630  -4.453  1.00 26.11     0.134 C 
HETATM   12  C3    D T 500     -11.092   4.525  -4.414  1.00 25.06     0.117 A 
ENDROOT
BRANCH   6  13
HETATM   13  N5    D T 500     -13.535   1.781  -6.155  1.00 28.04    -0.057 NA
BRANCH  13  14
HETATM   14  C7    D T 500     -13.173   0.897  -7.136  1.00 28.56     0.122 A 
HETATM   15  C20   D T 500     -11.965   0.934  -7.829  1.00 29.54     0.022 A 
HETATM   16  C19   D T 500     -11.687  -0.043  -8.808  1.00 31.30     0.006 A 
HETATM   17  C18   D T 500     -12.673  -1.002  -9.083  1.00 30.71     0.060 A 
HETATM   18  C17   D T 500     -13.881  -1.010  -8.401  1.00 29.59     0.030 A 
HETATM   19  C16   D T 500     -14.136  -0.069  -7.417  1.00 30.85     0.113 A 
BRANCH  17  20
HETATM   20  C21   D T 500     -12.492  -2.100 -10.100  1.00 33.20     0.275 C 
HETATM   21  O2    D T 500     -12.590  -3.265  -9.718  1.00 35.96    -0.266 OA
HETATM   22  N6    D T 500     -12.176  -1.789 -11.342  1.00 37.33    -0.236 NA
BRANCH  22  23
HETATM   23  C22   D T 500     -11.969  -2.862 -12.313  1.00 43.13     0.111 C 
HETATM   24  C29   D T 500     -10.533  -2.698 -12.802  1.00 44.78     0.060 C 
HETATM   25  C28   D T 500     -10.255  -3.447 -14.116  1.00 46.83     0.252 C 
HETATM   26  N7    D T 500     -11.289  -3.197 -15.142  1.00 47.55     0.139 N 
HETATM   27  C24   D T 500     -12.631  -3.504 -14.609  1.00 48.06     0.252 C 
HETATM   28  C30   D T 500     -11.080  -4.098 -16.290  1.00 49.74     0.285 C 
HETATM   29  C23   D T 500     -12.927  -2.558 -13.449  1.00 44.59     0.060 C 
ENDBRANCH  22  23
ENDBRANCH  17  20
BRANCH  19  30
HETATM   30  O3    D T 500     -15.317  -0.059  -6.697  1.00 30.91    -0.327 OA
HETATM   31  C31   D T 500     -15.861  -1.198  -6.007  1.00 35.09     0.181 C 
ENDBRANCH  19  30
ENDBRANCH  13  14
ENDBRANCH   6  13
BRANCH   2  32
HETATM   32  C8    D T 500     -14.054   4.510  -2.161  1.00 26.27     0.083 C 
HETATM   33  C15   D T 500     -15.293   5.340  -2.475  1.00 26.00     0.022 C 
HETATM   34  C14   D T 500     -16.209   5.050  -1.296  1.00 27.32     0.002 C 
HETATM   35  C13   D T 500     -15.440   4.338  -0.195  1.00 30.42     0.002 C 
HETATM   36  C12   D T 500     -13.993   4.282  -0.661  1.00 25.87     0.022 C 
ENDBRANCH   2  32
BRANCH   4  37
HETATM   37  C9    D T 500     -12.557   7.298  -2.485  1.00 27.17     0.032 C 
HETATM   38  C10   D T 500     -12.566   8.440  -1.434  1.00 25.21     0.003 C 
ENDBRANCH   4  37
TORSDOF 7
ENDMDL
MODEL 8
REMARK VINA RESULT:    -7.432      1.438      2.132
REMARK INTER + INTRA:         -11.754
REMARK INTER:                 -11.124
REMARK INTRA:                  -0.630
REMARK UNBOUND:                -1.282
REMARK  7 active torsions:
REMARK  status: ('A' for Active; 'I' for Inactive)
REMARK    1  A    between atoms: N3_2  and  C8_7 
REMARK    2  A    between atoms: C5_4  and  C9_34 
REMARK    3  A    between atoms: C7_6  and  N5_28 
REMARK       I    between atoms: C21_13  and  N6_18 
REMARK    4  A    between atoms: C21_13  and  C18_23 
REMARK    5  A    between atoms: C22_14  and  N6_18 
REMARK    6  A    between atoms: C16_24  and  O3_25 
REMARK    7  A    between atoms: N5_28  and  C1_29 
ROOT
HETATM    1  N1    D T 500     -13.855   6.328  -1.841  1.00 27.06    -0.056 NA
HETATM    2  N3    D T 500     -17.204   4.617  -0.259  1.00 26.37    -0.328 N 
HETATM    3  C4    D T 500     -14.174   6.627  -0.569  1.00 25.67     0.138 A 
HETATM    4  C5    D T 500     -17.640   4.935   1.117  1.00 25.49     0.162 A 
HETATM    5  C6    D T 500     -16.709   5.760   1.910  1.00 25.40     0.258 A 
HETATM    6  C1    D T 500     -14.624   5.524  -2.599  1.00 25.59     0.752 A 
HETATM    7  N2    D T 500     -15.719   4.955  -2.085  1.00 26.47    -0.041 NA
HETATM    8  C2    D T 500     -16.051   5.198  -0.792  1.00 27.25     0.176 A 
HETATM    9  O1    D T 500     -17.007   5.966   3.115  1.00 25.90    -0.270 OA
HETATM   10  N4    D T 500     -15.615   6.299   1.358  1.00 24.91    -0.292 N 
HETATM   11  C11   D T 500     -14.695   7.170   2.116  1.00 26.11     0.134 C 
HETATM   12  C3    D T 500     -15.288   6.049  -0.008  1.00 25.06     0.117 A 
ENDROOT
BRANCH   6  13
HETATM   13  N5    D T 500     -14.204   5.294  -3.853  1.00 28.04    -0.057 NA
BRANCH  13  14
HETATM   14  C7    D T 500     -13.994   4.093  -4.475  1.00 28.56     0.122 A 
HETATM   15  C20   D T 500     -12.750   3.485  -4.624  1.00 29.54     0.022 A 
HETATM   16  C19   D T 500     -12.653   2.232  -5.265  1.00 31.30     0.006 A 
HETATM   17  C18   D T 500     -13.827   1.658  -5.777  1.00 30.71     0.060 A 
HETATM   18  C17   D T 500     -15.055   2.289  -5.640  1.00 29.59     0.030 A 
HETATM   19  C16   D T 500     -15.150   3.503  -4.981  1.00 30.85     0.113 A 
BRANCH  17  20
HETATM   20  C21   D T 500     -13.854   0.323  -6.474  1.00 33.20     0.275 C 
HETATM   21  O2    D T 500     -13.759  -0.692  -5.786  1.00 35.96    -0.266 OA
HETATM   22  N6    D T 500     -13.916   0.279  -7.791  1.00 37.33    -0.236 NA
BRANCH  22  23
HETATM   23  C22   D T 500     -13.908  -1.021  -8.460  1.00 43.13     0.111 C 
HETATM   24  C29   D T 500     -12.534  -1.135  -9.112  1.00 44.78     0.060 C 
HETATM   25  C28   D T 500     -12.472  -2.217 -10.203  1.00 46.83     0.252 C 
HETATM   26  N7    D T 500     -13.602  -2.131 -11.153  1.00 47.55     0.139 N 
HETATM   27  C24   D T 500     -14.888  -2.154 -10.430  1.00 48.06     0.252 C 
HETATM   28  C30   D T 500     -13.600  -3.310 -12.037  1.00 49.74     0.285 C 
HETATM   29  C23   D T 500     -14.971  -0.919  -9.537  1.00 44.59     0.060 C 
ENDBRANCH  22  23
ENDBRANCH  17  20
BRANCH  19  30
HETATM   30  O3    D T 500     -16.359   4.151  -4.803  1.00 30.91    -0.327 OA
HETATM   31  C31   D T 500     -17.643   3.502  -4.825  1.00 35.09     0.181 C 
ENDBRANCH  19  30
ENDBRANCH  13  14
ENDBRANCH   6  13
BRANCH   2  32
HETATM   32  C8    D T 500     -17.937   3.707  -1.168  1.00 26.27     0.083 C 
HETATM   33  C15   D T 500     -19.295   4.107  -1.730  1.00 26.00     0.022 C 
HETATM   34  C14   D T 500     -19.963   2.768  -2.003  1.00 27.32     0.002 C 
HETATM   35  C13   D T 500     -19.174   1.644  -1.352  1.00 30.42     0.002 C 
HETATM   36  C12   D T 500     -18.053   2.315  -0.572  1.00 25.87     0.022 C 
ENDBRANCH   2  32
BRANCH   4  37
HETATM   37  C9    D T 500     -18.844   5.912   0.938  1.00 27.17     0.032 C 
HETATM   38  C10   D T 500     -18.588   7.251   0.196  1.00 25.21     0.003 C 
ENDBRANCH   4  37
TORSDOF 7
ENDMDL
MODEL 9
REMARK VINA RESULT:    -7.207      2.448      3.230
REMARK INTER + INTRA:         -11.438
REMARK INTER:                 -10.357
REMARK INTRA:                  -1.082
REMARK UNBOUND:                -1.282
REMARK  7 active torsions:
REMARK  status: ('A' for Active; 'I' for Inactive)
REMARK    1  A    between atoms: N3_2  and  C8_7 
REMARK    2  A    between atoms: C5_4  and  C9_34 
REMARK    3  A    between atoms: C7_6  and  N5_28 
REMARK       I    between atoms: C21_13  and  N6_18 
REMARK    4  A    between atoms: C21_13  and  C18_23 
REMARK    5  A    between atoms: C22_14  and  N6_18 
REMARK    6  A    between atoms: C16_24  and  O3_25 
REMARK    7  A    between atoms: N5_28  and  C1_29 
ROOT
HETATM    1  N1    D T 500     -13.784   3.679  -3.256  1.00 27.06    -0.056 NA
HETATM    2  N3    D T 500     -17.824   3.679  -2.680  1.00 26.37    -0.328 N 
HETATM    3  C4    D T 500     -14.242   3.866  -2.005  1.00 25.67     0.138 A 
HETATM    4  C5    D T 500     -18.399   3.923  -1.340  1.00 25.49     0.162 A 
HETATM    5  C6    D T 500     -17.430   3.996  -0.231  1.00 25.40     0.258 A 
HETATM    6  C1    D T 500     -14.616   3.535  -4.305  1.00 25.59     0.752 A 
HETATM    7  N2    D T 500     -15.939   3.527  -4.123  1.00 26.47    -0.041 NA
HETATM    8  C2    D T 500     -16.440   3.670  -2.870  1.00 27.25     0.176 A 
HETATM    9  O1    D T 500     -17.895   4.107   0.933  1.00 25.90    -0.270 OA
HETATM   10  N4    D T 500     -16.110   3.985  -0.458  1.00 24.91    -0.292 N 
HETATM   11  C11   D T 500     -15.121   4.109   0.631  1.00 26.11     0.134 C 
HETATM   12  C3    D T 500     -15.599   3.852  -1.783  1.00 25.06     0.117 A 
ENDROOT
BRANCH   6  13
HETATM   13  N5    D T 500     -14.045   3.350  -5.506  1.00 28.04    -0.057 NA
BRANCH  13  14
HETATM   14  C7    D T 500     -13.886   2.183  -6.205  1.00 28.56     0.122 A 
HETATM   15  C20   D T 500     -14.862   1.197  -6.330  1.00 29.54     0.022 A 
HETATM   16  C19   D T 500     -14.596   0.041  -7.095  1.00 31.30     0.006 A 
HETATM   17  C18   D T 500     -13.325  -0.094  -7.671  1.00 30.71     0.060 A 
HETATM   18  C17   D T 500     -12.356   0.888  -7.516  1.00 29.59     0.030 A 
HETATM   19  C16   D T 500     -12.632   2.036  -6.792  1.00 30.85     0.113 A 
BRANCH  17  20
HETATM   20  C21   D T 500     -12.924  -1.276  -8.514  1.00 33.20     0.275 C 
HETATM   21  O2    D T 500     -12.853  -2.377  -7.972  1.00 35.96    -0.266 OA
HETATM   22  N6    D T 500     -12.605  -1.092  -9.781  1.00 37.33    -0.236 NA
BRANCH  22  23
HETATM   23  C22   D T 500     -12.185  -2.240 -10.583  1.00 43.13     0.111 C 
HETATM   24  C29   D T 500     -11.117  -1.706 -11.532  1.00 44.78     0.060 C 
HETATM   25  C28   D T 500     -10.854  -2.636 -12.728  1.00 46.83     0.252 C 
HETATM   26  N7    D T 500     -12.100  -3.079 -13.388  1.00 47.55     0.139 N 
HETATM   27  C24   D T 500     -13.013  -3.695 -12.405  1.00 48.06     0.252 C 
HETATM   28  C30   D T 500     -11.794  -4.123 -14.382  1.00 49.74     0.285 C 
HETATM   29  C23   D T 500     -13.413  -2.639 -11.377  1.00 44.59     0.060 C 
ENDBRANCH  22  23
ENDBRANCH  17  20
BRANCH  19  30
HETATM   30  O3    D T 500     -11.702   3.048  -6.636  1.00 30.91    -0.327 OA
HETATM   31  C31   D T 500     -10.346   2.849  -6.198  1.00 35.09     0.181 C 
ENDBRANCH  19  30
ENDBRANCH  13  14
ENDBRANCH   6  13
BRANCH   2  32
HETATM   32  C8    D T 500     -18.635   3.454  -3.898  1.00 26.27     0.083 C 
HETATM   33  C15   D T 500     -19.610   4.519  -4.384  1.00 26.00     0.022 C 
HETATM   34  C14   D T 500     -20.647   3.713  -5.150  1.00 27.32     0.002 C 
HETATM   35  C13   D T 500     -20.470   2.230  -4.873  1.00 30.42     0.002 C 
HETATM   36  C12   D T 500     -19.367   2.125  -3.830  1.00 25.87     0.022 C 
ENDBRANCH   2  32
BRANCH   4  37
HETATM   37  C9    D T 500     -18.920   5.394  -1.393  1.00 27.17     0.032 C 
HETATM   38  C10   D T 500     -20.361   5.671  -0.886  1.00 25.21     0.003 C 
ENDBRANCH   4  37
TORSDOF 7
ENDMDL
