MODEL 1
REMARK VINA RESULT:    -7.795      0.000      0.000
REMARK INTER + INTRA:          -9.661
REMARK INTER:                  -9.163
REMARK INTRA:                  -0.498
REMARK UNBOUND:                -0.498
REMARK  3 active torsions:
REMARK  status: ('A' for Active; 'I' for Inactive)
REMARK    1  A    between atoms: C5_5  and  C8_8 
REMARK    2  A    between atoms: C8_8  and  C14_14 
REMARK    3  A    between atoms: C17_17  and  C20_20 
ROOT
HETATM    1  C8    D T1351      10.178  -1.516  -3.160  1.00 28.40     0.042 C 
HETATM    2  C9    D T1351       9.306  -1.130  -1.946  1.00 31.07     0.046 C 
HETATM    3  C10   D T1351       9.740  -1.797  -0.650  1.00 30.89     0.291 C 
HETATM    4  N11   D T1351      11.164  -1.454  -0.375  1.00 29.44     0.339 N 
HETATM    5  C12   D T1351      12.057  -1.910  -1.480  1.00 30.13     0.291 C 
HETATM    6  C13   D T1351      11.639  -1.230  -2.771  1.00 30.34     0.046 C 
ENDROOT
BRANCH   1   7
HETATM    7  C5    D T1351       9.951  -2.970  -3.610  1.00 28.95    -0.019 A 
HETATM    8  C4    D T1351       9.438  -3.915  -2.725  1.00 28.71    -0.003 A 
HETATM    9  C3    D T1351       9.216  -5.212  -3.135  1.00 30.92     0.011 A 
HETATM   10  C2    D T1351       9.476  -5.583  -4.442  1.00 30.64     0.058 A 
HETATM   11 CL1    D T1351       9.190  -7.218  -4.949  1.00 40.18    -0.082 Cl
HETATM   12  C7    D T1351       9.981  -4.649  -5.333  1.00 32.16     0.011 A 
HETATM   13  C6    D T1351      10.209  -3.351  -4.924  1.00 28.80    -0.003 A 
ENDBRANCH   1   7
BRANCH   1  14
HETATM   14  C14   D T1351       9.739  -0.563  -4.287  1.00 30.67    -0.019 A 
HETATM   15  C15   D T1351      10.629   0.320  -4.892  1.00 28.60    -0.004 A 
HETATM   16  C16   D T1351      10.194   1.192  -5.867  1.00 33.11    -0.000 A 
HETATM   17  C17   D T1351       8.865   1.193  -6.274  1.00 31.57     0.003 A 
HETATM   18  C18   D T1351       7.975   0.330  -5.653  1.00 28.36    -0.000 A 
HETATM   19  C19   D T1351       8.405  -0.537  -4.674  1.00 26.27    -0.004 A 
BRANCH  17  20
HETATM   20  C20   D T1351       8.380   2.171  -7.256  1.00 34.09     0.042 A 
HETATM   21  C21   D T1351       8.910   3.441  -7.523  1.00 35.67     0.124 A 
HETATM   22  N22   D T1351       8.174   4.091  -8.425  1.00 33.11    -0.146 NA
HETATM   23  N23   D T1351       7.140   3.258  -8.705  1.00 34.31    -0.146 NA
HETATM   24  C24   D T1351       7.233   2.110  -8.007  1.00 32.13     0.124 A 
ENDBRANCH  17  20
ENDBRANCH   1  14
TORSDOF 3
ENDMDL
MODEL 2
REMARK VINA RESULT:    -7.780      2.763      4.221
REMARK INTER + INTRA:          -9.643
REMARK INTER:                  -8.792
REMARK INTRA:                  -0.851
REMARK UNBOUND:                -0.498
REMARK  3 active torsions:
REMARK  status: ('A' for Active; 'I' for Inactive)
REMARK    1  A    between atoms: C5_5  and  C8_8 
REMARK    2  A    between atoms: C8_8  and  C14_14 
REMARK    3  A    between atoms: C17_17  and  C20_20 
ROOT
HETATM    1  C8    D T1351       9.876  -2.436  -1.700  1.00 28.40     0.042 C 
HETATM    2  C9    D T1351      10.110  -3.823  -2.335  1.00 31.07     0.046 C 
HETATM    3  C10   D T1351      10.308  -4.932  -1.313  1.00 30.89     0.291 C 
HETATM    4  N11   D T1351       9.122  -4.986  -0.412  1.00 29.44     0.339 N 
HETATM    5  C12   D T1351       8.924  -3.693   0.305  1.00 30.13     0.291 C 
HETATM    6  C13   D T1351       8.707  -2.587  -0.712  1.00 30.34     0.046 C 
ENDROOT
BRANCH   1   7
HETATM    7  C5    D T1351      11.145  -1.865  -1.045  1.00 28.95    -0.019 A 
HETATM    8  C4    D T1351      11.165  -1.553   0.313  1.00 28.71    -0.003 A 
HETATM    9  C3    D T1351      12.309  -1.061   0.903  1.00 30.92     0.011 A 
HETATM   10  C2    D T1351      13.462  -0.897   0.157  1.00 30.64     0.058 A 
HETATM   11 CL1    D T1351      14.898  -0.279   0.910  1.00 40.18    -0.082 Cl
HETATM   12  C7    D T1351      13.456  -1.209  -1.194  1.00 32.16     0.011 A 
HETATM   13  C6    D T1351      12.311  -1.697  -1.789  1.00 28.80    -0.003 A 
ENDBRANCH   1   7
BRANCH   1  14
HETATM   14  C14   D T1351       9.459  -1.527  -2.871  1.00 30.67    -0.019 A 
HETATM   15  C15   D T1351       9.396  -1.996  -4.180  1.00 28.60    -0.004 A 
HETATM   16  C16   D T1351       9.062  -1.145  -5.212  1.00 33.11    -0.000 A 
HETATM   17  C17   D T1351       8.767   0.189  -4.962  1.00 31.57     0.003 A 
HETATM   18  C18   D T1351       8.854   0.661  -3.661  1.00 28.36    -0.000 A 
HETATM   19  C19   D T1351       9.194  -0.185  -2.629  1.00 26.27    -0.004 A 
BRANCH  17  20
HETATM   20  C20   D T1351       8.486   1.117  -6.065  1.00 34.09     0.042 A 
HETATM   21  C21   D T1351       7.555   0.950  -7.099  1.00 35.67     0.124 A 
HETATM   22  N22   D T1351       7.617   1.955  -7.973  1.00 33.11    -0.146 NA
HETATM   23  N23   D T1351       8.624   2.749  -7.527  1.00 34.31    -0.146 NA
HETATM   24  C24   D T1351       9.169   2.260  -6.397  1.00 32.13     0.124 A 
ENDBRANCH  17  20
ENDBRANCH   1  14
TORSDOF 3
ENDMDL
MODEL 3
REMARK VINA RESULT:    -7.485      1.671      2.482
REMARK INTER + INTRA:          -9.296
REMARK INTER:                  -8.433
REMARK INTRA:                  -0.863
REMARK UNBOUND:                -0.498
REMARK  3 active torsions:
REMARK  status: ('A' for Active; 'I' for Inactive)
REMARK    1  A    between atoms: C5_5  and  C8_8 
REMARK    2  A    between atoms: C8_8  and  C14_14 
REMARK    3  A    between atoms: C17_17  and  C20_20 
ROOT
HETATM    1  C8    D T1351      10.582  -1.930  -1.464  1.00 28.40     0.042 C 
HETATM    2  C9    D T1351      10.158  -1.041  -0.275  1.00 31.07     0.046 C 
HETATM    3  C10   D T1351      10.762  -1.473   1.051  1.00 30.89     0.291 C 
HETATM    4  N11   D T1351      12.248  -1.479   0.935  1.00 29.44     0.339 N 
HETATM    5  C12   D T1351      12.705  -2.413  -0.135  1.00 30.13     0.291 C 
HETATM    6  C13   D T1351      12.120  -1.973  -1.465  1.00 30.34     0.046 C 
ENDROOT
BRANCH   1   7
HETATM    7  C5    D T1351       9.943  -3.329  -1.411  1.00 28.95    -0.019 A 
HETATM    8  C4    D T1351      10.231  -4.279  -2.388  1.00 28.71    -0.003 A 
HETATM    9  C3    D T1351       9.674  -5.538  -2.328  1.00 30.92     0.011 A 
HETATM   10  C2    D T1351       8.841  -5.881  -1.279  1.00 30.64     0.058 A 
HETATM   11 CL1    D T1351       8.146  -7.470  -1.210  1.00 40.18    -0.082 Cl
HETATM   12  C7    D T1351       8.552  -4.946  -0.297  1.00 32.16     0.011 A 
HETATM   13  C6    D T1351       9.104  -3.683  -0.357  1.00 28.80    -0.003 A 
ENDBRANCH   1   7
BRANCH   1  14
HETATM   14  C14   D T1351      10.077  -1.190  -2.716  1.00 30.67    -0.019 A 
HETATM   15  C15   D T1351      10.925  -0.867  -3.772  1.00 28.60    -0.004 A 
HETATM   16  C16   D T1351      10.452  -0.164  -4.859  1.00 33.11    -0.000 A 
HETATM   17  C17   D T1351       9.117   0.217  -4.928  1.00 31.57     0.003 A 
HETATM   18  C18   D T1351       8.279  -0.085  -3.866  1.00 28.36    -0.000 A 
HETATM   19  C19   D T1351       8.751  -0.780  -2.775  1.00 26.27    -0.004 A 
BRANCH  17  20
HETATM   20  C20   D T1351       8.625   1.031  -6.048  1.00 34.09     0.042 A 
HETATM   21  C21   D T1351       7.629   0.690  -6.972  1.00 35.67     0.124 A 
HETATM   22  N22   D T1351       7.488   1.635  -7.901  1.00 33.11    -0.146 NA
HETATM   23  N23   D T1351       8.429   2.567  -7.604  1.00 34.31    -0.146 NA
HETATM   24  C24   D T1351       9.132   2.220  -6.509  1.00 32.13     0.124 A 
ENDBRANCH  17  20
ENDBRANCH   1  14
TORSDOF 3
ENDMDL
MODEL 4
REMARK VINA RESULT:    -7.159      3.664      7.389
REMARK INTER + INTRA:          -8.913
REMARK INTER:                  -8.153
REMARK INTRA:                  -0.759
REMARK UNBOUND:                -0.498
REMARK  3 active torsions:
REMARK  status: ('A' for Active; 'I' for Inactive)
REMARK    1  A    between atoms: C5_5  and  C8_8 
REMARK    2  A    between atoms: C8_8  and  C14_14 
REMARK    3  A    between atoms: C17_17  and  C20_20 
ROOT
HETATM    1  C8    D T1351      10.005  -2.151  -3.790  1.00 28.40     0.042 C 
HETATM    2  C9    D T1351       8.659  -2.856  -3.517  1.00 31.07     0.046 C 
HETATM    3  C10   D T1351       8.023  -3.454  -4.762  1.00 30.89     0.291 C 
HETATM    4  N11   D T1351       8.976  -4.416  -5.385  1.00 29.44     0.339 N 
HETATM    5  C12   D T1351      10.255  -3.747  -5.764  1.00 30.13     0.291 C 
HETATM    6  C13   D T1351      10.901  -3.165  -4.520  1.00 30.34     0.046 C 
ENDROOT
BRANCH   1   7
HETATM    7  C5    D T1351       9.833  -0.834  -4.566  1.00 28.95    -0.019 A 
HETATM    8  C4    D T1351      10.945  -0.117  -5.002  1.00 28.71    -0.003 A 
HETATM    9  C3    D T1351      10.790   1.052  -5.716  1.00 30.92     0.011 A 
HETATM   10  C2    D T1351       9.524   1.513  -6.029  1.00 30.64     0.058 A 
HETATM   11 CL1    D T1351       9.339   2.985  -6.930  1.00 40.18    -0.082 Cl
HETATM   12  C7    D T1351       8.411   0.805  -5.606  1.00 32.16     0.011 A 
HETATM   13  C6    D T1351       8.562  -0.363  -4.887  1.00 28.80    -0.003 A 
ENDBRANCH   1   7
BRANCH   1  14
HETATM   14  C14   D T1351      10.585  -1.845  -2.397  1.00 30.67    -0.019 A 
HETATM   15  C15   D T1351      11.957  -1.786  -2.168  1.00 28.60    -0.004 A 
HETATM   16  C16   D T1351      12.445  -1.554  -0.900  1.00 33.11    -0.000 A 
HETATM   17  C17   D T1351      11.577  -1.359   0.167  1.00 31.57     0.003 A 
HETATM   18  C18   D T1351      10.212  -1.443  -0.057  1.00 28.36    -0.000 A 
HETATM   19  C19   D T1351       9.721  -1.682  -1.321  1.00 26.27    -0.004 A 
BRANCH  17  20
HETATM   20  C20   D T1351      12.091  -1.188   1.533  1.00 34.09     0.042 A 
HETATM   21  C21   D T1351      13.124  -0.339   1.951  1.00 35.67     0.124 A 
HETATM   22  N22   D T1351      13.380  -0.494   3.251  1.00 33.11    -0.146 NA
HETATM   23  N23   D T1351      12.543  -1.480   3.661  1.00 34.31    -0.146 NA
HETATM   24  C24   D T1351      11.773  -1.922   2.649  1.00 32.13     0.124 A 
ENDBRANCH  17  20
ENDBRANCH   1  14
TORSDOF 3
ENDMDL
MODEL 5
REMARK VINA RESULT:    -7.111      2.638      3.768
REMARK INTER + INTRA:          -8.857
REMARK INTER:                  -7.893
REMARK INTRA:                  -0.964
REMARK UNBOUND:                -0.498
REMARK  3 active torsions:
REMARK  status: ('A' for Active; 'I' for Inactive)
REMARK    1  A    between atoms: C5_5  and  C8_8 
REMARK    2  A    between atoms: C8_8  and  C14_14 
REMARK    3  A    between atoms: C17_17  and  C20_20 
ROOT
HETATM    1  C8    D T1351       9.621  -4.391  -0.831  1.00 28.40     0.042 C 
HETATM    2  C9    D T1351       8.948  -3.728   0.391  1.00 31.07     0.046 C 
HETATM    3  C10   D T1351       9.300  -4.393   1.712  1.00 30.89     0.291 C 
HETATM    4  N11   D T1351      10.780  -4.383   1.888  1.00 29.44     0.339 N 
HETATM    5  C12   D T1351      11.464  -5.111   0.779  1.00 30.13     0.291 C 
HETATM    6  C13   D T1351      11.131  -4.438  -0.540  1.00 30.34     0.046 C 
ENDROOT
BRANCH   1   7
HETATM    7  C5    D T1351       9.029  -5.775  -1.151  1.00 28.95    -0.019 A 
HETATM    8  C4    D T1351       7.853  -6.203  -0.539  1.00 28.71    -0.003 A 
HETATM    9  C3    D T1351       7.313  -7.434  -0.842  1.00 30.92     0.011 A 
HETATM   10  C2    D T1351       7.921  -8.249  -1.779  1.00 30.64     0.058 A 
HETATM   11 CL1    D T1351       7.232  -9.797  -2.156  1.00 40.18    -0.082 Cl
HETATM   12  C7    D T1351       9.088  -7.831  -2.399  1.00 32.16     0.011 A 
HETATM   13  C6    D T1351       9.634  -6.602  -2.094  1.00 28.80    -0.003 A 
ENDBRANCH   1   7
BRANCH   1  14
HETATM   14  C14   D T1351       9.342  -3.437  -2.006  1.00 30.67    -0.019 A 
HETATM   15  C15   D T1351      10.353  -3.011  -2.864  1.00 28.60    -0.004 A 
HETATM   16  C16   D T1351      10.079  -2.121  -3.880  1.00 33.11    -0.000 A 
HETATM   17  C17   D T1351       8.787  -1.648  -4.077  1.00 31.57     0.003 A 
HETATM   18  C18   D T1351       7.786  -2.054  -3.208  1.00 28.36    -0.000 A 
HETATM   19  C19   D T1351       8.059  -2.937  -2.187  1.00 26.27    -0.004 A 
BRANCH  17  20
HETATM   20  C20   D T1351       8.504  -0.642  -5.109  1.00 34.09     0.042 A 
HETATM   21  C21   D T1351       8.947   0.687  -5.143  1.00 35.67     0.124 A 
HETATM   22  N22   D T1351       8.438   1.339  -6.189  1.00 33.11    -0.146 NA
HETATM   23  N23   D T1351       7.626   0.442  -6.803  1.00 34.31    -0.146 NA
HETATM   24  C24   D T1351       7.637  -0.745  -6.167  1.00 32.13     0.124 A 
ENDBRANCH  17  20
ENDBRANCH   1  14
TORSDOF 3
ENDMDL
MODEL 6
REMARK VINA RESULT:    -6.617      3.416      5.321
REMARK INTER + INTRA:          -8.275
REMARK INTER:                  -7.354
REMARK INTRA:                  -0.922
REMARK UNBOUND:                -0.498
REMARK  3 active torsions:
REMARK  status: ('A' for Active; 'I' for Inactive)
REMARK    1  A    between atoms: C5_5  and  C8_8 
REMARK    2  A    between atoms: C8_8  and  C14_14 
REMARK    3  A    between atoms: C17_17  and  C20_20 
ROOT
HETATM    1  C8    D T1351       9.428  -4.917  -1.150  1.00 28.40     0.042 C 
HETATM    2  C9    D T1351      10.256  -5.944  -1.950  1.00 31.07     0.046 C 
HETATM    3  C10   D T1351      10.490  -7.249  -1.205  1.00 30.89     0.291 C 
HETATM    4  N11   D T1351       9.175  -7.844  -0.834  1.00 29.44     0.339 N 
HETATM    5  C12   D T1351       8.386  -6.922   0.034  1.00 30.13     0.291 C 
HETATM    6  C13   D T1351       8.134  -5.626  -0.715  1.00 30.34     0.046 C 
ENDROOT
BRANCH   1   7
HETATM    7  C5    D T1351      10.211  -4.322   0.033  1.00 28.95    -0.019 A 
HETATM    8  C4    D T1351      11.467  -3.752  -0.161  1.00 28.71    -0.003 A 
HETATM    9  C3    D T1351      12.159  -3.201   0.895  1.00 30.92     0.011 A 
HETATM   10  C2    D T1351      11.600  -3.185   2.160  1.00 30.64     0.058 A 
HETATM   11 CL1    D T1351      12.478  -2.486   3.484  1.00 40.18    -0.082 Cl
HETATM   12  C7    D T1351      10.348  -3.743   2.365  1.00 32.16     0.011 A 
HETATM   13  C6    D T1351       9.655  -4.300   1.310  1.00 28.80    -0.003 A 
ENDBRANCH   1   7
BRANCH   1  14
HETATM   14  C14   D T1351       9.100  -3.797  -2.155  1.00 30.67    -0.019 A 
HETATM   15  C15   D T1351       9.515  -3.857  -3.483  1.00 28.60    -0.004 A 
HETATM   16  C16   D T1351       9.244  -2.817  -4.347  1.00 33.11    -0.000 A 
HETATM   17  C17   D T1351       8.540  -1.701  -3.912  1.00 31.57     0.003 A 
HETATM   18  C18   D T1351       8.150  -1.632  -2.583  1.00 28.36    -0.000 A 
HETATM   19  C19   D T1351       8.425  -2.666  -1.716  1.00 26.27    -0.004 A 
BRANCH  17  20
HETATM   20  C20   D T1351       8.316  -0.558  -4.806  1.00 34.09     0.042 A 
HETATM   21  C21   D T1351       7.751  -0.581  -6.088  1.00 35.67     0.124 A 
HETATM   22  N22   D T1351       7.769   0.630  -6.646  1.00 33.11    -0.146 NA
HETATM   23  N23   D T1351       8.391   1.427  -5.740  1.00 34.31    -0.146 NA
HETATM   24  C24   D T1351       8.741   0.737  -4.639  1.00 32.13     0.124 A 
ENDBRANCH  17  20
ENDBRANCH   1  14
TORSDOF 3
ENDMDL
MODEL 7
REMARK VINA RESULT:    -6.615      5.118      7.223
REMARK INTER + INTRA:          -8.274
REMARK INTER:                  -7.400
REMARK INTRA:                  -0.874
REMARK UNBOUND:                -0.498
REMARK  3 active torsions:
REMARK  status: ('A' for Active; 'I' for Inactive)
REMARK    1  A    between atoms: C5_5  and  C8_8 
REMARK    2  A    between atoms: C8_8  and  C14_14 
REMARK    3  A    between atoms: C17_17  and  C20_20 
ROOT
HETATM    1  C8    D T1351       9.688  -4.553  -1.066  1.00 28.40     0.042 C 
HETATM    2  C9    D T1351       8.555  -4.956  -0.098  1.00 31.07     0.046 C 
HETATM    3  C10   D T1351       7.783  -6.187  -0.546  1.00 30.89     0.291 C 
HETATM    4  N11   D T1351       8.730  -7.326  -0.712  1.00 29.44     0.339 N 
HETATM    5  C12   D T1351       9.782  -7.016  -1.724  1.00 30.13     0.291 C 
HETATM    6  C13   D T1351      10.567  -5.799  -1.269  1.00 30.34     0.046 C 
ENDROOT
BRANCH   1   7
HETATM    7  C5    D T1351       9.156  -3.973  -2.388  1.00 28.95    -0.019 A 
HETATM    8  C4    D T1351       9.645  -4.426  -3.611  1.00 28.71    -0.003 A 
HETATM    9  C3    D T1351       9.153  -3.920  -4.794  1.00 30.92     0.011 A 
HETATM   10  C2    D T1351       8.146  -2.972  -4.780  1.00 30.64     0.058 A 
HETATM   11 CL1    D T1351       7.531  -2.342  -6.276  1.00 40.18    -0.082 Cl
HETATM   12  C7    D T1351       7.648  -2.518  -3.569  1.00 32.16     0.011 A 
HETATM   13  C6    D T1351       8.142  -3.018  -2.383  1.00 28.80    -0.003 A 
ENDBRANCH   1   7
BRANCH   1  14
HETATM   14  C14   D T1351      10.483  -3.466  -0.320  1.00 30.67    -0.019 A 
HETATM   15  C15   D T1351      11.333  -2.588  -0.987  1.00 28.60    -0.004 A 
HETATM   16  C16   D T1351      12.065  -1.655  -0.284  1.00 33.11    -0.000 A 
HETATM   17  C17   D T1351      11.954  -1.563   1.098  1.00 31.57     0.003 A 
HETATM   18  C18   D T1351      11.126  -2.454   1.763  1.00 28.36    -0.000 A 
HETATM   19  C19   D T1351      10.399  -3.392   1.065  1.00 26.27    -0.004 A 
BRANCH  17  20
HETATM   20  C20   D T1351      12.788  -0.624   1.859  1.00 34.09     0.042 A 
HETATM   21  C21   D T1351      12.617  -0.223   3.190  1.00 35.67     0.124 A 
HETATM   22  N22   D T1351      13.515   0.701   3.536  1.00 33.11    -0.146 NA
HETATM   23  N23   D T1351      14.236   0.932   2.410  1.00 34.31    -0.146 NA
HETATM   24  C24   D T1351      13.810   0.163   1.389  1.00 32.13     0.124 A 
ENDBRANCH  17  20
ENDBRANCH   1  14
TORSDOF 3
ENDMDL
MODEL 8
REMARK VINA RESULT:    -6.564      2.911      7.241
REMARK INTER + INTRA:          -8.214
REMARK INTER:                  -8.039
REMARK INTRA:                  -0.175
REMARK UNBOUND:                -0.498
REMARK  3 active torsions:
REMARK  status: ('A' for Active; 'I' for Inactive)
REMARK    1  A    between atoms: C5_5  and  C8_8 
REMARK    2  A    between atoms: C8_8  and  C14_14 
REMARK    3  A    between atoms: C17_17  and  C20_20 
ROOT
HETATM    1  C8    D T1351       9.608  -0.615  -3.801  1.00 28.40     0.042 C 
HETATM    2  C9    D T1351      11.051  -0.549  -4.347  1.00 31.07     0.046 C 
HETATM    3  C10   D T1351      11.247   0.513  -5.416  1.00 30.89     0.291 C 
HETATM    4  N11   D T1351      10.858   1.842  -4.865  1.00 29.44     0.339 N 
HETATM    5  C12   D T1351       9.432   1.852  -4.425  1.00 30.13     0.291 C 
HETATM    6  C13   D T1351       9.237   0.805  -3.343  1.00 30.34     0.046 C 
ENDROOT
BRANCH   1   7
HETATM    7  C5    D T1351       8.617  -1.193  -4.826  1.00 28.95    -0.019 A 
HETATM    8  C4    D T1351       8.050  -0.378  -5.803  1.00 28.71    -0.003 A 
HETATM    9  C3    D T1351       7.178  -0.900  -6.733  1.00 30.92     0.011 A 
HETATM   10  C2    D T1351       6.875  -2.250  -6.722  1.00 30.64     0.058 A 
HETATM   11 CL1    D T1351       5.777  -2.899  -7.899  1.00 40.18    -0.082 Cl
HETATM   12  C7    D T1351       7.436  -3.071  -5.757  1.00 32.16     0.011 A 
HETATM   13  C6    D T1351       8.306  -2.551  -4.822  1.00 28.80    -0.003 A 
ENDBRANCH   1   7
BRANCH   1  14
HETATM   14  C14   D T1351       9.684  -1.556  -2.585  1.00 30.67    -0.019 A 
HETATM   15  C15   D T1351       8.593  -1.761  -1.744  1.00 28.60    -0.004 A 
HETATM   16  C16   D T1351       8.707  -2.575  -0.637  1.00 33.11    -0.000 A 
HETATM   17  C17   D T1351       9.905  -3.218  -0.352  1.00 31.57     0.003 A 
HETATM   18  C18   D T1351      10.997  -2.994  -1.176  1.00 28.36    -0.000 A 
HETATM   19  C19   D T1351      10.889  -2.175  -2.278  1.00 26.27    -0.004 A 
BRANCH  17  20
HETATM   20  C20   D T1351      10.054  -4.024   0.867  1.00 34.09     0.042 A 
HETATM   21  C21   D T1351       9.425  -5.241   1.161  1.00 35.67     0.124 A 
HETATM   22  N22   D T1351       9.732  -5.659   2.390  1.00 33.11    -0.146 NA
HETATM   23  N23   D T1351      10.523  -4.684   2.907  1.00 34.31    -0.146 NA
HETATM   24  C24   D T1351      10.717  -3.689   2.021  1.00 32.13     0.124 A 
ENDBRANCH  17  20
ENDBRANCH   1  14
TORSDOF 3
ENDMDL
MODEL 9
REMARK VINA RESULT:    -6.359      3.704      5.713
REMARK INTER + INTRA:          -7.972
REMARK INTER:                  -7.185
REMARK INTRA:                  -0.786
REMARK UNBOUND:                -0.498
REMARK  3 active torsions:
REMARK  status: ('A' for Active; 'I' for Inactive)
REMARK    1  A    between atoms: C5_5  and  C8_8 
REMARK    2  A    between atoms: C8_8  and  C14_14 
REMARK    3  A    between atoms: C17_17  and  C20_20 
ROOT
HETATM    1  C8    D T1351      12.205  -1.979   0.107  1.00 28.40     0.042 C 
HETATM    2  C9    D T1351      12.261  -3.522   0.127  1.00 31.07     0.046 C 
HETATM    3  C10   D T1351      12.876  -4.090   1.396  1.00 30.89     0.291 C 
HETATM    4  N11   D T1351      12.107  -3.601   2.575  1.00 29.44     0.339 N 
HETATM    5  C12   D T1351      12.120  -2.111   2.653  1.00 30.13     0.291 C 
HETATM    6  C13   D T1351      11.489  -1.541   1.395  1.00 30.34     0.046 C 
ENDROOT
BRANCH   1   7
HETATM    7  C5    D T1351      13.595  -1.341  -0.054  1.00 28.95    -0.019 A 
HETATM    8  C4    D T1351      13.855  -0.068   0.450  1.00 28.71    -0.003 A 
HETATM    9  C3    D T1351      15.106   0.494   0.324  1.00 30.92     0.011 A 
HETATM   10  C2    D T1351      16.129  -0.212  -0.284  1.00 30.64     0.058 A 
HETATM   11 CL1    D T1351      17.703   0.504  -0.436  1.00 40.18    -0.082 Cl
HETATM   12  C7    D T1351      15.884  -1.482  -0.784  1.00 32.16     0.011 A 
HETATM   13  C6    D T1351      14.631  -2.045  -0.664  1.00 28.80    -0.003 A 
ENDBRANCH   1   7
BRANCH   1  14
HETATM   14  C14   D T1351      11.342  -1.627  -1.119  1.00 30.67    -0.019 A 
HETATM   15  C15   D T1351      11.896  -1.460  -2.385  1.00 28.60    -0.004 A 
HETATM   16  C16   D T1351      11.103  -1.101  -3.454  1.00 33.11    -0.000 A 
HETATM   17  C17   D T1351       9.735  -0.917  -3.289  1.00 31.57     0.003 A 
HETATM   18  C18   D T1351       9.188  -1.060  -2.023  1.00 28.36    -0.000 A 
HETATM   19  C19   D T1351       9.980  -1.411  -0.952  1.00 26.27    -0.004 A 
BRANCH  17  20
HETATM   20  C20   D T1351       8.898  -0.460  -4.406  1.00 34.09     0.042 A 
HETATM   21  C21   D T1351       8.211  -1.255  -5.332  1.00 35.67     0.124 A 
HETATM   22  N22   D T1351       7.610  -0.508  -6.259  1.00 33.11    -0.146 NA
HETATM   23  N23   D T1351       7.951   0.770  -5.958  1.00 34.31    -0.146 NA
HETATM   24  C24   D T1351       8.734   0.824  -4.863  1.00 32.13     0.124 A 
ENDBRANCH  17  20
ENDBRANCH   1  14
TORSDOF 3
ENDMDL
