MODEL 1
REMARK VINA RESULT:    -7.684      0.000      0.000
REMARK INTER + INTRA:          -9.742
REMARK INTER:                  -9.032
REMARK INTRA:                  -0.711
REMARK UNBOUND:                -0.711
REMARK  3 active torsions:
REMARK  status: ('A' for Active; 'I' for Inactive)
REMARK    1  A    between atoms: C5_5  and  C8_8 
REMARK    2  A    between atoms: C8_8  and  C14_14 
REMARK    3  A    between atoms: C17_17  and  C20_20 
ROOT
HETATM    1  C8    D T1351     -12.930   5.311  -2.898  1.00 28.40     0.042 C 
HETATM    2  C9    D T1351     -11.838   5.181  -1.813  1.00 31.07     0.046 C 
HETATM    3  C10   D T1351     -10.554   5.921  -2.153  1.00 30.89     0.291 C 
HETATM    4  N11   D T1351     -10.865   7.361  -2.385  1.00 29.44     0.339 N 
HETATM    5  C12   D T1351     -11.837   7.536  -3.501  1.00 30.13     0.291 C 
HETATM    6  C13   D T1351     -13.127   6.815  -3.157  1.00 30.34     0.046 C 
ENDROOT
BRANCH   1   7
HETATM    7  C5    D T1351     -12.589   4.523  -4.173  1.00 28.95    -0.019 A 
HETATM    8  C4    D T1351     -11.308   4.013  -4.374  1.00 28.71    -0.003 A 
HETATM    9  C3    D T1351     -11.010   3.289  -5.508  1.00 30.92     0.011 A 
HETATM   10  C2    D T1351     -11.990   3.039  -6.451  1.00 30.64     0.058 A 
HETATM   11 CL1    D T1351     -11.606   2.124  -7.876  1.00 40.18    -0.082 Cl
HETATM   12  C7    D T1351     -13.269   3.536  -6.261  1.00 32.16     0.011 A 
HETATM   13  C6    D T1351     -13.570   4.265  -5.128  1.00 28.80    -0.003 A 
ENDBRANCH   1   7
BRANCH   1  14
HETATM   14  C14   D T1351     -14.199   4.718  -2.259  1.00 30.67    -0.019 A 
HETATM   15  C15   D T1351     -15.388   5.436  -2.178  1.00 28.60    -0.004 A 
HETATM   16  C16   D T1351     -16.494   4.893  -1.561  1.00 33.11    -0.000 A 
HETATM   17  C17   D T1351     -16.445   3.613  -1.024  1.00 31.57     0.003 A 
HETATM   18  C18   D T1351     -15.254   2.906  -1.083  1.00 28.36    -0.000 A 
HETATM   19  C19   D T1351     -14.146   3.450  -1.693  1.00 26.27    -0.004 A 
BRANCH  17  20
HETATM   20  C20   D T1351     -17.596   3.058  -0.299  1.00 34.09     0.042 A 
HETATM   21  C21   D T1351     -18.442   2.021  -0.714  1.00 35.67     0.124 A 
HETATM   22  N22   D T1351     -19.432   1.826   0.158  1.00 33.11    -0.146 NA
HETATM   23  N23   D T1351     -19.252   2.772   1.114  1.00 34.31    -0.146 NA
HETATM   24  C24   D T1351     -18.171   3.532   0.855  1.00 32.13     0.124 A 
ENDBRANCH  17  20
ENDBRANCH   1  14
TORSDOF 3
ENDMDL
MODEL 2
REMARK VINA RESULT:    -7.426      3.888      6.571
REMARK INTER + INTRA:          -9.439
REMARK INTER:                  -8.521
REMARK INTRA:                  -0.918
REMARK UNBOUND:                -0.711
REMARK  3 active torsions:
REMARK  status: ('A' for Active; 'I' for Inactive)
REMARK    1  A    between atoms: C5_5  and  C8_8 
REMARK    2  A    between atoms: C8_8  and  C14_14 
REMARK    3  A    between atoms: C17_17  and  C20_20 
ROOT
HETATM    1  C8    D T1351     -12.584   5.363  -3.522  1.00 28.40     0.042 C 
HETATM    2  C9    D T1351     -12.888   6.708  -4.217  1.00 31.07     0.046 C 
HETATM    3  C10   D T1351     -12.671   7.916  -3.319  1.00 30.89     0.291 C 
HETATM    4  N11   D T1351     -11.265   7.912  -2.822  1.00 29.44     0.339 N 
HETATM    5  C12   D T1351     -10.963   6.672  -2.050  1.00 30.13     0.291 C 
HETATM    6  C13   D T1351     -11.160   5.465  -2.949  1.00 30.34     0.046 C 
ENDROOT
BRANCH   1   7
HETATM    7  C5    D T1351     -13.633   4.998  -2.459  1.00 28.95    -0.019 A 
HETATM    8  C4    D T1351     -14.909   5.556  -2.499  1.00 28.71    -0.003 A 
HETATM    9  C3    D T1351     -15.856   5.213  -1.558  1.00 30.92     0.011 A 
HETATM   10  C2    D T1351     -15.555   4.290  -0.573  1.00 30.64     0.058 A 
HETATM   11 CL1    D T1351     -16.753   3.862   0.608  1.00 40.18    -0.082 Cl
HETATM   12  C7    D T1351     -14.290   3.725  -0.524  1.00 32.16     0.011 A 
HETATM   13  C6    D T1351     -13.339   4.069  -1.464  1.00 28.80    -0.003 A 
ENDBRANCH   1   7
BRANCH   1  14
HETATM   14  C14   D T1351     -12.621   4.315  -4.650  1.00 30.67    -0.019 A 
HETATM   15  C15   D T1351     -13.813   3.921  -5.251  1.00 28.60    -0.004 A 
HETATM   16  C16   D T1351     -13.818   2.949  -6.227  1.00 33.11    -0.000 A 
HETATM   17  C17   D T1351     -12.631   2.356  -6.639  1.00 31.57     0.003 A 
HETATM   18  C18   D T1351     -11.446   2.730  -6.024  1.00 28.36    -0.000 A 
HETATM   19  C19   D T1351     -11.441   3.697  -5.043  1.00 26.27    -0.004 A 
BRANCH  17  20
HETATM   20  C20   D T1351     -12.638   1.266  -7.623  1.00 34.09     0.042 A 
HETATM   21  C21   D T1351     -13.707   0.418  -7.944  1.00 35.67     0.124 A 
HETATM   22  N22   D T1351     -13.339  -0.509  -8.829  1.00 33.11    -0.146 NA
HETATM   23  N23   D T1351     -12.017  -0.289  -9.043  1.00 34.31    -0.146 NA
HETATM   24  C24   D T1351     -11.570   0.756  -8.321  1.00 32.13     0.124 A 
ENDBRANCH  17  20
ENDBRANCH   1  14
TORSDOF 3
ENDMDL
MODEL 3
REMARK VINA RESULT:    -7.248      4.822      8.283
REMARK INTER + INTRA:          -9.230
REMARK INTER:                  -8.464
REMARK INTRA:                  -0.765
REMARK UNBOUND:                -0.711
REMARK  3 active torsions:
REMARK  status: ('A' for Active; 'I' for Inactive)
REMARK    1  A    between atoms: C5_5  and  C8_8 
REMARK    2  A    between atoms: C8_8  and  C14_14 
REMARK    3  A    between atoms: C17_17  and  C20_20 
ROOT
HETATM    1  C8    D T1351     -14.829  -0.822  -6.738  1.00 28.40     0.042 C 
HETATM    2  C9    D T1351     -16.272  -0.275  -6.797  1.00 31.07     0.046 C 
HETATM    3  C10   D T1351     -17.326  -1.362  -6.939  1.00 30.89     0.291 C 
HETATM    4  N11   D T1351     -17.198  -2.320  -5.804  1.00 29.44     0.339 N 
HETATM    5  C12   D T1351     -15.848  -2.954  -5.775  1.00 30.13     0.291 C 
HETATM    6  C13   D T1351     -14.794  -1.874  -5.615  1.00 30.34     0.046 C 
ENDROOT
BRANCH   1   7
HETATM    7  C5    D T1351     -14.351  -1.374  -8.091  1.00 28.95    -0.019 A 
HETATM    8  C4    D T1351     -13.324  -2.313  -8.154  1.00 28.71    -0.003 A 
HETATM    9  C3    D T1351     -12.910  -2.821  -9.366  1.00 30.92     0.011 A 
HETATM   10  C2    D T1351     -13.530  -2.421 -10.536  1.00 30.64     0.058 A 
HETATM   11 CL1    D T1351     -13.004  -3.068 -12.059  1.00 40.18    -0.082 Cl
HETATM   12  C7    D T1351     -14.556  -1.490 -10.487  1.00 32.16     0.011 A 
HETATM   13  C6    D T1351     -14.969  -0.977  -9.274  1.00 28.80    -0.003 A 
ENDBRANCH   1   7
BRANCH   1  14
HETATM   14  C14   D T1351     -13.960   0.388  -6.350  1.00 30.67    -0.019 A 
HETATM   15  C15   D T1351     -13.166   1.054  -7.279  1.00 28.60    -0.004 A 
HETATM   16  C16   D T1351     -12.366   2.107  -6.891  1.00 33.11    -0.000 A 
HETATM   17  C17   D T1351     -12.350   2.532  -5.568  1.00 31.57     0.003 A 
HETATM   18  C18   D T1351     -13.122   1.854  -4.638  1.00 28.36    -0.000 A 
HETATM   19  C19   D T1351     -13.917   0.797  -5.023  1.00 26.27    -0.004 A 
BRANCH  17  20
HETATM   20  C20   D T1351     -11.443   3.602  -5.135  1.00 34.09     0.042 A 
HETATM   21  C21   D T1351     -10.077   3.725  -5.419  1.00 35.67     0.124 A 
HETATM   22  N22   D T1351      -9.547   4.781  -4.800  1.00 33.11    -0.146 NA
HETATM   23  N23   D T1351     -10.564   5.313  -4.076  1.00 34.31    -0.146 NA
HETATM   24  C24   D T1351     -11.704   4.616  -4.245  1.00 32.13     0.124 A 
ENDBRANCH  17  20
ENDBRANCH   1  14
TORSDOF 3
ENDMDL
MODEL 4
REMARK VINA RESULT:    -7.237      6.628     10.120
REMARK INTER + INTRA:          -9.216
REMARK INTER:                  -8.244
REMARK INTRA:                  -0.972
REMARK UNBOUND:                -0.711
REMARK  3 active torsions:
REMARK  status: ('A' for Active; 'I' for Inactive)
REMARK    1  A    between atoms: C5_5  and  C8_8 
REMARK    2  A    between atoms: C8_8  and  C14_14 
REMARK    3  A    between atoms: C17_17  and  C20_20 
ROOT
HETATM    1  C8    D T1351     -14.388  -1.578  -9.827  1.00 28.40     0.042 C 
HETATM    2  C9    D T1351     -13.358  -2.340 -10.690  1.00 31.07     0.046 C 
HETATM    3  C10   D T1351     -13.992  -3.219 -11.755  1.00 30.89     0.291 C 
HETATM    4  N11   D T1351     -14.860  -2.381 -12.630  1.00 29.44     0.339 N 
HETATM    5  C12   D T1351     -15.939  -1.711 -11.848  1.00 30.13     0.291 C 
HETATM    6  C13   D T1351     -15.309  -0.817 -10.795  1.00 30.34     0.046 C 
ENDROOT
BRANCH   1   7
HETATM    7  C5    D T1351     -15.157  -2.506  -8.872  1.00 28.95    -0.019 A 
HETATM    8  C4    D T1351     -16.539  -2.398  -8.735  1.00 28.71    -0.003 A 
HETATM    9  C3    D T1351     -17.230  -3.243  -7.894  1.00 30.92     0.011 A 
HETATM   10  C2    D T1351     -16.558  -4.228  -7.193  1.00 30.64     0.058 A 
HETATM   11 CL1    D T1351     -17.437  -5.290  -6.137  1.00 40.18    -0.082 Cl
HETATM   12  C7    D T1351     -15.184  -4.349  -7.323  1.00 32.16     0.011 A 
HETATM   13  C6    D T1351     -14.489  -3.501  -8.162  1.00 28.80    -0.003 A 
ENDBRANCH   1   7
BRANCH   1  14
HETATM   14  C14   D T1351     -13.555  -0.580  -9.001  1.00 30.67    -0.019 A 
HETATM   15  C15   D T1351     -14.138   0.263  -8.059  1.00 28.60    -0.004 A 
HETATM   16  C16   D T1351     -13.371   1.176  -7.368  1.00 33.11    -0.000 A 
HETATM   17  C17   D T1351     -12.002   1.260  -7.588  1.00 31.57     0.003 A 
HETATM   18  C18   D T1351     -11.425   0.436  -8.543  1.00 28.36    -0.000 A 
HETATM   19  C19   D T1351     -12.191  -0.472  -9.239  1.00 26.27    -0.004 A 
BRANCH  17  20
HETATM   20  C20   D T1351     -11.193   2.281  -6.911  1.00 34.09     0.042 A 
HETATM   21  C21   D T1351      -9.811   2.485  -7.025  1.00 35.67     0.124 A 
HETATM   22  N22   D T1351      -9.396   3.454  -6.208  1.00 33.11    -0.146 NA
HETATM   23  N23   D T1351     -10.505   3.843  -5.529  1.00 34.31    -0.146 NA
HETATM   24  C24   D T1351     -11.589   3.146  -5.919  1.00 32.13     0.124 A 
ENDBRANCH  17  20
ENDBRANCH   1  14
TORSDOF 3
ENDMDL
MODEL 5
REMARK VINA RESULT:    -7.219      4.132      6.913
REMARK INTER + INTRA:          -9.196
REMARK INTER:                  -8.203
REMARK INTRA:                  -0.993
REMARK UNBOUND:                -0.711
REMARK  3 active torsions:
REMARK  status: ('A' for Active; 'I' for Inactive)
REMARK    1  A    between atoms: C5_5  and  C8_8 
REMARK    2  A    between atoms: C8_8  and  C14_14 
REMARK    3  A    between atoms: C17_17  and  C20_20 
ROOT
HETATM    1  C8    D T1351     -14.078   3.972  -2.711  1.00 28.40     0.042 C 
HETATM    2  C9    D T1351     -13.923   5.438  -3.171  1.00 31.07     0.046 C 
HETATM    3  C10   D T1351     -13.905   6.435  -2.023  1.00 30.89     0.291 C 
HETATM    4  N11   D T1351     -12.802   6.082  -1.085  1.00 29.44     0.339 N 
HETATM    5  C12   D T1351     -12.974   4.707  -0.532  1.00 30.13     0.291 C 
HETATM    6  C13   D T1351     -12.973   3.708  -1.674  1.00 30.34     0.046 C 
ENDROOT
BRANCH   1   7
HETATM    7  C5    D T1351     -15.488   3.668  -2.176  1.00 28.95    -0.019 A 
HETATM    8  C4    D T1351     -16.617   4.147  -2.835  1.00 28.71    -0.003 A 
HETATM    9  C3    D T1351     -17.880   3.858  -2.366  1.00 30.92     0.011 A 
HETATM   10  C2    D T1351     -18.041   3.065  -1.245  1.00 30.64     0.058 A 
HETATM   11 CL1    D T1351     -19.635   2.703  -0.661  1.00 40.18    -0.082 Cl
HETATM   12  C7    D T1351     -16.925   2.579  -0.581  1.00 32.16     0.011 A 
HETATM   13  C6    D T1351     -15.659   2.870  -1.048  1.00 28.80    -0.003 A 
ENDBRANCH   1   7
BRANCH   1  14
HETATM   14  C14   D T1351     -13.825   3.129  -3.974  1.00 30.67    -0.019 A 
HETATM   15  C15   D T1351     -13.842   1.737  -3.948  1.00 28.60    -0.004 A 
HETATM   16  C16   D T1351     -13.568   1.011  -5.086  1.00 33.11    -0.000 A 
HETATM   17  C17   D T1351     -13.284   1.656  -6.284  1.00 31.57     0.003 A 
HETATM   18  C18   D T1351     -13.244   3.042  -6.306  1.00 28.36    -0.000 A 
HETATM   19  C19   D T1351     -13.511   3.768  -5.167  1.00 26.27    -0.004 A 
BRANCH  17  20
HETATM   20  C20   D T1351     -12.917   0.889  -7.481  1.00 34.09     0.042 A 
HETATM   21  C21   D T1351     -13.737   0.028  -8.223  1.00 35.67     0.124 A 
HETATM   22  N22   D T1351     -13.055  -0.563  -9.205  1.00 33.11    -0.146 NA
HETATM   23  N23   D T1351     -11.780  -0.118  -9.066  1.00 34.31    -0.146 NA
HETATM   24  C24   D T1351     -11.668   0.737  -8.033  1.00 32.13     0.124 A 
ENDBRANCH  17  20
ENDBRANCH   1  14
TORSDOF 3
ENDMDL
MODEL 6
REMARK VINA RESULT:    -7.140      4.083      6.656
REMARK INTER + INTRA:          -9.103
REMARK INTER:                  -8.136
REMARK INTRA:                  -0.967
REMARK UNBOUND:                -0.711
REMARK  3 active torsions:
REMARK  status: ('A' for Active; 'I' for Inactive)
REMARK    1  A    between atoms: C5_5  and  C8_8 
REMARK    2  A    between atoms: C8_8  and  C14_14 
REMARK    3  A    between atoms: C17_17  and  C20_20 
ROOT
HETATM    1  C8    D T1351     -15.245   3.433  -2.732  1.00 28.40     0.042 C 
HETATM    2  C9    D T1351     -15.327   2.458  -1.537  1.00 31.07     0.046 C 
HETATM    3  C10   D T1351     -15.947   3.075  -0.293  1.00 30.89     0.291 C 
HETATM    4  N11   D T1351     -17.310   3.582  -0.624  1.00 29.44     0.339 N 
HETATM    5  C12   D T1351     -17.262   4.609  -1.704  1.00 30.13     0.291 C 
HETATM    6  C13   D T1351     -16.662   3.992  -2.954  1.00 30.34     0.046 C 
ENDROOT
BRANCH   1   7
HETATM    7  C5    D T1351     -14.193   4.534  -2.523  1.00 28.95    -0.019 A 
HETATM    8  C4    D T1351     -13.318   4.485  -1.440  1.00 28.71    -0.003 A 
HETATM    9  C3    D T1351     -12.361   5.462  -1.265  1.00 30.92     0.011 A 
HETATM   10  C2    D T1351     -12.244   6.492  -2.180  1.00 30.64     0.058 A 
HETATM   11 CL1    D T1351     -11.035   7.717  -1.953  1.00 40.18    -0.082 Cl
HETATM   12  C7    D T1351     -13.106   6.550  -3.264  1.00 32.16     0.011 A 
HETATM   13  C6    D T1351     -14.067   5.575  -3.439  1.00 28.80    -0.003 A 
ENDBRANCH   1   7
BRANCH   1  14
HETATM   14  C14   D T1351     -14.832   2.559  -3.931  1.00 30.67    -0.019 A 
HETATM   15  C15   D T1351     -13.633   1.853  -3.950  1.00 28.60    -0.004 A 
HETATM   16  C16   D T1351     -13.272   1.115  -5.056  1.00 33.11    -0.000 A 
HETATM   17  C17   D T1351     -14.106   1.051  -6.166  1.00 31.57     0.003 A 
HETATM   18  C18   D T1351     -15.289   1.774  -6.157  1.00 28.36    -0.000 A 
HETATM   19  C19   D T1351     -15.648   2.517  -5.055  1.00 26.27    -0.004 A 
BRANCH  17  20
HETATM   20  C20   D T1351     -13.692   0.329  -7.375  1.00 34.09     0.042 A 
HETATM   21  C21   D T1351     -12.428   0.341  -7.981  1.00 35.67     0.124 A 
HETATM   22  N22   D T1351     -12.426  -0.369  -9.110  1.00 33.11    -0.146 NA
HETATM   23  N23   D T1351     -13.705  -0.799  -9.259  1.00 34.31    -0.146 NA
HETATM   24  C24   D T1351     -14.485  -0.380  -8.244  1.00 32.13     0.124 A 
ENDBRANCH  17  20
ENDBRANCH   1  14
TORSDOF 3
ENDMDL
MODEL 7
REMARK VINA RESULT:    -7.136      6.088      9.760
REMARK INTER + INTRA:          -9.099
REMARK INTER:                  -8.138
REMARK INTRA:                  -0.961
REMARK UNBOUND:                -0.711
REMARK  3 active torsions:
REMARK  status: ('A' for Active; 'I' for Inactive)
REMARK    1  A    between atoms: C5_5  and  C8_8 
REMARK    2  A    between atoms: C8_8  and  C14_14 
REMARK    3  A    between atoms: C17_17  and  C20_20 
ROOT
HETATM    1  C8    D T1351     -14.311  -1.947  -8.643  1.00 28.40     0.042 C 
HETATM    2  C9    D T1351     -14.673  -2.712  -7.351  1.00 31.07     0.046 C 
HETATM    3  C10   D T1351     -15.328  -4.060  -7.608  1.00 30.89     0.291 C 
HETATM    4  N11   D T1351     -14.421  -4.893  -8.449  1.00 29.44     0.339 N 
HETATM    5  C12   D T1351     -14.132  -4.235  -9.756  1.00 30.13     0.291 C 
HETATM    6  C13   D T1351     -13.461  -2.898  -9.504  1.00 30.34     0.046 C 
ENDROOT
BRANCH   1   7
HETATM    7  C5    D T1351     -15.551  -1.417  -9.381  1.00 28.95    -0.019 A 
HETATM    8  C4    D T1351     -15.464  -0.995 -10.706  1.00 28.71    -0.003 A 
HETATM    9  C3    D T1351     -16.580  -0.539 -11.373  1.00 30.92     0.011 A 
HETATM   10  C2    D T1351     -17.809  -0.518 -10.739  1.00 30.64     0.058 A 
HETATM   11 CL1    D T1351     -19.211   0.057 -11.587  1.00 40.18    -0.082 Cl
HETATM   12  C7    D T1351     -17.910  -0.938  -9.422  1.00 32.16     0.011 A 
HETATM   13  C6    D T1351     -16.793  -1.392  -8.751  1.00 28.80    -0.003 A 
ENDBRANCH   1   7
BRANCH   1  14
HETATM   14  C14   D T1351     -13.454  -0.757  -8.174  1.00 30.67    -0.019 A 
HETATM   15  C15   D T1351     -12.251  -0.426  -8.791  1.00 28.60    -0.004 A 
HETATM   16  C16   D T1351     -11.486   0.618  -8.320  1.00 33.11    -0.000 A 
HETATM   17  C17   D T1351     -11.909   1.369  -7.230  1.00 31.57     0.003 A 
HETATM   18  C18   D T1351     -13.095   1.025  -6.600  1.00 28.36    -0.000 A 
HETATM   19  C19   D T1351     -13.858  -0.022  -7.066  1.00 26.27    -0.004 A 
BRANCH  17  20
HETATM   20  C20   D T1351     -11.062   2.433  -6.676  1.00 34.09     0.042 A 
HETATM   21  C21   D T1351      -9.684   2.605  -6.862  1.00 35.67     0.124 A 
HETATM   22  N22   D T1351      -9.225   3.635  -6.150  1.00 33.11    -0.146 NA
HETATM   23  N23   D T1351     -10.301   4.099  -5.465  1.00 34.31    -0.146 NA
HETATM   24  C24   D T1351     -11.408   3.386  -5.749  1.00 32.13     0.124 A 
ENDBRANCH  17  20
ENDBRANCH   1  14
TORSDOF 3
ENDMDL
MODEL 8
REMARK VINA RESULT:    -7.115      3.477      7.033
REMARK INTER + INTRA:          -9.073
REMARK INTER:                  -8.207
REMARK INTRA:                  -0.866
REMARK UNBOUND:                -0.711
REMARK  3 active torsions:
REMARK  status: ('A' for Active; 'I' for Inactive)
REMARK    1  A    between atoms: C5_5  and  C8_8 
REMARK    2  A    between atoms: C8_8  and  C14_14 
REMARK    3  A    between atoms: C17_17  and  C20_20 
ROOT
HETATM    1  C8    D T1351     -15.219   4.149  -1.886  1.00 28.40     0.042 C 
HETATM    2  C9    D T1351     -15.036   5.671  -1.699  1.00 31.07     0.046 C 
HETATM    3  C10   D T1351     -15.736   6.219  -0.465  1.00 30.89     0.291 C 
HETATM    4  N11   D T1351     -15.236   5.499   0.741  1.00 29.44     0.339 N 
HETATM    5  C12   D T1351     -15.492   4.033   0.647  1.00 30.13     0.291 C 
HETATM    6  C13   D T1351     -14.779   3.479  -0.573  1.00 30.34     0.046 C 
ENDROOT
BRANCH   1   7
HETATM    7  C5    D T1351     -16.652   3.774  -2.300  1.00 28.95    -0.019 A 
HETATM    8  C4    D T1351     -17.203   4.267  -3.481  1.00 28.71    -0.003 A 
HETATM    9  C3    D T1351     -18.480   3.914  -3.861  1.00 30.92     0.011 A 
HETATM   10  C2    D T1351     -19.222   3.045  -3.083  1.00 30.64     0.058 A 
HETATM   11 CL1    D T1351     -20.829   2.604  -3.569  1.00 40.18    -0.082 Cl
HETATM   12  C7    D T1351     -18.684   2.545  -1.907  1.00 32.16     0.011 A 
HETATM   13  C6    D T1351     -17.407   2.900  -1.523  1.00 28.80    -0.003 A 
ENDBRANCH   1   7
BRANCH   1  14
HETATM   14  C14   D T1351     -14.249   3.768  -3.020  1.00 30.67    -0.019 A 
HETATM   15  C15   D T1351     -14.062   2.446  -3.416  1.00 28.60    -0.004 A 
HETATM   16  C16   D T1351     -13.154   2.134  -4.404  1.00 33.11    -0.000 A 
HETATM   17  C17   D T1351     -12.421   3.133  -5.033  1.00 31.57     0.003 A 
HETATM   18  C18   D T1351     -12.591   4.446  -4.623  1.00 28.36    -0.000 A 
HETATM   19  C19   D T1351     -13.493   4.760  -3.630  1.00 26.27    -0.004 A 
BRANCH  17  20
HETATM   20  C20   D T1351     -11.399   2.799  -6.032  1.00 34.09     0.042 A 
HETATM   21  C21   D T1351     -11.581   2.101  -7.234  1.00 35.67     0.124 A 
HETATM   22  N22   D T1351     -10.421   1.909  -7.862  1.00 33.11    -0.146 NA
HETATM   23  N23   D T1351      -9.481   2.441  -7.040  1.00 34.31    -0.146 NA
HETATM   24  C24   D T1351     -10.038   2.964  -5.931  1.00 32.13     0.124 A 
ENDBRANCH  17  20
ENDBRANCH   1  14
TORSDOF 3
ENDMDL
MODEL 9
REMARK VINA RESULT:    -6.955      3.820      7.630
REMARK INTER + INTRA:          -8.886
REMARK INTER:                  -8.071
REMARK INTRA:                  -0.815
REMARK UNBOUND:                -0.711
REMARK  3 active torsions:
REMARK  status: ('A' for Active; 'I' for Inactive)
REMARK    1  A    between atoms: C5_5  and  C8_8 
REMARK    2  A    between atoms: C8_8  and  C14_14 
REMARK    3  A    between atoms: C17_17  and  C20_20 
ROOT
HETATM    1  C8    D T1351     -17.350   4.663   0.326  1.00 28.40     0.042 C 
HETATM    2  C9    D T1351     -16.570   5.027   1.609  1.00 31.07     0.046 C 
HETATM    3  C10   D T1351     -17.443   5.092   2.851  1.00 30.89     0.291 C 
HETATM    4  N11   D T1351     -18.132   3.783   3.035  1.00 29.44     0.339 N 
HETATM    5  C12   D T1351     -18.985   3.445   1.859  1.00 30.13     0.291 C 
HETATM    6  C13   D T1351     -18.113   3.360   0.620  1.00 30.34     0.046 C 
ENDROOT
BRANCH   1   7
HETATM    7  C5    D T1351     -18.268   5.803  -0.148  1.00 28.95    -0.019 A 
HETATM    8  C4    D T1351     -19.390   5.533  -0.927  1.00 28.71    -0.003 A 
HETATM    9  C3    D T1351     -20.224   6.553  -1.335  1.00 30.92     0.011 A 
HETATM   10  C2    D T1351     -19.966   7.857  -0.952  1.00 30.64     0.058 A 
HETATM   11 CL1    D T1351     -21.021   9.135  -1.468  1.00 40.18    -0.082 Cl
HETATM   12  C7    D T1351     -18.854   8.137  -0.173  1.00 32.16     0.011 A 
HETATM   13  C6    D T1351     -18.016   7.118   0.233  1.00 28.80    -0.003 A 
ENDBRANCH   1   7
BRANCH   1  14
HETATM   14  C14   D T1351     -16.268   4.409  -0.740  1.00 30.67    -0.019 A 
HETATM   15  C15   D T1351     -15.795   5.424  -1.566  1.00 28.60    -0.004 A 
HETATM   16  C16   D T1351     -14.858   5.154  -2.540  1.00 33.11    -0.000 A 
HETATM   17  C17   D T1351     -14.358   3.868  -2.703  1.00 31.57     0.003 A 
HETATM   18  C18   D T1351     -14.847   2.852  -1.896  1.00 28.36    -0.000 A 
HETATM   19  C19   D T1351     -15.788   3.119  -0.927  1.00 26.27    -0.004 A 
BRANCH  17  20
HETATM   20  C20   D T1351     -13.417   3.559  -3.787  1.00 34.09     0.042 A 
HETATM   21  C21   D T1351     -13.255   2.334  -4.448  1.00 35.67     0.124 A 
HETATM   22  N22   D T1351     -12.255   2.389  -5.330  1.00 33.11    -0.146 NA
HETATM   23  N23   D T1351     -11.740   3.638  -5.202  1.00 34.31    -0.146 NA
HETATM   24  C24   D T1351     -12.406   4.351  -4.275  1.00 32.13     0.124 A 
ENDBRANCH  17  20
ENDBRANCH   1  14
TORSDOF 3
ENDMDL
