MODEL 1
REMARK VINA RESULT:    -7.738      0.000      0.000
REMARK INTER + INTRA:          -9.969
REMARK INTER:                  -9.095
REMARK INTRA:                  -0.874
REMARK UNBOUND:                -0.874
REMARK  3 active torsions:
REMARK  status: ('A' for Active; 'I' for Inactive)
REMARK    1  A    between atoms: C5_5  and  C8_8 
REMARK    2  A    between atoms: C8_8  and  C14_14 
REMARK    3  A    between atoms: C17_17  and  C20_20 
ROOT
HETATM    1  C8    D T1351       8.887   3.546  -3.081  1.00 28.40     0.042 C 
HETATM    2  C9    D T1351      10.202   2.871  -3.529  1.00 31.07     0.046 C 
HETATM    3  C10   D T1351      11.075   2.415  -2.372  1.00 30.89     0.291 C 
HETATM    4  N11   D T1351      10.299   1.480  -1.509  1.00 29.44     0.339 N 
HETATM    5  C12   D T1351       9.071   2.131  -0.966  1.00 30.13     0.291 C 
HETATM    6  C13   D T1351       8.187   2.569  -2.119  1.00 30.34     0.046 C 
ENDROOT
BRANCH   1   7
HETATM    7  C5    D T1351       9.119   4.935  -2.462  1.00 28.95    -0.019 A 
HETATM    8  C4    D T1351      10.053   5.811  -3.012  1.00 28.71    -0.003 A 
HETATM    9  C3    D T1351      10.245   7.063  -2.469  1.00 30.92     0.011 A 
HETATM   10  C2    D T1351       9.493   7.473  -1.383  1.00 30.64     0.058 A 
HETATM   11 CL1    D T1351       9.741   9.052  -0.707  1.00 40.18    -0.082 Cl
HETATM   12  C7    D T1351       8.558   6.613  -0.831  1.00 32.16     0.011 A 
HETATM   13  C6    D T1351       8.366   5.357  -1.370  1.00 28.80    -0.003 A 
ENDBRANCH   1   7
BRANCH   1  14
HETATM   14  C14   D T1351       8.058   3.698  -4.370  1.00 30.67    -0.019 A 
HETATM   15  C15   D T1351       6.679   3.502  -4.385  1.00 28.60    -0.004 A 
HETATM   16  C16   D T1351       5.972   3.603  -5.563  1.00 33.11    -0.000 A 
HETATM   17  C17   D T1351       6.619   3.918  -6.753  1.00 31.57     0.003 A 
HETATM   18  C18   D T1351       7.994   4.090  -6.740  1.00 28.36    -0.000 A 
HETATM   19  C19   D T1351       8.704   3.983  -5.565  1.00 26.27    -0.004 A 
BRANCH  17  20
HETATM   20  C20   D T1351       5.882   3.952  -8.023  1.00 34.09     0.042 A 
HETATM   21  C21   D T1351       5.046   4.972  -8.492  1.00 35.67     0.124 A 
HETATM   22  N22   D T1351       4.478   4.637  -9.652  1.00 33.11    -0.146 NA
HETATM   23  N23   D T1351       4.912   3.376  -9.905  1.00 34.31    -0.146 NA
HETATM   24  C24   D T1351       5.739   2.938  -8.938  1.00 32.13     0.124 A 
ENDBRANCH  17  20
ENDBRANCH   1  14
TORSDOF 3
ENDMDL
MODEL 2
REMARK VINA RESULT:    -7.696      0.441      1.293
REMARK INTER + INTRA:          -9.920
REMARK INTER:                  -8.951
REMARK INTRA:                  -0.969
REMARK UNBOUND:                -0.874
REMARK  3 active torsions:
REMARK  status: ('A' for Active; 'I' for Inactive)
REMARK    1  A    between atoms: C5_5  and  C8_8 
REMARK    2  A    between atoms: C8_8  and  C14_14 
REMARK    3  A    between atoms: C17_17  and  C20_20 
ROOT
HETATM    1  C8    D T1351       9.013   3.555  -2.701  1.00 28.40     0.042 C 
HETATM    2  C9    D T1351      10.331   2.817  -3.021  1.00 31.07     0.046 C 
HETATM    3  C10   D T1351      11.160   2.494  -1.789  1.00 30.89     0.291 C 
HETATM    4  N11   D T1351      10.343   1.678  -0.847  1.00 29.44     0.339 N 
HETATM    5  C12   D T1351       9.108   2.403  -0.427  1.00 30.13     0.291 C 
HETATM    6  C13   D T1351       8.268   2.708  -1.654  1.00 30.34     0.046 C 
ENDROOT
BRANCH   1   7
HETATM    7  C5    D T1351       9.245   5.005  -2.246  1.00 28.95    -0.019 A 
HETATM    8  C4    D T1351      10.186   5.809  -2.886  1.00 28.71    -0.003 A 
HETATM    9  C3    D T1351      10.379   7.115  -2.490  1.00 30.92     0.011 A 
HETATM   10  C2    D T1351       9.620   7.651  -1.465  1.00 30.64     0.058 A 
HETATM   11 CL1    D T1351       9.868   9.296  -0.975  1.00 40.18    -0.082 Cl
HETATM   12  C7    D T1351       8.677   6.863  -0.825  1.00 32.16     0.011 A 
HETATM   13  C6    D T1351       8.485   5.554  -1.216  1.00 28.80    -0.003 A 
ENDBRANCH   1   7
BRANCH   1  14
HETATM   14  C14   D T1351       8.228   3.560  -4.026  1.00 30.67    -0.019 A 
HETATM   15  C15   D T1351       8.870   3.546  -5.262  1.00 28.60    -0.004 A 
HETATM   16  C16   D T1351       8.139   3.596  -6.430  1.00 33.11    -0.000 A 
HETATM   17  C17   D T1351       6.750   3.646  -6.394  1.00 31.57     0.003 A 
HETATM   18  C18   D T1351       6.114   3.683  -5.163  1.00 28.36    -0.000 A 
HETATM   19  C19   D T1351       6.842   3.641  -3.995  1.00 26.27    -0.004 A 
BRANCH  17  20
HETATM   20  C20   D T1351       5.971   3.776  -7.633  1.00 34.09     0.042 A 
HETATM   21  C21   D T1351       5.842   2.831  -8.658  1.00 35.67     0.124 A 
HETATM   22  N22   D T1351       5.120   3.312  -9.671  1.00 33.11    -0.146 NA
HETATM   23  N23   D T1351       4.824   4.589  -9.318  1.00 34.31    -0.146 NA
HETATM   24  C24   D T1351       5.336   4.896  -8.111  1.00 32.13     0.124 A 
ENDBRANCH  17  20
ENDBRANCH   1  14
TORSDOF 3
ENDMDL
MODEL 3
REMARK VINA RESULT:    -7.412      2.595      4.077
REMARK INTER + INTRA:          -9.586
REMARK INTER:                  -9.271
REMARK INTRA:                  -0.316
REMARK UNBOUND:                -0.874
REMARK  3 active torsions:
REMARK  status: ('A' for Active; 'I' for Inactive)
REMARK    1  A    between atoms: C5_5  and  C8_8 
REMARK    2  A    between atoms: C8_8  and  C14_14 
REMARK    3  A    between atoms: C17_17  and  C20_20 
ROOT
HETATM    1  C8    D T1351       8.862   3.979  -3.722  1.00 28.40     0.042 C 
HETATM    2  C9    D T1351       7.800   4.051  -2.604  1.00 31.07     0.046 C 
HETATM    3  C10   D T1351       8.384   4.349  -1.232  1.00 30.89     0.291 C 
HETATM    4  N11   D T1351       9.142   5.630  -1.289  1.00 29.44     0.339 N 
HETATM    5  C12   D T1351      10.250   5.565  -2.286  1.00 30.13     0.291 C 
HETATM    6  C13   D T1351       9.669   5.287  -3.661  1.00 30.34     0.046 C 
ENDROOT
BRANCH   1   7
HETATM    7  C5    D T1351       9.745   2.724  -3.617  1.00 28.95    -0.019 A 
HETATM    8  C4    D T1351      10.087   2.198  -2.373  1.00 28.71    -0.003 A 
HETATM    9  C3    D T1351      10.861   1.062  -2.280  1.00 30.92     0.011 A 
HETATM   10  C2    D T1351      11.290   0.416  -3.426  1.00 30.64     0.058 A 
HETATM   11 CL1    D T1351      12.263  -1.015  -3.299  1.00 40.18    -0.082 Cl
HETATM   12  C7    D T1351      10.952   0.927  -4.669  1.00 32.16     0.011 A 
HETATM   13  C6    D T1351      10.180   2.066  -4.765  1.00 28.80    -0.003 A 
ENDBRANCH   1   7
BRANCH   1  14
HETATM   14  C14   D T1351       8.056   3.921  -5.034  1.00 30.67    -0.019 A 
HETATM   15  C15   D T1351       8.454   4.614  -6.174  1.00 28.60    -0.004 A 
HETATM   16  C16   D T1351       7.687   4.578  -7.318  1.00 33.11    -0.000 A 
HETATM   17  C17   D T1351       6.512   3.835  -7.359  1.00 31.57     0.003 A 
HETATM   18  C18   D T1351       6.105   3.164  -6.217  1.00 28.36    -0.000 A 
HETATM   19  C19   D T1351       6.866   3.205  -5.070  1.00 26.27    -0.004 A 
BRANCH  17  20
HETATM   20  C20   D T1351       5.654   3.854  -8.551  1.00 34.09     0.042 A 
HETATM   21  C21   D T1351       4.862   4.914  -9.010  1.00 35.67     0.124 A 
HETATM   22  N22   D T1351       4.152   4.558 -10.081  1.00 33.11    -0.146 NA
HETATM   23  N23   D T1351       4.450   3.249 -10.283  1.00 34.31    -0.146 NA
HETATM   24  C24   D T1351       5.333   2.800  -9.371  1.00 32.13     0.124 A 
ENDBRANCH  17  20
ENDBRANCH   1  14
TORSDOF 3
ENDMDL
MODEL 4
REMARK VINA RESULT:    -7.332      3.430      6.937
REMARK INTER + INTRA:          -9.493
REMARK INTER:                  -8.601
REMARK INTRA:                  -0.892
REMARK UNBOUND:                -0.874
REMARK  3 active torsions:
REMARK  status: ('A' for Active; 'I' for Inactive)
REMARK    1  A    between atoms: C5_5  and  C8_8 
REMARK    2  A    between atoms: C8_8  and  C14_14 
REMARK    3  A    between atoms: C17_17  and  C20_20 
ROOT
HETATM    1  C8    D T1351       8.977   3.296  -4.105  1.00 28.40     0.042 C 
HETATM    2  C9    D T1351       8.318   2.145  -3.314  1.00 31.07     0.046 C 
HETATM    3  C10   D T1351       8.394   0.802  -4.021  1.00 30.89     0.291 C 
HETATM    4  N11   D T1351       9.822   0.471  -4.293  1.00 29.44     0.339 N 
HETATM    5  C12   D T1351      10.469   1.509  -5.149  1.00 30.13     0.291 C 
HETATM    6  C13   D T1351      10.412   2.848  -4.437  1.00 30.34     0.046 C 
ENDROOT
BRANCH   1   7
HETATM    7  C5    D T1351       8.169   3.693  -5.353  1.00 28.95    -0.019 A 
HETATM    8  C4    D T1351       8.777   4.374  -6.405  1.00 28.71    -0.003 A 
HETATM    9  C3    D T1351       8.058   4.711  -7.531  1.00 30.92     0.011 A 
HETATM   10  C2    D T1351       6.725   4.355  -7.638  1.00 30.64     0.058 A 
HETATM   11 CL1    D T1351       5.828   4.782  -9.061  1.00 40.18    -0.082 Cl
HETATM   12  C7    D T1351       6.112   3.672  -6.600  1.00 32.16     0.011 A 
HETATM   13  C6    D T1351       6.828   3.337  -5.471  1.00 28.80    -0.003 A 
ENDBRANCH   1   7
BRANCH   1  14
HETATM   14  C14   D T1351       9.011   4.484  -3.126  1.00 30.67    -0.019 A 
HETATM   15  C15   D T1351       9.890   5.551  -3.295  1.00 28.60    -0.004 A 
HETATM   16  C16   D T1351       9.927   6.578  -2.376  1.00 33.11    -0.000 A 
HETATM   17  C17   D T1351       9.077   6.575  -1.276  1.00 31.57     0.003 A 
HETATM   18  C18   D T1351       8.219   5.501  -1.098  1.00 28.36    -0.000 A 
HETATM   19  C19   D T1351       8.186   4.470  -2.010  1.00 26.27    -0.004 A 
BRANCH  17  20
HETATM   20  C20   D T1351       9.165   7.628  -0.256  1.00 34.09     0.042 A 
HETATM   21  C21   D T1351       9.533   7.480   1.087  1.00 35.67     0.124 A 
HETATM   22  N22   D T1351       9.431   8.635   1.746  1.00 33.11    -0.146 NA
HETATM   23  N23   D T1351       8.947   9.519   0.837  1.00 34.31    -0.146 NA
HETATM   24  C24   D T1351       8.764   8.937  -0.363  1.00 32.13     0.124 A 
ENDBRANCH  17  20
ENDBRANCH   1  14
TORSDOF 3
ENDMDL
MODEL 5
REMARK VINA RESULT:    -6.520      1.718      2.387
REMARK INTER + INTRA:          -8.537
REMARK INTER:                  -7.574
REMARK INTRA:                  -0.963
REMARK UNBOUND:                -0.874
REMARK  3 active torsions:
REMARK  status: ('A' for Active; 'I' for Inactive)
REMARK    1  A    between atoms: C5_5  and  C8_8 
REMARK    2  A    between atoms: C8_8  and  C14_14 
REMARK    3  A    between atoms: C17_17  and  C20_20 
ROOT
HETATM    1  C8    D T1351       9.703   2.527  -1.443  1.00 28.40     0.042 C 
HETATM    2  C9    D T1351      10.992   1.711  -1.682  1.00 31.07     0.046 C 
HETATM    3  C10   D T1351      11.734   1.359  -0.403  1.00 30.89     0.291 C 
HETATM    4  N11   D T1351      10.822   0.604   0.503  1.00 29.44     0.339 N 
HETATM    5  C12   D T1351       9.610   1.404   0.846  1.00 30.13     0.291 C 
HETATM    6  C13   D T1351       8.856   1.739  -0.428  1.00 30.34     0.046 C 
ENDROOT
BRANCH   1   7
HETATM    7  C5    D T1351       9.993   3.968  -0.992  1.00 28.95    -0.019 A 
HETATM    8  C4    D T1351       9.076   4.666  -0.208  1.00 28.71    -0.003 A 
HETATM    9  C3    D T1351       9.346   5.950   0.213  1.00 30.92     0.011 A 
HETATM   10  C2    D T1351      10.545   6.554  -0.121  1.00 30.64     0.058 A 
HETATM   11 CL1    D T1351      10.876   8.170   0.415  1.00 40.18    -0.082 Cl
HETATM   12  C7    D T1351      11.467   5.868  -0.895  1.00 32.16     0.011 A 
HETATM   13  C6    D T1351      11.198   4.584  -1.321  1.00 28.80    -0.003 A 
ENDBRANCH   1   7
BRANCH   1  14
HETATM   14  C14   D T1351       8.992   2.558  -2.808  1.00 30.67    -0.019 A 
HETATM   15  C15   D T1351       7.604   2.607  -2.914  1.00 28.60    -0.004 A 
HETATM   16  C16   D T1351       6.996   2.589  -4.151  1.00 33.11    -0.000 A 
HETATM   17  C17   D T1351       7.758   2.539  -5.313  1.00 31.57     0.003 A 
HETATM   18  C18   D T1351       9.138   2.466  -5.206  1.00 28.36    -0.000 A 
HETATM   19  C19   D T1351       9.747   2.476  -3.971  1.00 26.27    -0.004 A 
BRANCH  17  20
HETATM   20  C20   D T1351       7.113   2.443  -6.630  1.00 34.09     0.042 A 
HETATM   21  C21   D T1351       6.674   3.498  -7.438  1.00 35.67     0.124 A 
HETATM   22  N22   D T1351       6.064   3.045  -8.535  1.00 33.11    -0.146 NA
HETATM   23  N23   D T1351       6.068   1.694  -8.408  1.00 34.31    -0.146 NA
HETATM   24  C24   D T1351       6.674   1.309  -7.269  1.00 32.13     0.124 A 
ENDBRANCH  17  20
ENDBRANCH   1  14
TORSDOF 3
ENDMDL
MODEL 6
REMARK VINA RESULT:    -6.432      3.580      7.618
REMARK INTER + INTRA:          -8.434
REMARK INTER:                  -8.002
REMARK INTRA:                  -0.432
REMARK UNBOUND:                -0.874
REMARK  3 active torsions:
REMARK  status: ('A' for Active; 'I' for Inactive)
REMARK    1  A    between atoms: C5_5  and  C8_8 
REMARK    2  A    between atoms: C8_8  and  C14_14 
REMARK    3  A    between atoms: C17_17  and  C20_20 
ROOT
HETATM    1  C8    D T1351       7.468   3.894  -5.809  1.00 28.40     0.042 C 
HETATM    2  C9    D T1351       8.460   4.710  -6.666  1.00 31.07     0.046 C 
HETATM    3  C10   D T1351       8.049   4.824  -8.125  1.00 30.89     0.291 C 
HETATM    4  N11   D T1351       6.693   5.436  -8.207  1.00 29.44     0.339 N 
HETATM    5  C12   D T1351       5.680   4.617  -7.478  1.00 30.13     0.291 C 
HETATM    6  C13   D T1351       6.077   4.518  -6.016  1.00 30.34     0.046 C 
ENDROOT
BRANCH   1   7
HETATM    7  C5    D T1351       7.506   2.391  -6.133  1.00 28.95    -0.019 A 
HETATM    8  C4    D T1351       8.431   1.553  -5.512  1.00 28.71    -0.003 A 
HETATM    9  C3    D T1351       8.450   0.204  -5.788  1.00 30.92     0.011 A 
HETATM   10  C2    D T1351       7.533  -0.340  -6.670  1.00 30.64     0.058 A 
HETATM   11 CL1    D T1351       7.564  -2.041  -7.009  1.00 40.18    -0.082 Cl
HETATM   12  C7    D T1351       6.605   0.482  -7.289  1.00 32.16     0.011 A 
HETATM   13  C6    D T1351       6.586   1.834  -7.018  1.00 28.80    -0.003 A 
ENDBRANCH   1   7
BRANCH   1  14
HETATM   14  C14   D T1351       7.928   4.109  -4.354  1.00 30.67    -0.019 A 
HETATM   15  C15   D T1351       7.129   3.755  -3.270  1.00 28.60    -0.004 A 
HETATM   16  C16   D T1351       7.550   4.001  -1.981  1.00 33.11    -0.000 A 
HETATM   17  C17   D T1351       8.786   4.591  -1.741  1.00 31.57     0.003 A 
HETATM   18  C18   D T1351       9.570   4.964  -2.822  1.00 28.36    -0.000 A 
HETATM   19  C19   D T1351       9.148   4.726  -4.111  1.00 26.27    -0.004 A 
BRANCH  17  20
HETATM   20  C20   D T1351       9.206   4.924  -0.374  1.00 34.09     0.042 A 
HETATM   21  C21   D T1351       9.837   6.097   0.059  1.00 35.67     0.124 A 
HETATM   22  N22   D T1351      10.144   6.031   1.355  1.00 33.11    -0.146 NA
HETATM   23  N23   D T1351       9.755   4.791   1.747  1.00 34.31    -0.146 NA
HETATM   24  C24   D T1351       9.206   4.104   0.728  1.00 32.13     0.124 A 
ENDBRANCH  17  20
ENDBRANCH   1  14
TORSDOF 3
ENDMDL
MODEL 7
REMARK VINA RESULT:    -6.403      4.069      6.490
REMARK INTER + INTRA:          -8.401
REMARK INTER:                  -7.456
REMARK INTRA:                  -0.945
REMARK UNBOUND:                -0.874
REMARK  3 active torsions:
REMARK  status: ('A' for Active; 'I' for Inactive)
REMARK    1  A    between atoms: C5_5  and  C8_8 
REMARK    2  A    between atoms: C8_8  and  C14_14 
REMARK    3  A    between atoms: C17_17  and  C20_20 
ROOT
HETATM    1  C8    D T1351       9.335   3.330  -2.272  1.00 28.40     0.042 C 
HETATM    2  C9    D T1351      10.137   3.073  -3.565  1.00 31.07     0.046 C 
HETATM    3  C10   D T1351      10.009   1.651  -4.086  1.00 30.89     0.291 C 
HETATM    4  N11   D T1351       8.569   1.340  -4.317  1.00 29.44     0.339 N 
HETATM    5  C12   D T1351       7.774   1.473  -3.061  1.00 30.13     0.291 C 
HETATM    6  C13   D T1351       7.884   2.898  -2.550  1.00 30.34     0.046 C 
ENDROOT
BRANCH   1   7
HETATM    7  C5    D T1351       9.946   2.626  -1.048  1.00 28.95    -0.019 A 
HETATM    8  C4    D T1351       9.149   1.869  -0.192  1.00 28.71    -0.003 A 
HETATM    9  C3    D T1351       9.701   1.222   0.892  1.00 30.92     0.011 A 
HETATM   10  C2    D T1351      11.062   1.299   1.129  1.00 30.64     0.058 A 
HETATM   11 CL1    D T1351      11.748   0.479   2.496  1.00 40.18    -0.082 Cl
HETATM   12  C7    D T1351      11.865   2.044   0.282  1.00 32.16     0.011 A 
HETATM   13  C6    D T1351      11.315   2.696  -0.802  1.00 28.80    -0.003 A 
ENDBRANCH   1   7
BRANCH   1  14
HETATM   14  C14   D T1351       9.397   4.855  -2.061  1.00 30.67    -0.019 A 
HETATM   15  C15   D T1351       8.768   5.475  -0.984  1.00 28.60    -0.004 A 
HETATM   16  C16   D T1351       8.805   6.846  -0.848  1.00 33.11    -0.000 A 
HETATM   17  C17   D T1351       9.485   7.631  -1.773  1.00 31.57     0.003 A 
HETATM   18  C18   D T1351      10.091   7.014  -2.856  1.00 28.36    -0.000 A 
HETATM   19  C19   D T1351      10.049   5.645  -2.998  1.00 26.27    -0.004 A 
BRANCH  17  20
HETATM   20  C20   D T1351       9.464   9.096  -1.674  1.00 34.09     0.042 A 
HETATM   21  C21   D T1351       8.656   9.984  -2.395  1.00 35.67     0.124 A 
HETATM   22  N22   D T1351       8.955  11.252  -2.106  1.00 33.11    -0.146 NA
HETATM   23  N23   D T1351       9.992  11.180  -1.233  1.00 34.31    -0.146 NA
HETATM   24  C24   D T1351      10.326   9.903  -0.972  1.00 32.13     0.124 A 
ENDBRANCH  17  20
ENDBRANCH   1  14
TORSDOF 3
ENDMDL
MODEL 8
REMARK VINA RESULT:    -6.215      3.910      7.873
REMARK INTER + INTRA:          -8.180
REMARK INTER:                  -8.123
REMARK INTRA:                  -0.057
REMARK UNBOUND:                -0.874
REMARK  3 active torsions:
REMARK  status: ('A' for Active; 'I' for Inactive)
REMARK    1  A    between atoms: C5_5  and  C8_8 
REMARK    2  A    between atoms: C8_8  and  C14_14 
REMARK    3  A    between atoms: C17_17  and  C20_20 
ROOT
HETATM    1  C8    D T1351       7.122   3.885  -6.506  1.00 28.40     0.042 C 
HETATM    2  C9    D T1351       8.175   4.691  -7.297  1.00 31.07     0.046 C 
HETATM    3  C10   D T1351       7.570   5.617  -8.340  1.00 30.89     0.291 C 
HETATM    4  N11   D T1351       6.618   6.551  -7.675  1.00 29.44     0.339 N 
HETATM    5  C12   D T1351       5.520   5.812  -6.986  1.00 30.13     0.291 C 
HETATM    6  C13   D T1351       6.119   4.900  -5.930  1.00 30.34     0.046 C 
ENDROOT
BRANCH   1   7
HETATM    7  C5    D T1351       6.450   2.796  -7.358  1.00 28.95    -0.019 A 
HETATM    8  C4    D T1351       6.493   1.459  -6.965  1.00 28.71    -0.003 A 
HETATM    9  C3    D T1351       5.872   0.486  -7.719  1.00 30.92     0.011 A 
HETATM   10  C2    D T1351       5.180   0.831  -8.866  1.00 30.64     0.058 A 
HETATM   11 CL1    D T1351       4.400  -0.401  -9.807  1.00 40.18    -0.082 Cl
HETATM   12  C7    D T1351       5.126   2.157  -9.263  1.00 32.16     0.011 A 
HETATM   13  C6    D T1351       5.749   3.132  -8.513  1.00 28.80    -0.003 A 
ENDBRANCH   1   7
BRANCH   1  14
HETATM   14  C14   D T1351       7.909   3.218  -5.362  1.00 30.67    -0.019 A 
HETATM   15  C15   D T1351       7.296   2.843  -4.169  1.00 28.60    -0.004 A 
HETATM   16  C16   D T1351       8.037   2.288  -3.147  1.00 33.11    -0.000 A 
HETATM   17  C17   D T1351       9.404   2.080  -3.296  1.00 31.57     0.003 A 
HETATM   18  C18   D T1351      10.016   2.475  -4.475  1.00 28.36    -0.000 A 
HETATM   19  C19   D T1351       9.279   3.036  -5.494  1.00 26.27    -0.004 A 
BRANCH  17  20
HETATM   20  C20   D T1351      10.210   1.560  -2.184  1.00 34.09     0.042 A 
HETATM   21  C21   D T1351      11.333   0.729  -2.265  1.00 35.67     0.124 A 
HETATM   22  N22   D T1351      11.772   0.389  -1.052  1.00 33.11    -0.146 NA
HETATM   23  N23   D T1351      10.898   0.963  -0.187  1.00 34.31    -0.146 NA
HETATM   24  C24   D T1351       9.945   1.655  -0.839  1.00 32.13     0.124 A 
ENDBRANCH  17  20
ENDBRANCH   1  14
TORSDOF 3
ENDMDL
MODEL 9
REMARK VINA RESULT:    -5.996      3.111      7.644
REMARK INTER + INTRA:          -7.922
REMARK INTER:                  -7.046
REMARK INTRA:                  -0.876
REMARK UNBOUND:                -0.874
REMARK  3 active torsions:
REMARK  status: ('A' for Active; 'I' for Inactive)
REMARK    1  A    between atoms: C5_5  and  C8_8 
REMARK    2  A    between atoms: C8_8  and  C14_14 
REMARK    3  A    between atoms: C17_17  and  C20_20 
ROOT
HETATM    1  C8    D T1351       9.459   3.190  -2.103  1.00 28.40     0.042 C 
HETATM    2  C9    D T1351       7.949   2.900  -2.239  1.00 31.07     0.046 C 
HETATM    3  C10   D T1351       7.265   3.734  -3.310  1.00 30.89     0.291 C 
HETATM    4  N11   D T1351       7.941   3.504  -4.618  1.00 29.44     0.339 N 
HETATM    5  C12   D T1351       9.385   3.875  -4.559  1.00 30.13     0.291 C 
HETATM    6  C13   D T1351      10.075   3.029  -3.504  1.00 30.34     0.046 C 
ENDROOT
BRANCH   1   7
HETATM    7  C5    D T1351       9.742   4.567  -1.478  1.00 28.95    -0.019 A 
HETATM    8  C4    D T1351      10.821   5.336  -1.911  1.00 28.71    -0.003 A 
HETATM    9  C3    D T1351      11.061   6.578  -1.365  1.00 30.92     0.011 A 
HETATM   10  C2    D T1351      10.217   7.086  -0.394  1.00 30.64     0.058 A 
HETATM   11 CL1    D T1351      10.527   8.652   0.286  1.00 40.18    -0.082 Cl
HETATM   12  C7    D T1351       9.139   6.333   0.041  1.00 32.16     0.011 A 
HETATM   13  C6    D T1351       8.898   5.088  -0.501  1.00 28.80    -0.003 A 
ENDBRANCH   1   7
BRANCH   1  14
HETATM   14  C14   D T1351       9.993   2.091  -1.166  1.00 30.67    -0.019 A 
HETATM   15  C15   D T1351      11.215   1.461  -1.392  1.00 28.60    -0.004 A 
HETATM   16  C16   D T1351      11.644   0.449  -0.560  1.00 33.11    -0.000 A 
HETATM   17  C17   D T1351      10.874   0.053   0.528  1.00 31.57     0.003 A 
HETATM   18  C18   D T1351       9.649   0.665   0.738  1.00 28.36    -0.000 A 
HETATM   19  C19   D T1351       9.214   1.670  -0.096  1.00 26.27    -0.004 A 
BRANCH  17  20
HETATM   20  C20   D T1351      11.291  -1.074   1.372  1.00 34.09     0.042 A 
HETATM   21  C21   D T1351      10.554  -2.224   1.678  1.00 35.67     0.124 A 
HETATM   22  N22   D T1351      11.211  -3.006   2.536  1.00 33.11    -0.146 NA
HETATM   23  N23   D T1351      12.355  -2.333   2.822  1.00 34.31    -0.146 NA
HETATM   24  C24   D T1351      12.419  -1.168   2.151  1.00 32.13     0.124 A 
ENDBRANCH  17  20
ENDBRANCH   1  14
TORSDOF 3
ENDMDL
