MODEL 1
REMARK VINA RESULT:    -8.641      0.000      0.000
REMARK INTER + INTRA:         -10.909
REMARK INTER:                 -10.157
REMARK INTRA:                  -0.752
REMARK UNBOUND:                -0.752
REMARK  3 active torsions:
REMARK  status: ('A' for Active; 'I' for Inactive)
REMARK    1  A    between atoms: C5_5  and  C8_8 
REMARK    2  A    between atoms: C8_8  and  C14_14 
REMARK    3  A    between atoms: C17_17  and  C20_20 
ROOT
HETATM    1  C8    D T1351      -3.300   0.125  10.182  1.00 28.40     0.042 C 
HETATM    2  C9    D T1351      -4.334   0.749  11.142  1.00 31.07     0.046 C 
HETATM    3  C10   D T1351      -4.788   2.139  10.725  1.00 30.89     0.291 C 
HETATM    4  N11   D T1351      -5.354   2.078   9.348  1.00 29.44     0.339 N 
HETATM    5  C12   D T1351      -4.347   1.579   8.366  1.00 30.13     0.291 C 
HETATM    6  C13   D T1351      -3.907   0.183   8.769  1.00 30.34     0.046 C 
ENDROOT
BRANCH   1   7
HETATM    7  C5    D T1351      -1.924   0.806  10.273  1.00 28.95    -0.019 A 
HETATM    8  C4    D T1351      -0.989   0.656   9.251  1.00 28.71    -0.003 A 
HETATM    9  C3    D T1351       0.236   1.283   9.324  1.00 30.92     0.011 A 
HETATM   10  C2    D T1351       0.541   2.091  10.405  1.00 30.64     0.058 A 
HETATM   11 CL1    D T1351       2.085   2.879  10.486  1.00 40.18    -0.082 Cl
HETATM   12  C7    D T1351      -0.384   2.253  11.424  1.00 32.16     0.011 A 
HETATM   13  C6    D T1351      -1.609   1.622  11.357  1.00 28.80    -0.003 A 
ENDBRANCH   1   7
BRANCH   1  14
HETATM   14  C14   D T1351      -3.169  -1.341  10.635  1.00 30.67    -0.019 A 
HETATM   15  C15   D T1351      -2.041  -1.807  11.305  1.00 28.60    -0.004 A 
HETATM   16  C16   D T1351      -1.936  -3.136  11.658  1.00 33.11    -0.000 A 
HETATM   17  C17   D T1351      -2.961  -4.028  11.366  1.00 31.57     0.003 A 
HETATM   18  C18   D T1351      -4.073  -3.568  10.678  1.00 28.36    -0.000 A 
HETATM   19  C19   D T1351      -4.177  -2.244  10.319  1.00 26.27    -0.004 A 
BRANCH  17  20
HETATM   20  C20   D T1351      -2.821  -5.458  11.671  1.00 34.09     0.042 A 
HETATM   21  C21   D T1351      -1.695  -6.109  12.193  1.00 35.67     0.124 A 
HETATM   22  N22   D T1351      -1.892  -7.426  12.274  1.00 33.11    -0.146 NA
HETATM   23  N23   D T1351      -3.130  -7.629  11.756  1.00 34.31    -0.146 NA
HETATM   24  C24   D T1351      -3.699  -6.471  11.374  1.00 32.13     0.124 A 
ENDBRANCH  17  20
ENDBRANCH   1  14
TORSDOF 3
ENDMDL
MODEL 2
REMARK VINA RESULT:    -8.556      3.909      5.466
REMARK INTER + INTRA:         -10.809
REMARK INTER:                 -10.193
REMARK INTRA:                  -0.616
REMARK UNBOUND:                -0.752
REMARK  3 active torsions:
REMARK  status: ('A' for Active; 'I' for Inactive)
REMARK    1  A    between atoms: C5_5  and  C8_8 
REMARK    2  A    between atoms: C8_8  and  C14_14 
REMARK    3  A    between atoms: C17_17  and  C20_20 
ROOT
HETATM    1  C8    D T1351      -3.949   0.323   9.956  1.00 28.40     0.042 C 
HETATM    2  C9    D T1351      -4.158   0.561  11.466  1.00 31.07     0.046 C 
HETATM    3  C10   D T1351      -5.620   0.566  11.883  1.00 30.89     0.291 C 
HETATM    4  N11   D T1351      -6.249  -0.725  11.487  1.00 29.44     0.339 N 
HETATM    5  C12   D T1351      -6.163  -0.943  10.013  1.00 30.13     0.291 C 
HETATM    6  C13   D T1351      -4.704  -0.969   9.597  1.00 30.34     0.046 C 
ENDROOT
BRANCH   1   7
HETATM    7  C5    D T1351      -4.383   1.527   9.103  1.00 28.95    -0.019 A 
HETATM    8  C4    D T1351      -5.164   1.346   7.964  1.00 28.71    -0.003 A 
HETATM    9  C3    D T1351      -5.569   2.427   7.212  1.00 30.92     0.011 A 
HETATM   10  C2    D T1351      -5.223   3.711   7.595  1.00 30.64     0.058 A 
HETATM   11 CL1    D T1351      -5.740   5.066   6.643  1.00 40.18    -0.082 Cl
HETATM   12  C7    D T1351      -4.450   3.904   8.730  1.00 32.16     0.011 A 
HETATM   13  C6    D T1351      -4.039   2.822   9.482  1.00 28.80    -0.003 A 
ENDBRANCH   1   7
BRANCH   1  14
HETATM   14  C14   D T1351      -2.433   0.107   9.791  1.00 30.67    -0.019 A 
HETATM   15  C15   D T1351      -1.688   0.802   8.843  1.00 28.60    -0.004 A 
HETATM   16  C16   D T1351      -0.341   0.553   8.692  1.00 33.11    -0.000 A 
HETATM   17  C17   D T1351       0.299  -0.384   9.494  1.00 31.57     0.003 A 
HETATM   18  C18   D T1351      -0.448  -1.093  10.421  1.00 28.36    -0.000 A 
HETATM   19  C19   D T1351      -1.794  -0.851  10.569  1.00 26.27    -0.004 A 
BRANCH  17  20
HETATM   20  C20   D T1351       1.716  -0.708   9.285  1.00 34.09     0.042 A 
HETATM   21  C21   D T1351       2.390  -1.872   9.680  1.00 35.67     0.124 A 
HETATM   22  N22   D T1351       3.691  -1.798   9.395  1.00 33.11    -0.146 NA
HETATM   23  N23   D T1351       3.865  -0.564   8.860  1.00 34.31    -0.146 NA
HETATM   24  C24   D T1351       2.703   0.114   8.797  1.00 32.13     0.124 A 
ENDBRANCH  17  20
ENDBRANCH   1  14
TORSDOF 3
ENDMDL
MODEL 3
REMARK VINA RESULT:    -8.158      2.568      3.802
REMARK INTER + INTRA:         -10.341
REMARK INTER:                  -9.436
REMARK INTRA:                  -0.904
REMARK UNBOUND:                -0.752
REMARK  3 active torsions:
REMARK  status: ('A' for Active; 'I' for Inactive)
REMARK    1  A    between atoms: C5_5  and  C8_8 
REMARK    2  A    between atoms: C8_8  and  C14_14 
REMARK    3  A    between atoms: C17_17  and  C20_20 
ROOT
HETATM    1  C8    D T1351      -0.338  -0.187  10.887  1.00 28.40     0.042 C 
HETATM    2  C9    D T1351       0.930  -0.151  10.008  1.00 31.07     0.046 C 
HETATM    3  C10   D T1351       1.622   1.203   9.996  1.00 30.89     0.291 C 
HETATM    4  N11   D T1351       1.968   1.590  11.393  1.00 29.44     0.339 N 
HETATM    5  C12   D T1351       0.752   1.671  12.254  1.00 30.13     0.291 C 
HETATM    6  C13   D T1351       0.070   0.315  12.283  1.00 30.34     0.046 C 
ENDROOT
BRANCH   1   7
HETATM    7  C5    D T1351      -1.502   0.613  10.278  1.00 28.95    -0.019 A 
HETATM    8  C4    D T1351      -1.718   0.616   8.902  1.00 28.71    -0.003 A 
HETATM    9  C3    D T1351      -2.772   1.317   8.359  1.00 30.92     0.011 A 
HETATM   10  C2    D T1351      -3.645   2.008   9.180  1.00 30.64     0.058 A 
HETATM   11 CL1    D T1351      -4.972   2.885   8.487  1.00 40.18    -0.082 Cl
HETATM   12  C7    D T1351      -3.444   2.008  10.552  1.00 32.16     0.011 A 
HETATM   13  C6    D T1351      -2.385   1.311  11.098  1.00 28.80    -0.003 A 
ENDBRANCH   1   7
BRANCH   1  14
HETATM   14  C14   D T1351      -0.730  -1.674  10.960  1.00 30.67    -0.019 A 
HETATM   15  C15   D T1351       0.106  -2.681  10.485  1.00 28.60    -0.004 A 
HETATM   16  C16   D T1351      -0.294  -4.000  10.525  1.00 33.11    -0.000 A 
HETATM   17  C17   D T1351      -1.531  -4.348  11.055  1.00 31.57     0.003 A 
HETATM   18  C18   D T1351      -2.372  -3.343  11.507  1.00 28.36    -0.000 A 
HETATM   19  C19   D T1351      -1.977  -2.025  11.461  1.00 26.27    -0.004 A 
BRANCH  17  20
HETATM   20  C20   D T1351      -1.993  -5.741  11.030  1.00 34.09     0.042 A 
HETATM   21  C21   D T1351      -2.299  -6.516   9.902  1.00 35.67     0.124 A 
HETATM   22  N22   D T1351      -2.761  -7.717  10.250  1.00 33.11    -0.146 NA
HETATM   23  N23   D T1351      -2.800  -7.699  11.607  1.00 34.31    -0.146 NA
HETATM   24  C24   D T1351      -2.361  -6.524  12.096  1.00 32.13     0.124 A 
ENDBRANCH  17  20
ENDBRANCH   1  14
TORSDOF 3
ENDMDL
MODEL 4
REMARK VINA RESULT:    -8.145      2.885      4.248
REMARK INTER + INTRA:         -10.326
REMARK INTER:                  -9.400
REMARK INTRA:                  -0.926
REMARK UNBOUND:                -0.752
REMARK  3 active torsions:
REMARK  status: ('A' for Active; 'I' for Inactive)
REMARK    1  A    between atoms: C5_5  and  C8_8 
REMARK    2  A    between atoms: C8_8  and  C14_14 
REMARK    3  A    between atoms: C17_17  and  C20_20 
ROOT
HETATM    1  C8    D T1351      -0.287   0.953  10.949  1.00 28.40     0.042 C 
HETATM    2  C9    D T1351      -0.288   1.329  12.445  1.00 31.07     0.046 C 
HETATM    3  C10   D T1351       0.666   2.463  12.787  1.00 30.89     0.291 C 
HETATM    4  N11   D T1351       0.319   3.659  11.968  1.00 29.44     0.339 N 
HETATM    5  C12   D T1351       0.413   3.366  10.508  1.00 30.13     0.291 C 
HETATM    6  C13   D T1351      -0.552   2.248  10.161  1.00 30.34     0.046 C 
ENDROOT
BRANCH   1   7
HETATM    7  C5    D T1351       1.009   0.245  10.519  1.00 28.95    -0.019 A 
HETATM    8  C4    D T1351       1.940  -0.170  11.469  1.00 28.71    -0.003 A 
HETATM    9  C3    D T1351       3.091  -0.822  11.084  1.00 30.92     0.011 A 
HETATM   10  C2    D T1351       3.324  -1.095   9.748  1.00 30.64     0.058 A 
HETATM   11 CL1    D T1351       4.775  -1.919   9.274  1.00 40.18    -0.082 Cl
HETATM   12  C7    D T1351       2.402  -0.692   8.794  1.00 32.16     0.011 A 
HETATM   13  C6    D T1351       1.251  -0.034   9.176  1.00 28.80    -0.003 A 
ENDBRANCH   1   7
BRANCH   1  14
HETATM   14  C14   D T1351      -1.472  -0.015  10.780  1.00 30.67    -0.019 A 
HETATM   15  C15   D T1351      -1.429  -1.322  11.257  1.00 28.60    -0.004 A 
HETATM   16  C16   D T1351      -2.491  -2.177  11.051  1.00 33.11    -0.000 A 
HETATM   17  C17   D T1351      -3.628  -1.744  10.377  1.00 31.57     0.003 A 
HETATM   18  C18   D T1351      -3.660  -0.450   9.883  1.00 28.36    -0.000 A 
HETATM   19  C19   D T1351      -2.598   0.403  10.082  1.00 26.27    -0.004 A 
BRANCH  17  20
HETATM   20  C20   D T1351      -4.728  -2.672  10.089  1.00 34.09     0.042 A 
HETATM   21  C21   D T1351      -4.922  -3.954  10.622  1.00 35.67     0.124 A 
HETATM   22  N22   D T1351      -5.986  -4.547  10.082  1.00 33.11    -0.146 NA
HETATM   23  N23   D T1351      -6.451  -3.665   9.161  1.00 34.31    -0.146 NA
HETATM   24  C24   D T1351      -5.708  -2.544   9.135  1.00 32.13     0.124 A 
ENDBRANCH  17  20
ENDBRANCH   1  14
TORSDOF 3
ENDMDL
MODEL 5
REMARK VINA RESULT:    -8.122      2.466      3.850
REMARK INTER + INTRA:         -10.298
REMARK INTER:                  -9.454
REMARK INTRA:                  -0.844
REMARK UNBOUND:                -0.752
REMARK  3 active torsions:
REMARK  status: ('A' for Active; 'I' for Inactive)
REMARK    1  A    between atoms: C5_5  and  C8_8 
REMARK    2  A    between atoms: C8_8  and  C14_14 
REMARK    3  A    between atoms: C17_17  and  C20_20 
ROOT
HETATM    1  C8    D T1351      -0.551  -0.427  10.707  1.00 28.40     0.042 C 
HETATM    2  C9    D T1351       0.618  -0.595   9.715  1.00 31.07     0.046 C 
HETATM    3  C10   D T1351       1.450   0.666   9.537  1.00 30.89     0.291 C 
HETATM    4  N11   D T1351       1.974   1.099  10.863  1.00 29.44     0.339 N 
HETATM    5  C12   D T1351       0.867   1.376  11.823  1.00 30.13     0.291 C 
HETATM    6  C13   D T1351       0.047   0.114  12.017  1.00 30.34     0.046 C 
ENDROOT
BRANCH   1   7
HETATM    7  C5    D T1351      -1.675   0.463  10.149  1.00 28.95    -0.019 A 
HETATM    8  C4    D T1351      -2.456   1.239  11.003  1.00 28.71    -0.003 A 
HETATM    9  C3    D T1351      -3.450   2.051  10.501  1.00 30.92     0.011 A 
HETATM   10  C2    D T1351      -3.667   2.122   9.136  1.00 30.64     0.058 A 
HETATM   11 CL1    D T1351      -4.919   3.149   8.513  1.00 40.18    -0.082 Cl
HETATM   12  C7    D T1351      -2.893   1.359   8.276  1.00 32.16     0.011 A 
HETATM   13  C6    D T1351      -1.900   0.541   8.777  1.00 28.80    -0.003 A 
ENDBRANCH   1   7
BRANCH   1  14
HETATM   14  C14   D T1351      -1.095  -1.850  10.927  1.00 30.67    -0.019 A 
HETATM   15  C15   D T1351      -2.365  -2.081  11.448  1.00 28.60    -0.004 A 
HETATM   16  C16   D T1351      -2.806  -3.368  11.675  1.00 33.11    -0.000 A 
HETATM   17  C17   D T1351      -1.995  -4.456  11.372  1.00 31.57     0.003 A 
HETATM   18  C18   D T1351      -0.722  -4.224  10.875  1.00 28.36    -0.000 A 
HETATM   19  C19   D T1351      -0.278  -2.941  10.655  1.00 26.27    -0.004 A 
BRANCH  17  20
HETATM   20  C20   D T1351      -2.429  -5.824  11.682  1.00 34.09     0.042 A 
HETATM   21  C21   D T1351      -1.672  -6.842  12.279  1.00 35.67     0.124 A 
HETATM   22  N22   D T1351      -2.359  -7.982  12.342  1.00 33.11    -0.146 NA
HETATM   23  N23   D T1351      -3.545  -7.713  11.740  1.00 34.31    -0.146 NA
HETATM   24  C24   D T1351      -3.606  -6.435  11.323  1.00 32.13     0.124 A 
ENDBRANCH  17  20
ENDBRANCH   1  14
TORSDOF 3
ENDMDL
MODEL 6
REMARK VINA RESULT:    -7.904      3.500      6.760
REMARK INTER + INTRA:         -10.043
REMARK INTER:                  -9.817
REMARK INTRA:                  -0.226
REMARK UNBOUND:                -0.752
REMARK  3 active torsions:
REMARK  status: ('A' for Active; 'I' for Inactive)
REMARK    1  A    between atoms: C5_5  and  C8_8 
REMARK    2  A    between atoms: C8_8  and  C14_14 
REMARK    3  A    between atoms: C17_17  and  C20_20 
ROOT
HETATM    1  C8    D T1351      -3.656  -0.553  10.460  1.00 28.40     0.042 C 
HETATM    2  C9    D T1351      -4.148  -0.434   9.002  1.00 31.07     0.046 C 
HETATM    3  C10   D T1351      -5.559  -0.960   8.793  1.00 30.89     0.291 C 
HETATM    4  N11   D T1351      -6.493  -0.235   9.699  1.00 29.44     0.339 N 
HETATM    5  C12   D T1351      -6.113  -0.414  11.131  1.00 30.13     0.291 C 
HETATM    6  C13   D T1351      -4.712   0.129  11.346  1.00 30.34     0.046 C 
ENDROOT
BRANCH   1   7
HETATM    7  C5    D T1351      -3.376  -2.009  10.871  1.00 28.95    -0.019 A 
HETATM    8  C4    D T1351      -4.124  -3.055  10.333  1.00 28.71    -0.003 A 
HETATM    9  C3    D T1351      -3.860  -4.359  10.688  1.00 30.92     0.011 A 
HETATM   10  C2    D T1351      -2.830  -4.648  11.565  1.00 30.64     0.058 A 
HETATM   11 CL1    D T1351      -2.503  -6.295  12.003  1.00 40.18    -0.082 Cl
HETATM   12  C7    D T1351      -2.076  -3.616  12.103  1.00 32.16     0.011 A 
HETATM   13  C6    D T1351      -2.342  -2.308  11.754  1.00 28.80    -0.003 A 
ENDBRANCH   1   7
BRANCH   1  14
HETATM   14  C14   D T1351      -2.340   0.246  10.503  1.00 30.67    -0.019 A 
HETATM   15  C15   D T1351      -1.214  -0.149   9.787  1.00 28.60    -0.004 A 
HETATM   16  C16   D T1351      -0.038   0.564   9.882  1.00 33.11    -0.000 A 
HETATM   17  C17   D T1351       0.038   1.698  10.682  1.00 31.57     0.003 A 
HETATM   18  C18   D T1351      -1.077   2.078  11.413  1.00 28.36    -0.000 A 
HETATM   19  C19   D T1351      -2.250   1.363  11.324  1.00 26.27    -0.004 A 
BRANCH  17  20
HETATM   20  C20   D T1351       1.308   2.417  10.846  1.00 34.09     0.042 A 
HETATM   21  C21   D T1351       1.584   3.462  11.739  1.00 35.67     0.124 A 
HETATM   22  N22   D T1351       2.820   3.931  11.566  1.00 33.11    -0.146 NA
HETATM   23  N23   D T1351       3.325   3.221  10.526  1.00 34.31    -0.146 NA
HETATM   24  C24   D T1351       2.435   2.320  10.068  1.00 32.13     0.124 A 
ENDBRANCH  17  20
ENDBRANCH   1  14
TORSDOF 3
ENDMDL
MODEL 7
REMARK VINA RESULT:    -7.904      4.013      6.148
REMARK INTER + INTRA:         -10.043
REMARK INTER:                  -9.595
REMARK INTRA:                  -0.448
REMARK UNBOUND:                -0.752
REMARK  3 active torsions:
REMARK  status: ('A' for Active; 'I' for Inactive)
REMARK    1  A    between atoms: C5_5  and  C8_8 
REMARK    2  A    between atoms: C8_8  and  C14_14 
REMARK    3  A    between atoms: C17_17  and  C20_20 
ROOT
HETATM    1  C8    D T1351      -2.949   0.286  10.125  1.00 28.40     0.042 C 
HETATM    2  C9    D T1351      -3.064   0.865   8.700  1.00 31.07     0.046 C 
HETATM    3  C10   D T1351      -4.476   1.289   8.328  1.00 30.89     0.291 C 
HETATM    4  N11   D T1351      -4.964   2.290   9.317  1.00 29.44     0.339 N 
HETATM    5  C12   D T1351      -4.972   1.732  10.700  1.00 30.13     0.291 C 
HETATM    6  C13   D T1351      -3.559   1.326  11.081  1.00 30.34     0.046 C 
ENDROOT
BRANCH   1   7
HETATM    7  C5    D T1351      -3.602  -1.101  10.253  1.00 28.95    -0.019 A 
HETATM    8  C4    D T1351      -3.169  -2.002  11.224  1.00 28.71    -0.003 A 
HETATM    9  C3    D T1351      -3.766  -3.237  11.351  1.00 30.92     0.011 A 
HETATM   10  C2    D T1351      -4.823  -3.586  10.529  1.00 30.64     0.058 A 
HETATM   11 CL1    D T1351      -5.572  -5.143  10.699  1.00 40.18    -0.082 Cl
HETATM   12  C7    D T1351      -5.266  -2.696   9.564  1.00 32.16     0.011 A 
HETATM   13  C6    D T1351      -4.666  -1.461   9.431  1.00 28.80    -0.003 A 
ENDBRANCH   1   7
BRANCH   1  14
HETATM   14  C14   D T1351      -1.437   0.160  10.385  1.00 30.67    -0.019 A 
HETATM   15  C15   D T1351      -0.828   0.748  11.490  1.00 28.60    -0.004 A 
HETATM   16  C16   D T1351       0.536   0.653  11.670  1.00 33.11    -0.000 A 
HETATM   17  C17   D T1351       1.323  -0.044  10.760  1.00 31.57     0.003 A 
HETATM   18  C18   D T1351       0.718  -0.609   9.648  1.00 28.36    -0.000 A 
HETATM   19  C19   D T1351      -0.642  -0.509   9.463  1.00 26.27    -0.004 A 
BRANCH  17  20
HETATM   20  C20   D T1351       2.783  -0.082  10.906  1.00 34.09     0.042 A 
HETATM   21  C21   D T1351       3.721  -0.523   9.962  1.00 35.67     0.124 A 
HETATM   22  N22   D T1351       4.958  -0.490  10.457  1.00 33.11    -0.146 NA
HETATM   23  N23   D T1351       4.813  -0.075  11.740  1.00 34.31    -0.146 NA
HETATM   24  C24   D T1351       3.522   0.161  12.038  1.00 32.13     0.124 A 
ENDBRANCH  17  20
ENDBRANCH   1  14
TORSDOF 3
ENDMDL
MODEL 8
REMARK VINA RESULT:    -7.872      3.645      7.357
REMARK INTER + INTRA:         -10.005
REMARK INTER:                  -9.451
REMARK INTRA:                  -0.553
REMARK UNBOUND:                -0.752
REMARK  3 active torsions:
REMARK  status: ('A' for Active; 'I' for Inactive)
REMARK    1  A    between atoms: C5_5  and  C8_8 
REMARK    2  A    between atoms: C8_8  and  C14_14 
REMARK    3  A    between atoms: C17_17  and  C20_20 
ROOT
HETATM    1  C8    D T1351       0.173  -1.584  10.805  1.00 28.40     0.042 C 
HETATM    2  C9    D T1351       0.757  -0.875  12.045  1.00 31.07     0.046 C 
HETATM    3  C10   D T1351       1.992  -1.559  12.610  1.00 30.89     0.291 C 
HETATM    4  N11   D T1351       3.032  -1.650  11.547  1.00 29.44     0.339 N 
HETATM    5  C12   D T1351       2.543  -2.424  10.369  1.00 30.13     0.291 C 
HETATM    6  C13   D T1351       1.321  -1.732   9.791  1.00 30.34     0.046 C 
ENDROOT
BRANCH   1   7
HETATM    7  C5    D T1351      -0.496  -2.925  11.152  1.00 28.95    -0.019 A 
HETATM    8  C4    D T1351      -1.282  -3.050  12.296  1.00 28.71    -0.003 A 
HETATM    9  C3    D T1351      -1.898  -4.246  12.596  1.00 30.92     0.011 A 
HETATM   10  C2    D T1351      -1.762  -5.331  11.748  1.00 30.64     0.058 A 
HETATM   11 CL1    D T1351      -2.544  -6.831  12.133  1.00 40.18    -0.082 Cl
HETATM   12  C7    D T1351      -0.987  -5.216  10.605  1.00 32.16     0.011 A 
HETATM   13  C6    D T1351      -0.365  -4.021  10.304  1.00 28.80    -0.003 A 
ENDBRANCH   1   7
BRANCH   1  14
HETATM   14  C14   D T1351      -0.890  -0.615  10.255  1.00 30.67    -0.019 A 
HETATM   15  C15   D T1351      -2.208  -0.638  10.701  1.00 28.60    -0.004 A 
HETATM   16  C16   D T1351      -3.146   0.214  10.156  1.00 33.11    -0.000 A 
HETATM   17  C17   D T1351      -2.787   1.119   9.164  1.00 31.57     0.003 A 
HETATM   18  C18   D T1351      -1.479   1.124   8.704  1.00 28.36    -0.000 A 
HETATM   19  C19   D T1351      -0.544   0.270   9.242  1.00 26.27    -0.004 A 
BRANCH  17  20
HETATM   20  C20   D T1351      -3.797   1.974   8.528  1.00 34.09     0.042 A 
HETATM   21  C21   D T1351      -3.857   3.374   8.542  1.00 35.67     0.124 A 
HETATM   22  N22   D T1351      -4.952   3.818   7.925  1.00 33.11    -0.146 NA
HETATM   23  N23   D T1351      -5.626   2.699   7.556  1.00 34.31    -0.146 NA
HETATM   24  C24   D T1351      -4.964   1.585   7.918  1.00 32.13     0.124 A 
ENDBRANCH  17  20
ENDBRANCH   1  14
TORSDOF 3
ENDMDL
MODEL 9
REMARK VINA RESULT:    -7.795      3.668      7.022
REMARK INTER + INTRA:          -9.914
REMARK INTER:                  -9.740
REMARK INTRA:                  -0.174
REMARK UNBOUND:                -0.752
REMARK  3 active torsions:
REMARK  status: ('A' for Active; 'I' for Inactive)
REMARK    1  A    between atoms: C5_5  and  C8_8 
REMARK    2  A    between atoms: C8_8  and  C14_14 
REMARK    3  A    between atoms: C17_17  and  C20_20 
ROOT
HETATM    1  C8    D T1351      -2.739   0.439  10.464  1.00 28.40     0.042 C 
HETATM    2  C9    D T1351      -3.208   0.583   9.001  1.00 31.07     0.046 C 
HETATM    3  C10   D T1351      -4.665   0.204   8.790  1.00 30.89     0.291 C 
HETATM    4  N11   D T1351      -5.523   1.038   9.677  1.00 29.44     0.339 N 
HETATM    5  C12   D T1351      -5.172   0.845  11.114  1.00 30.13     0.291 C 
HETATM    6  C13   D T1351      -3.723   1.243  11.331  1.00 30.34     0.046 C 
ENDROOT
BRANCH   1   7
HETATM    7  C5    D T1351      -2.614  -1.030  10.902  1.00 28.95    -0.019 A 
HETATM    8  C4    D T1351      -3.602  -1.956  10.570  1.00 28.71    -0.003 A 
HETATM    9  C3    D T1351      -3.480  -3.275  10.945  1.00 30.92     0.011 A 
HETATM   10  C2    D T1351      -2.360  -3.702  11.637  1.00 30.64     0.058 A 
HETATM   11 CL1    D T1351      -2.215  -5.367  12.103  1.00 40.18    -0.082 Cl
HETATM   12  C7    D T1351      -1.369  -2.792  11.968  1.00 32.16     0.011 A 
HETATM   13  C6    D T1351      -1.490  -1.468  11.597  1.00 28.80    -0.003 A 
ENDBRANCH   1   7
BRANCH   1  14
HETATM   14  C14   D T1351      -1.348   1.098  10.504  1.00 30.67    -0.019 A 
HETATM   15  C15   D T1351      -1.011   2.051  11.461  1.00 28.60    -0.004 A 
HETATM   16  C16   D T1351       0.229   2.655  11.443  1.00 33.11    -0.000 A 
HETATM   17  C17   D T1351       1.168   2.310  10.478  1.00 31.57     0.003 A 
HETATM   18  C18   D T1351       0.824   1.379   9.511  1.00 28.36    -0.000 A 
HETATM   19  C19   D T1351      -0.415   0.780   9.524  1.00 26.27    -0.004 A 
BRANCH  17  20
HETATM   20  C20   D T1351       2.460   3.004  10.407  1.00 34.09     0.042 A 
HETATM   21  C21   D T1351       3.391   2.963   9.361  1.00 35.67     0.124 A 
HETATM   22  N22   D T1351       4.491   3.654   9.664  1.00 33.11    -0.146 NA
HETATM   23  N23   D T1351       4.289   4.099  10.930  1.00 34.31    -0.146 NA
HETATM   24  C24   D T1351       3.090   3.712  11.402  1.00 32.13     0.124 A 
ENDBRANCH  17  20
ENDBRANCH   1  14
TORSDOF 3
ENDMDL
