MODEL 1
REMARK VINA RESULT:    -7.940      0.000      0.000
REMARK INTER + INTRA:          -9.285
REMARK INTER:                  -9.333
REMARK INTRA:                   0.048
REMARK UNBOUND:                 0.048
REMARK  3 active torsions:
REMARK  status: ('A' for Active; 'I' for Inactive)
REMARK    1  A    between atoms: C5_5  and  C8_8 
REMARK    2  A    between atoms: C8_8  and  C14_14 
REMARK    3  A    between atoms: C17_17  and  C20_20 
ROOT
HETATM    1  C8    D T1351       2.722   7.683   6.739  1.00 28.40     0.042 C 
HETATM    2  C9    D T1351       3.751   7.602   5.591  1.00 31.07     0.046 C 
HETATM    3  C10   D T1351       3.581   8.693   4.545  1.00 30.89     0.291 C 
HETATM    4  N11   D T1351       3.670  10.025   5.207  1.00 29.44     0.339 N 
HETATM    5  C12   D T1351       2.618  10.185   6.254  1.00 30.13     0.291 C 
HETATM    6  C13   D T1351       2.798   9.110   7.309  1.00 30.34     0.046 C 
ENDROOT
BRANCH   1   7
HETATM    7  C5    D T1351       1.304   7.292   6.288  1.00 28.95    -0.019 A 
HETATM    8  C4    D T1351       0.681   7.964   5.239  1.00 28.71    -0.003 A 
HETATM    9  C3    D T1351      -0.580   7.600   4.822  1.00 30.92     0.011 A 
HETATM   10  C2    D T1351      -1.235   6.542   5.427  1.00 30.64     0.058 A 
HETATM   11 CL1    D T1351      -2.824   6.089   4.895  1.00 40.18    -0.082 Cl
HETATM   12  C7    D T1351      -0.624   5.863   6.469  1.00 32.16     0.011 A 
HETATM   13  C6    D T1351       0.639   6.227   6.892  1.00 28.80    -0.003 A 
ENDBRANCH   1   7
BRANCH   1  14
HETATM   14  C14   D T1351       3.215   6.671   7.789  1.00 30.67    -0.019 A 
HETATM   15  C15   D T1351       2.722   6.660   9.090  1.00 28.60    -0.004 A 
HETATM   16  C16   D T1351       3.215   5.770  10.019  1.00 33.11    -0.000 A 
HETATM   17  C17   D T1351       4.203   4.857   9.668  1.00 31.57     0.003 A 
HETATM   18  C18   D T1351       4.711   4.883   8.379  1.00 28.36    -0.000 A 
HETATM   19  C19   D T1351       4.223   5.777   7.451  1.00 26.27    -0.004 A 
BRANCH  17  20
HETATM   20  C20   D T1351       4.786   3.958  10.672  1.00 34.09     0.042 A 
HETATM   21  C21   D T1351       4.469   3.888  12.035  1.00 35.67     0.124 A 
HETATM   22  N22   D T1351       5.248   3.008  12.668  1.00 33.11    -0.146 NA
HETATM   23  N23   D T1351       6.102   2.547  11.719  1.00 34.31    -0.146 NA
HETATM   24  C24   D T1351       5.857   3.112  10.522  1.00 32.13     0.124 A 
ENDBRANCH  17  20
ENDBRANCH   1  14
TORSDOF 3
ENDMDL
MODEL 2
REMARK VINA RESULT:    -7.529      3.438      7.634
REMARK INTER + INTRA:          -8.801
REMARK INTER:                  -7.980
REMARK INTRA:                  -0.821
REMARK UNBOUND:                 0.048
REMARK  3 active torsions:
REMARK  status: ('A' for Active; 'I' for Inactive)
REMARK    1  A    between atoms: C5_5  and  C8_8 
REMARK    2  A    between atoms: C8_8  and  C14_14 
REMARK    3  A    between atoms: C17_17  and  C20_20 
ROOT
HETATM    1  C8    D T1351       5.082   7.492   6.355  1.00 28.40     0.042 C 
HETATM    2  C9    D T1351       6.052   8.393   7.150  1.00 31.07     0.046 C 
HETATM    3  C10   D T1351       6.927   7.628   8.130  1.00 30.89     0.291 C 
HETATM    4  N11   D T1351       7.698   6.588   7.391  1.00 29.44     0.339 N 
HETATM    5  C12   D T1351       6.792   5.629   6.695  1.00 30.13     0.291 C 
HETATM    6  C13   D T1351       5.931   6.388   5.701  1.00 30.34     0.046 C 
ENDROOT
BRANCH   1   7
HETATM    7  C5    D T1351       3.945   6.936   7.229  1.00 28.95    -0.019 A 
HETATM    8  C4    D T1351       2.967   6.110   6.682  1.00 28.71    -0.003 A 
HETATM    9  C3    D T1351       1.960   5.596   7.470  1.00 30.92     0.011 A 
HETATM   10  C2    D T1351       1.923   5.879   8.824  1.00 30.64     0.058 A 
HETATM   11 CL1    D T1351       0.651   5.228   9.809  1.00 40.18    -0.082 Cl
HETATM   12  C7    D T1351       2.893   6.697   9.381  1.00 32.16     0.011 A 
HETATM   13  C6    D T1351       3.901   7.215   8.593  1.00 28.80    -0.003 A 
ENDBRANCH   1   7
BRANCH   1  14
HETATM   14  C14   D T1351       4.486   8.407   5.270  1.00 30.67    -0.019 A 
HETATM   15  C15   D T1351       3.588   9.424   5.578  1.00 28.60    -0.004 A 
HETATM   16  C16   D T1351       3.037  10.199   4.580  1.00 33.11    -0.000 A 
HETATM   17  C17   D T1351       3.383   9.988   3.250  1.00 31.57     0.003 A 
HETATM   18  C18   D T1351       4.260   8.960   2.941  1.00 28.36    -0.000 A 
HETATM   19  C19   D T1351       4.805   8.180   3.938  1.00 26.27    -0.004 A 
BRANCH  17  20
HETATM   20  C20   D T1351       2.743  10.759   2.177  1.00 34.09     0.042 A 
HETATM   21  C21   D T1351       2.695  10.439   0.814  1.00 35.67     0.124 A 
HETATM   22  N22   D T1351       2.097  11.402   0.111  1.00 33.11    -0.146 NA
HETATM   23  N23   D T1351       1.805  12.369   1.018  1.00 34.31    -0.146 NA
HETATM   24  C24   D T1351       2.196  12.016   2.256  1.00 32.13     0.124 A 
ENDBRANCH  17  20
ENDBRANCH   1  14
TORSDOF 3
ENDMDL
MODEL 3
REMARK VINA RESULT:    -7.467      4.854      9.197
REMARK INTER + INTRA:          -8.729
REMARK INTER:                  -7.772
REMARK INTRA:                  -0.957
REMARK UNBOUND:                 0.048
REMARK  3 active torsions:
REMARK  status: ('A' for Active; 'I' for Inactive)
REMARK    1  A    between atoms: C5_5  and  C8_8 
REMARK    2  A    between atoms: C8_8  and  C14_14 
REMARK    3  A    between atoms: C17_17  and  C20_20 
ROOT
HETATM    1  C8    D T1351       7.368   3.573  12.516  1.00 28.40     0.042 C 
HETATM    2  C9    D T1351       8.403   3.051  11.496  1.00 31.07     0.046 C 
HETATM    3  C10   D T1351       9.681   2.533  12.138  1.00 30.89     0.291 C 
HETATM    4  N11   D T1351       9.339   1.452  13.106  1.00 29.44     0.339 N 
HETATM    5  C12   D T1351       8.422   1.946  14.174  1.00 30.13     0.291 C 
HETATM    6  C13   D T1351       7.139   2.446  13.537  1.00 30.34     0.046 C 
ENDROOT
BRANCH   1   7
HETATM    7  C5    D T1351       7.802   4.896  13.169  1.00 28.95    -0.019 A 
HETATM    8  C4    D T1351       7.458   5.184  14.489  1.00 28.71    -0.003 A 
HETATM    9  C3    D T1351       7.864   6.361  15.079  1.00 30.92     0.011 A 
HETATM   10  C2    D T1351       8.640   7.262  14.373  1.00 30.64     0.058 A 
HETATM   11 CL1    D T1351       9.148   8.742  15.126  1.00 40.18    -0.082 Cl
HETATM   12  C7    D T1351       8.992   6.986  13.062  1.00 32.16     0.011 A 
HETATM   13  C6    D T1351       8.584   5.809  12.466  1.00 28.80    -0.003 A 
ENDBRANCH   1   7
BRANCH   1  14
HETATM   14  C14   D T1351       6.086   3.810  11.697  1.00 30.67    -0.019 A 
HETATM   15  C15   D T1351       6.124   4.297  10.394  1.00 28.60    -0.004 A 
HETATM   16  C16   D T1351       4.957   4.540   9.703  1.00 33.11    -0.000 A 
HETATM   17  C17   D T1351       3.723   4.286  10.289  1.00 31.57     0.003 A 
HETATM   18  C18   D T1351       3.684   3.822  11.595  1.00 28.36    -0.000 A 
HETATM   19  C19   D T1351       4.850   3.586  12.289  1.00 26.27    -0.004 A 
BRANCH  17  20
HETATM   20  C20   D T1351       2.476   4.613   9.585  1.00 34.09     0.042 A 
HETATM   21  C21   D T1351       2.278   5.619   8.631  1.00 35.67     0.124 A 
HETATM   22  N22   D T1351       1.000   5.685   8.255  1.00 33.11    -0.146 NA
HETATM   23  N23   D T1351       0.363   4.751   9.006  1.00 34.31    -0.146 NA
HETATM   24  C24   D T1351       1.221   4.109   9.821  1.00 32.13     0.124 A 
ENDBRANCH  17  20
ENDBRANCH   1  14
TORSDOF 3
ENDMDL
MODEL 4
REMARK VINA RESULT:    -7.455      3.462      5.069
REMARK INTER + INTRA:          -8.715
REMARK INTER:                  -8.101
REMARK INTRA:                  -0.614
REMARK UNBOUND:                 0.048
REMARK  3 active torsions:
REMARK  status: ('A' for Active; 'I' for Inactive)
REMARK    1  A    between atoms: C5_5  and  C8_8 
REMARK    2  A    between atoms: C8_8  and  C14_14 
REMARK    3  A    between atoms: C17_17  and  C20_20 
ROOT
HETATM    1  C8    D T1351       5.113   8.635   5.099  1.00 28.40     0.042 C 
HETATM    2  C9    D T1351       6.083   7.584   4.517  1.00 31.07     0.046 C 
HETATM    3  C10   D T1351       7.309   8.191   3.853  1.00 30.89     0.291 C 
HETATM    4  N11   D T1351       8.028   9.046   4.839  1.00 29.44     0.339 N 
HETATM    5  C12   D T1351       7.155  10.144   5.347  1.00 30.13     0.291 C 
HETATM    6  C13   D T1351       5.940   9.541   6.028  1.00 30.34     0.046 C 
ENDROOT
BRANCH   1   7
HETATM    7  C5    D T1351       4.367   9.418   4.005  1.00 28.95    -0.019 A 
HETATM    8  C4    D T1351       3.625   8.750   3.034  1.00 28.71    -0.003 A 
HETATM    9  C3    D T1351       2.940   9.453   2.067  1.00 30.92     0.011 A 
HETATM   10  C2    D T1351       2.964  10.836   2.064  1.00 30.64     0.058 A 
HETATM   11 CL1    D T1351       2.098  11.713   0.842  1.00 40.18    -0.082 Cl
HETATM   12  C7    D T1351       3.696  11.512   3.027  1.00 32.16     0.011 A 
HETATM   13  C6    D T1351       4.385  10.811   3.996  1.00 28.80    -0.003 A 
ENDBRANCH   1   7
BRANCH   1  14
HETATM   14  C14   D T1351       4.096   7.825   5.924  1.00 30.67    -0.019 A 
HETATM   15  C15   D T1351       4.415   6.587   6.474  1.00 28.60    -0.004 A 
HETATM   16  C16   D T1351       3.469   5.866   7.171  1.00 33.11    -0.000 A 
HETATM   17  C17   D T1351       2.186   6.371   7.350  1.00 31.57     0.003 A 
HETATM   18  C18   D T1351       1.862   7.594   6.783  1.00 28.36    -0.000 A 
HETATM   19  C19   D T1351       2.805   8.312   6.080  1.00 26.27    -0.004 A 
BRANCH  17  20
HETATM   20  C20   D T1351       1.154   5.575   8.026  1.00 34.09     0.042 A 
HETATM   21  C21   D T1351       1.259   4.918   9.258  1.00 35.67     0.124 A 
HETATM   22  N22   D T1351       0.152   4.225   9.533  1.00 33.11    -0.146 NA
HETATM   23  N23   D T1351      -0.649   4.397   8.451  1.00 34.31    -0.146 NA
HETATM   24  C24   D T1351      -0.066   5.186   7.529  1.00 32.13     0.124 A 
ENDBRANCH  17  20
ENDBRANCH   1  14
TORSDOF 3
ENDMDL
MODEL 5
REMARK VINA RESULT:    -7.406      3.907      5.619
REMARK INTER + INTRA:          -8.657
REMARK INTER:                  -7.724
REMARK INTRA:                  -0.933
REMARK UNBOUND:                 0.048
REMARK  3 active torsions:
REMARK  status: ('A' for Active; 'I' for Inactive)
REMARK    1  A    between atoms: C5_5  and  C8_8 
REMARK    2  A    between atoms: C8_8  and  C14_14 
REMARK    3  A    between atoms: C17_17  and  C20_20 
ROOT
HETATM    1  C8    D T1351       4.607   8.461   5.273  1.00 28.40     0.042 C 
HETATM    2  C9    D T1351       3.650   9.672   5.258  1.00 31.07     0.046 C 
HETATM    3  C10   D T1351       3.865  10.602   4.074  1.00 30.89     0.291 C 
HETATM    4  N11   D T1351       3.716   9.827   2.809  1.00 29.44     0.339 N 
HETATM    5  C12   D T1351       4.700   8.708   2.736  1.00 30.13     0.291 C 
HETATM    6  C13   D T1351       4.473   7.768   3.906  1.00 30.34     0.046 C 
ENDROOT
BRANCH   1   7
HETATM    7  C5    D T1351       6.055   8.858   5.607  1.00 28.95    -0.019 A 
HETATM    8  C4    D T1351       6.330   9.708   6.675  1.00 28.71    -0.003 A 
HETATM    9  C3    D T1351       7.629  10.047   6.986  1.00 30.92     0.011 A 
HETATM   10  C2    D T1351       8.679   9.526   6.251  1.00 30.64     0.058 A 
HETATM   11 CL1    D T1351      10.312   9.958   6.649  1.00 40.18    -0.082 Cl
HETATM   12  C7    D T1351       8.418   8.677   5.187  1.00 32.16     0.011 A 
HETATM   13  C6    D T1351       7.118   8.337   4.872  1.00 28.80    -0.003 A 
ENDBRANCH   1   7
BRANCH   1  14
HETATM   14  C14   D T1351       4.067   7.540   6.383  1.00 30.67    -0.019 A 
HETATM   15  C15   D T1351       4.808   6.472   6.879  1.00 28.60    -0.004 A 
HETATM   16  C16   D T1351       4.280   5.640   7.842  1.00 33.11    -0.000 A 
HETATM   17  C17   D T1351       3.003   5.863   8.346  1.00 31.57     0.003 A 
HETATM   18  C18   D T1351       2.256   6.913   7.835  1.00 28.36    -0.000 A 
HETATM   19  C19   D T1351       2.781   7.741   6.868  1.00 26.27    -0.004 A 
BRANCH  17  20
HETATM   20  C20   D T1351       2.406   4.936   9.316  1.00 34.09     0.042 A 
HETATM   21  C21   D T1351       3.077   4.035  10.154  1.00 35.67     0.124 A 
HETATM   22  N22   D T1351       2.217   3.293  10.853  1.00 33.11    -0.146 NA
HETATM   23  N23   D T1351       0.988   3.683  10.428  1.00 34.31    -0.146 NA
HETATM   24  C24   D T1351       1.075   4.652   9.497  1.00 32.13     0.124 A 
ENDBRANCH  17  20
ENDBRANCH   1  14
TORSDOF 3
ENDMDL
MODEL 6
REMARK VINA RESULT:    -7.319      3.893      5.560
REMARK INTER + INTRA:          -8.555
REMARK INTER:                  -7.670
REMARK INTRA:                  -0.885
REMARK UNBOUND:                 0.048
REMARK  3 active torsions:
REMARK  status: ('A' for Active; 'I' for Inactive)
REMARK    1  A    between atoms: C5_5  and  C8_8 
REMARK    2  A    between atoms: C8_8  and  C14_14 
REMARK    3  A    between atoms: C17_17  and  C20_20 
ROOT
HETATM    1  C8    D T1351       4.621   8.511   5.163  1.00 28.40     0.042 C 
HETATM    2  C9    D T1351       3.712   9.759   5.166  1.00 31.07     0.046 C 
HETATM    3  C10   D T1351       4.012  10.732   4.037  1.00 30.89     0.291 C 
HETATM    4  N11   D T1351       3.889  10.022   2.732  1.00 29.44     0.339 N 
HETATM    5  C12   D T1351       4.832   8.870   2.647  1.00 30.13     0.291 C 
HETATM    6  C13   D T1351       4.521   7.887   3.761  1.00 30.34     0.046 C 
ENDROOT
BRANCH   1   7
HETATM    7  C5    D T1351       6.067   8.836   5.575  1.00 28.95    -0.019 A 
HETATM    8  C4    D T1351       7.143   8.346   4.838  1.00 28.71    -0.003 A 
HETATM    9  C3    D T1351       8.437   8.655   5.195  1.00 30.92     0.011 A 
HETATM   10  C2    D T1351       8.683   9.477   6.280  1.00 30.64     0.058 A 
HETATM   11 CL1    D T1351      10.316   9.861   6.723  1.00 40.18    -0.082 Cl
HETATM   12  C7    D T1351       7.621   9.974   7.019  1.00 32.16     0.011 A 
HETATM   13  C6    D T1351       6.323   9.664   6.665  1.00 28.80    -0.003 A 
ENDBRANCH   1   7
BRANCH   1  14
HETATM   14  C14   D T1351       4.000   7.563   6.206  1.00 30.67    -0.019 A 
HETATM   15  C15   D T1351       2.733   7.783   6.738  1.00 28.60    -0.004 A 
HETATM   16  C16   D T1351       2.222   6.941   7.701  1.00 33.11    -0.000 A 
HETATM   17  C17   D T1351       2.956   5.847   8.146  1.00 31.57     0.003 A 
HETATM   18  C18   D T1351       4.227   5.641   7.632  1.00 28.36    -0.000 A 
HETATM   19  C19   D T1351       4.742   6.487   6.674  1.00 26.27    -0.004 A 
BRANCH  17  20
HETATM   20  C20   D T1351       2.449   4.991   9.225  1.00 34.09     0.042 A 
HETATM   21  C21   D T1351       3.191   4.134  10.049  1.00 35.67     0.124 A 
HETATM   22  N22   D T1351       2.397   3.449  10.874  1.00 33.11    -0.146 NA
HETATM   23  N23   D T1351       1.136   3.829  10.546  1.00 34.31    -0.146 NA
HETATM   24  C24   D T1351       1.140   4.738   9.552  1.00 32.13     0.124 A 
ENDBRANCH  17  20
ENDBRANCH   1  14
TORSDOF 3
ENDMDL
MODEL 7
REMARK VINA RESULT:    -7.292      2.921      3.650
REMARK INTER + INTRA:          -8.522
REMARK INTER:                  -8.135
REMARK INTRA:                  -0.387
REMARK UNBOUND:                 0.048
REMARK  3 active torsions:
REMARK  status: ('A' for Active; 'I' for Inactive)
REMARK    1  A    between atoms: C5_5  and  C8_8 
REMARK    2  A    between atoms: C8_8  and  C14_14 
REMARK    3  A    between atoms: C17_17  and  C20_20 
ROOT
HETATM    1  C8    D T1351       3.246   8.073   6.359  1.00 28.40     0.042 C 
HETATM    2  C9    D T1351       3.254   8.135   4.816  1.00 31.07     0.046 C 
HETATM    3  C10   D T1351       2.085   8.913   4.233  1.00 30.89     0.291 C 
HETATM    4  N11   D T1351       2.089  10.295   4.792  1.00 29.44     0.339 N 
HETATM    5  C12   D T1351       1.973  10.282   6.280  1.00 30.13     0.291 C 
HETATM    6  C13   D T1351       3.149   9.522   6.865  1.00 30.34     0.046 C 
ENDROOT
BRANCH   1   7
HETATM    7  C5    D T1351       2.127   7.170   6.906  1.00 28.95    -0.019 A 
HETATM    8  C4    D T1351       2.289   6.487   8.109  1.00 28.71    -0.003 A 
HETATM    9  C3    D T1351       1.279   5.695   8.609  1.00 30.92     0.011 A 
HETATM   10  C2    D T1351       0.078   5.588   7.929  1.00 30.64     0.058 A 
HETATM   11 CL1    D T1351      -1.190   4.588   8.566  1.00 40.18    -0.082 Cl
HETATM   12  C7    D T1351      -0.097   6.265   6.733  1.00 32.16     0.011 A 
HETATM   13  C6    D T1351       0.915   7.057   6.229  1.00 28.80    -0.003 A 
ENDBRANCH   1   7
BRANCH   1  14
HETATM   14  C14   D T1351       4.612   7.473   6.741  1.00 30.67    -0.019 A 
HETATM   15  C15   D T1351       5.395   8.014   7.757  1.00 28.60    -0.004 A 
HETATM   16  C16   D T1351       6.632   7.481   8.045  1.00 33.11    -0.000 A 
HETATM   17  C17   D T1351       7.113   6.385   7.338  1.00 31.57     0.003 A 
HETATM   18  C18   D T1351       6.343   5.861   6.311  1.00 28.36    -0.000 A 
HETATM   19  C19   D T1351       5.108   6.397   6.017  1.00 26.27    -0.004 A 
BRANCH  17  20
HETATM   20  C20   D T1351       8.461   5.861   7.590  1.00 34.09     0.042 A 
HETATM   21  C21   D T1351       8.819   4.535   7.868  1.00 35.67     0.124 A 
HETATM   22  N22   D T1351      10.125   4.429   8.119  1.00 33.11    -0.146 NA
HETATM   23  N23   D T1351      10.601   5.699   8.054  1.00 34.31    -0.146 NA
HETATM   24  C24   D T1351       9.623   6.574   7.755  1.00 32.13     0.124 A 
ENDBRANCH  17  20
ENDBRANCH   1  14
TORSDOF 3
ENDMDL
MODEL 8
REMARK VINA RESULT:    -7.209      4.433      6.606
REMARK INTER + INTRA:          -8.425
REMARK INTER:                  -7.749
REMARK INTRA:                  -0.675
REMARK UNBOUND:                 0.048
REMARK  3 active torsions:
REMARK  status: ('A' for Active; 'I' for Inactive)
REMARK    1  A    between atoms: C5_5  and  C8_8 
REMARK    2  A    between atoms: C8_8  and  C14_14 
REMARK    3  A    between atoms: C17_17  and  C20_20 
ROOT
HETATM    1  C8    D T1351       5.962   7.606   6.667  1.00 28.40     0.042 C 
HETATM    2  C9    D T1351       5.930   9.105   7.035  1.00 31.07     0.046 C 
HETATM    3  C10   D T1351       7.170   9.866   6.592  1.00 30.89     0.291 C 
HETATM    4  N11   D T1351       7.339   9.713   5.119  1.00 29.44     0.339 N 
HETATM    5  C12   D T1351       7.482   8.280   4.732  1.00 30.13     0.291 C 
HETATM    6  C13   D T1351       6.237   7.522   5.156  1.00 30.34     0.046 C 
ENDROOT
BRANCH   1   7
HETATM    7  C5    D T1351       6.979   6.815   7.507  1.00 28.95    -0.019 A 
HETATM    8  C4    D T1351       7.443   5.573   7.078  1.00 28.71    -0.003 A 
HETATM    9  C3    D T1351       8.369   4.875   7.821  1.00 30.92     0.011 A 
HETATM   10  C2    D T1351       8.868   5.412   8.994  1.00 30.64     0.058 A 
HETATM   11 CL1    D T1351      10.034   4.525   9.924  1.00 40.18    -0.082 Cl
HETATM   12  C7    D T1351       8.417   6.648   9.430  1.00 32.16     0.011 A 
HETATM   13  C6    D T1351       7.487   7.349   8.689  1.00 28.80    -0.003 A 
ENDBRANCH   1   7
BRANCH   1  14
HETATM   14  C14   D T1351       4.543   7.091   6.973  1.00 30.67    -0.019 A 
HETATM   15  C15   D T1351       4.322   5.983   7.785  1.00 28.60    -0.004 A 
HETATM   16  C16   D T1351       3.043   5.520   8.004  1.00 33.11    -0.000 A 
HETATM   17  C17   D T1351       1.951   6.161   7.431  1.00 31.57     0.003 A 
HETATM   18  C18   D T1351       2.173   7.250   6.602  1.00 28.36    -0.000 A 
HETATM   19  C19   D T1351       3.452   7.710   6.377  1.00 26.27    -0.004 A 
BRANCH  17  20
HETATM   20  C20   D T1351       0.594   5.627   7.599  1.00 34.09     0.042 A 
HETATM   21  C21   D T1351       0.116   4.836   8.652  1.00 35.67     0.124 A 
HETATM   22  N22   D T1351      -1.149   4.466   8.444  1.00 33.11    -0.146 NA
HETATM   23  N23   D T1351      -1.471   4.979   7.229  1.00 34.31    -0.146 NA
HETATM   24  C24   D T1351      -0.441   5.663   6.697  1.00 32.13     0.124 A 
ENDBRANCH  17  20
ENDBRANCH   1  14
TORSDOF 3
ENDMDL
MODEL 9
REMARK VINA RESULT:    -6.791      2.725      4.197
REMARK INTER + INTRA:          -7.934
REMARK INTER:                  -7.097
REMARK INTRA:                  -0.836
REMARK UNBOUND:                 0.048
REMARK  3 active torsions:
REMARK  status: ('A' for Active; 'I' for Inactive)
REMARK    1  A    between atoms: C5_5  and  C8_8 
REMARK    2  A    between atoms: C8_8  and  C14_14 
REMARK    3  A    between atoms: C17_17  and  C20_20 
ROOT
HETATM    1  C8    D T1351       2.932   8.290   6.060  1.00 28.40     0.042 C 
HETATM    2  C9    D T1351       2.442   9.500   6.884  1.00 31.07     0.046 C 
HETATM    3  C10   D T1351       1.664  10.518   6.065  1.00 30.89     0.291 C 
HETATM    4  N11   D T1351       0.501   9.844   5.421  1.00 29.44     0.339 N 
HETATM    5  C12   D T1351       0.941   8.733   4.528  1.00 30.13     0.291 C 
HETATM    6  C13   D T1351       1.700   7.706   5.347  1.00 30.34     0.046 C 
ENDROOT
BRANCH   1   7
HETATM    7  C5    D T1351       4.068   8.659   5.091  1.00 28.95    -0.019 A 
HETATM    8  C4    D T1351       4.068   8.183   3.782  1.00 28.71    -0.003 A 
HETATM    9  C3    D T1351       5.076   8.532   2.909  1.00 30.92     0.011 A 
HETATM   10  C2    D T1351       6.089   9.380   3.318  1.00 30.64     0.058 A 
HETATM   11 CL1    D T1351       7.354   9.814   2.211  1.00 40.18    -0.082 Cl
HETATM   12  C7    D T1351       6.097   9.863   4.616  1.00 32.16     0.011 A 
HETATM   13  C6    D T1351       5.091   9.514   5.495  1.00 28.80    -0.003 A 
ENDBRANCH   1   7
BRANCH   1  14
HETATM   14  C14   D T1351       3.461   7.287   7.101  1.00 30.67    -0.019 A 
HETATM   15  C15   D T1351       4.467   6.373   6.797  1.00 28.60    -0.004 A 
HETATM   16  C16   D T1351       4.888   5.459   7.738  1.00 33.11    -0.000 A 
HETATM   17  C17   D T1351       4.329   5.443   9.010  1.00 31.57     0.003 A 
HETATM   18  C18   D T1351       3.311   6.338   9.305  1.00 28.36    -0.000 A 
HETATM   19  C19   D T1351       2.884   7.248   8.363  1.00 26.27    -0.004 A 
BRANCH  17  20
HETATM   20  C20   D T1351       4.720   4.423   9.991  1.00 34.09     0.042 A 
HETATM   21  C21   D T1351       4.125   4.165  11.233  1.00 35.67     0.124 A 
HETATM   22  N22   D T1351       4.785   3.217  11.898  1.00 33.11    -0.146 NA
HETATM   23  N23   D T1351       5.839   2.898  11.104  1.00 34.31    -0.146 NA
HETATM   24  C24   D T1351       5.831   3.617   9.966  1.00 32.13     0.124 A 
ENDBRANCH  17  20
ENDBRANCH   1  14
TORSDOF 3
ENDMDL
