MODEL 1
REMARK VINA RESULT:    -7.061      0.000      0.000
REMARK INTER + INTRA:          -9.032
REMARK INTER:                  -8.299
REMARK INTRA:                  -0.733
REMARK UNBOUND:                -0.733
REMARK  3 active torsions:
REMARK  status: ('A' for Active; 'I' for Inactive)
REMARK    1  A    between atoms: C5_5  and  C8_8 
REMARK    2  A    between atoms: C8_8  and  C14_14 
REMARK    3  A    between atoms: C17_17  and  C20_20 
ROOT
HETATM    1  C8    D T1351      -5.318  -3.255  -6.201  1.00 28.40     0.042 C 
HETATM    2  C9    D T1351      -4.904  -2.838  -7.629  1.00 31.07     0.046 C 
HETATM    3  C10   D T1351      -4.426  -1.398  -7.727  1.00 30.89     0.291 C 
HETATM    4  N11   D T1351      -3.282  -1.197  -6.794  1.00 29.44     0.339 N 
HETATM    5  C12   D T1351      -3.673  -1.485  -5.383  1.00 30.13     0.291 C 
HETATM    6  C13   D T1351      -4.131  -2.928  -5.277  1.00 30.34     0.046 C 
ENDROOT
BRANCH   1   7
HETATM    7  C5    D T1351      -6.630  -2.589  -5.751  1.00 28.95    -0.019 A 
HETATM    8  C4    D T1351      -6.937  -2.468  -4.398  1.00 28.71    -0.003 A 
HETATM    9  C3    D T1351      -8.102  -1.854  -3.995  1.00 30.92     0.011 A 
HETATM   10  C2    D T1351      -8.972  -1.328  -4.933  1.00 30.64     0.058 A 
HETATM   11 CL1    D T1351     -10.437  -0.553  -4.416  1.00 40.18    -0.082 Cl
HETATM   12  C7    D T1351      -8.676  -1.438  -6.282  1.00 32.16     0.011 A 
HETATM   13  C6    D T1351      -7.511  -2.056  -6.689  1.00 28.80    -0.003 A 
ENDBRANCH   1   7
BRANCH   1  14
HETATM   14  C14   D T1351      -5.523  -4.779  -6.273  1.00 30.67    -0.019 A 
HETATM   15  C15   D T1351      -4.459  -5.671  -6.170  1.00 28.60    -0.004 A 
HETATM   16  C16   D T1351      -4.670  -7.028  -6.283  1.00 33.11    -0.000 A 
HETATM   17  C17   D T1351      -5.950  -7.530  -6.485  1.00 31.57     0.003 A 
HETATM   18  C18   D T1351      -7.005  -6.641  -6.612  1.00 28.36    -0.000 A 
HETATM   19  C19   D T1351      -6.796  -5.284  -6.506  1.00 26.27    -0.004 A 
BRANCH  17  20
HETATM   20  C20   D T1351      -6.170  -8.968  -6.682  1.00 34.09     0.042 A 
HETATM   21  C21   D T1351      -5.387  -9.852  -7.436  1.00 35.67     0.124 A 
HETATM   22  N22   D T1351      -5.921 -11.074  -7.459  1.00 33.11    -0.146 NA
HETATM   23  N23   D T1351      -7.079 -10.965  -6.759  1.00 34.31    -0.146 NA
HETATM   24  C24   D T1351      -7.258  -9.712  -6.298  1.00 32.13     0.124 A 
ENDBRANCH  17  20
ENDBRANCH   1  14
TORSDOF 3
ENDMDL
MODEL 2
REMARK VINA RESULT:    -6.991      5.185      9.866
REMARK INTER + INTRA:          -8.950
REMARK INTER:                  -8.033
REMARK INTRA:                  -0.916
REMARK UNBOUND:                -0.733
REMARK  3 active torsions:
REMARK  status: ('A' for Active; 'I' for Inactive)
REMARK    1  A    between atoms: C5_5  and  C8_8 
REMARK    2  A    between atoms: C8_8  and  C14_14 
REMARK    3  A    between atoms: C17_17  and  C20_20 
ROOT
HETATM    1  C8    D T1351      -8.724  -0.159  -7.220  1.00 28.40     0.042 C 
HETATM    2  C9    D T1351      -8.732  -0.010  -8.756  1.00 31.07     0.046 C 
HETATM    3  C10   D T1351      -8.800  -1.338  -9.495  1.00 30.89     0.291 C 
HETATM    4  N11   D T1351     -10.015  -2.082  -9.056  1.00 29.44     0.339 N 
HETATM    5  C12   D T1351      -9.993  -2.342  -7.587  1.00 30.13     0.291 C 
HETATM    6  C13   D T1351      -9.946  -1.019  -6.846  1.00 30.34     0.046 C 
ENDROOT
BRANCH   1   7
HETATM    7  C5    D T1351      -7.400  -0.737  -6.691  1.00 28.95    -0.019 A 
HETATM    8  C4    D T1351      -7.320  -1.272  -5.407  1.00 28.71    -0.003 A 
HETATM    9  C3    D T1351      -6.140  -1.807  -4.943  1.00 30.92     0.011 A 
HETATM   10  C2    D T1351      -5.022  -1.842  -5.757  1.00 30.64     0.058 A 
HETATM   11 CL1    D T1351      -3.540  -2.521  -5.164  1.00 40.18    -0.082 Cl
HETATM   12  C7    D T1351      -5.090  -1.317  -7.038  1.00 32.16     0.011 A 
HETATM   13  C6    D T1351      -6.271  -0.777  -7.505  1.00 28.80    -0.003 A 
ENDBRANCH   1   7
BRANCH   1  14
HETATM   14  C14   D T1351      -8.904   1.271  -6.679  1.00 30.67    -0.019 A 
HETATM   15  C15   D T1351     -10.016   1.640  -5.926  1.00 28.60    -0.004 A 
HETATM   16  C16   D T1351     -10.168   2.940  -5.494  1.00 33.11    -0.000 A 
HETATM   17  C17   D T1351      -9.208   3.900  -5.788  1.00 31.57     0.003 A 
HETATM   18  C18   D T1351      -8.114   3.538  -6.558  1.00 28.36    -0.000 A 
HETATM   19  C19   D T1351      -7.962   2.242  -6.996  1.00 26.27    -0.004 A 
BRANCH  17  20
HETATM   20  C20   D T1351      -9.402   5.301  -5.396  1.00 34.09     0.042 A 
HETATM   21  C21   D T1351     -10.587   5.901  -4.949  1.00 35.67     0.124 A 
HETATM   22  N22   D T1351     -10.423   7.210  -4.752  1.00 33.11    -0.146 NA
HETATM   23  N23   D T1351      -9.142   7.463  -5.121  1.00 34.31    -0.146 NA
HETATM   24  C24   D T1351      -8.516   6.341  -5.526  1.00 32.13     0.124 A 
ENDBRANCH  17  20
ENDBRANCH   1  14
TORSDOF 3
ENDMDL
MODEL 3
REMARK VINA RESULT:    -6.982      2.409      3.618
REMARK INTER + INTRA:          -8.939
REMARK INTER:                  -8.181
REMARK INTRA:                  -0.758
REMARK UNBOUND:                -0.733
REMARK  3 active torsions:
REMARK  status: ('A' for Active; 'I' for Inactive)
REMARK    1  A    between atoms: C5_5  and  C8_8 
REMARK    2  A    between atoms: C8_8  and  C14_14 
REMARK    3  A    between atoms: C17_17  and  C20_20 
ROOT
HETATM    1  C8    D T1351      -7.708  -3.792  -6.872  1.00 28.40     0.042 C 
HETATM    2  C9    D T1351      -8.885  -3.736  -5.875  1.00 31.07     0.046 C 
HETATM    3  C10   D T1351      -9.655  -2.425  -5.916  1.00 30.89     0.291 C 
HETATM    4  N11   D T1351     -10.158  -2.196  -7.300  1.00 29.44     0.339 N 
HETATM    5  C12   D T1351      -9.038  -2.134  -8.284  1.00 30.13     0.291 C 
HETATM    6  C13   D T1351      -8.280  -3.449  -8.260  1.00 30.34     0.046 C 
ENDROOT
BRANCH   1   7
HETATM    7  C5    D T1351      -6.543  -2.875  -6.460  1.00 28.95    -0.019 A 
HETATM    8  C4    D T1351      -5.678  -2.351  -7.417  1.00 28.71    -0.003 A 
HETATM    9  C3    D T1351      -4.648  -1.514  -7.049  1.00 30.92     0.011 A 
HETATM   10  C2    D T1351      -4.475  -1.165  -5.723  1.00 30.64     0.058 A 
HETATM   11 CL1    D T1351      -3.176  -0.108  -5.268  1.00 40.18    -0.082 Cl
HETATM   12  C7    D T1351      -5.332  -1.676  -4.761  1.00 32.16     0.011 A 
HETATM   13  C6    D T1351      -6.363  -2.517  -5.126  1.00 28.80    -0.003 A 
ENDBRANCH   1   7
BRANCH   1  14
HETATM   14  C14   D T1351      -7.233  -5.256  -6.848  1.00 30.67    -0.019 A 
HETATM   15  C15   D T1351      -6.066  -5.641  -6.192  1.00 28.60    -0.004 A 
HETATM   16  C16   D T1351      -5.645  -6.953  -6.228  1.00 33.11    -0.000 A 
HETATM   17  C17   D T1351      -6.384  -7.916  -6.904  1.00 31.57     0.003 A 
HETATM   18  C18   D T1351      -7.532  -7.527  -7.577  1.00 28.36    -0.000 A 
HETATM   19  C19   D T1351      -7.952  -6.216  -7.548  1.00 26.27    -0.004 A 
BRANCH  17  20
HETATM   20  C20   D T1351      -5.900  -9.297  -7.008  1.00 34.09     0.042 A 
HETATM   21  C21   D T1351      -4.607  -9.722  -7.341  1.00 35.67     0.124 A 
HETATM   22  N22   D T1351      -4.538 -11.052  -7.417  1.00 33.11    -0.146 NA
HETATM   23  N23   D T1351      -5.803 -11.483  -7.182  1.00 34.31    -0.146 NA
HETATM   24  C24   D T1351      -6.639 -10.453  -6.951  1.00 32.13     0.124 A 
ENDBRANCH  17  20
ENDBRANCH   1  14
TORSDOF 3
ENDMDL
MODEL 4
REMARK VINA RESULT:    -6.862      6.192      8.720
REMARK INTER + INTRA:          -8.798
REMARK INTER:                  -7.912
REMARK INTRA:                  -0.886
REMARK UNBOUND:                -0.733
REMARK  3 active torsions:
REMARK  status: ('A' for Active; 'I' for Inactive)
REMARK    1  A    between atoms: C5_5  and  C8_8 
REMARK    2  A    between atoms: C8_8  and  C14_14 
REMARK    3  A    between atoms: C17_17  and  C20_20 
ROOT
HETATM    1  C8    D T1351      -9.370   4.250  -6.647  1.00 28.40     0.042 C 
HETATM    2  C9    D T1351      -9.618   4.449  -5.137  1.00 31.07     0.046 C 
HETATM    3  C10   D T1351     -10.124   5.839  -4.783  1.00 30.89     0.291 C 
HETATM    4  N11   D T1351     -11.380   6.110  -5.539  1.00 29.44     0.339 N 
HETATM    5  C12   D T1351     -11.157   6.033  -7.012  1.00 30.13     0.291 C 
HETATM    6  C13   D T1351     -10.671   4.642  -7.371  1.00 30.34     0.046 C 
ENDROOT
BRANCH   1   7
HETATM    7  C5    D T1351      -8.144   5.031  -7.152  1.00 28.95    -0.019 A 
HETATM    8  C4    D T1351      -7.181   5.495  -6.259  1.00 28.71    -0.003 A 
HETATM    9  C3    D T1351      -6.074   6.176  -6.714  1.00 30.92     0.011 A 
HETATM   10  C2    D T1351      -5.894   6.389  -8.068  1.00 30.64     0.058 A 
HETATM   11 CL1    D T1351      -4.495   7.246  -8.632  1.00 40.18    -0.082 Cl
HETATM   12  C7    D T1351      -6.843   5.928  -8.967  1.00 32.16     0.011 A 
HETATM   13  C6    D T1351      -7.955   5.247  -8.514  1.00 28.80    -0.003 A 
ENDBRANCH   1   7
BRANCH   1  14
HETATM   14  C14   D T1351      -9.111   2.741  -6.814  1.00 30.67    -0.019 A 
HETATM   15  C15   D T1351      -7.864   2.175  -6.564  1.00 28.60    -0.004 A 
HETATM   16  C16   D T1351      -7.654   0.828  -6.766  1.00 33.11    -0.000 A 
HETATM   17  C17   D T1351      -8.686   0.009  -7.207  1.00 31.57     0.003 A 
HETATM   18  C18   D T1351      -9.921   0.577  -7.479  1.00 28.36    -0.000 A 
HETATM   19  C19   D T1351     -10.132   1.924  -7.284  1.00 26.27    -0.004 A 
BRANCH  17  20
HETATM   20  C20   D T1351      -8.448  -1.410  -7.496  1.00 34.09     0.042 A 
HETATM   21  C21   D T1351      -8.858  -2.128  -8.627  1.00 35.67     0.124 A 
HETATM   22  N22   D T1351      -8.536  -3.418  -8.526  1.00 33.11    -0.146 NA
HETATM   23  N23   D T1351      -7.959  -3.541  -7.304  1.00 34.31    -0.146 NA
HETATM   24  C24   D T1351      -7.910  -2.359  -6.661  1.00 32.13     0.124 A 
ENDBRANCH  17  20
ENDBRANCH   1  14
TORSDOF 3
ENDMDL
MODEL 5
REMARK VINA RESULT:    -6.761      3.894      5.651
REMARK INTER + INTRA:          -8.680
REMARK INTER:                  -7.914
REMARK INTRA:                  -0.765
REMARK UNBOUND:                -0.733
REMARK  3 active torsions:
REMARK  status: ('A' for Active; 'I' for Inactive)
REMARK    1  A    between atoms: C5_5  and  C8_8 
REMARK    2  A    between atoms: C8_8  and  C14_14 
REMARK    3  A    between atoms: C17_17  and  C20_20 
ROOT
HETATM    1  C8    D T1351      -5.258  -2.967  -6.113  1.00 28.40     0.042 C 
HETATM    2  C9    D T1351      -4.942  -1.877  -5.067  1.00 31.07     0.046 C 
HETATM    3  C10   D T1351      -3.568  -1.249  -5.240  1.00 30.89     0.291 C 
HETATM    4  N11   D T1351      -3.460  -0.675  -6.611  1.00 29.44     0.339 N 
HETATM    5  C12   D T1351      -3.652  -1.722  -7.657  1.00 30.13     0.291 C 
HETATM    6  C13   D T1351      -5.031  -2.337  -7.500  1.00 30.34     0.046 C 
ENDROOT
BRANCH   1   7
HETATM    7  C5    D T1351      -4.436  -4.249  -5.895  1.00 28.95    -0.019 A 
HETATM    8  C4    D T1351      -3.405  -4.281  -4.959  1.00 28.71    -0.003 A 
HETATM    9  C3    D T1351      -2.684  -5.436  -4.750  1.00 30.92     0.011 A 
HETATM   10  C2    D T1351      -2.991  -6.586  -5.453  1.00 30.64     0.058 A 
HETATM   11 CL1    D T1351      -2.078  -8.037  -5.181  1.00 40.18    -0.082 Cl
HETATM   12  C7    D T1351      -4.018  -6.568  -6.384  1.00 32.16     0.011 A 
HETATM   13  C6    D T1351      -4.741  -5.412  -6.598  1.00 28.80    -0.003 A 
ENDBRANCH   1   7
BRANCH   1  14
HETATM   14  C14   D T1351      -6.752  -3.285  -5.920  1.00 30.67    -0.019 A 
HETATM   15  C15   D T1351      -7.287  -3.580  -4.669  1.00 28.60    -0.004 A 
HETATM   16  C16   D T1351      -8.620  -3.905  -4.537  1.00 33.11    -0.000 A 
HETATM   17  C17   D T1351      -9.456  -3.927  -5.647  1.00 31.57     0.003 A 
HETATM   18  C18   D T1351      -8.918  -3.657  -6.896  1.00 28.36    -0.000 A 
HETATM   19  C19   D T1351      -7.585  -3.338  -7.031  1.00 26.27    -0.004 A 
BRANCH  17  20
HETATM   20  C20   D T1351     -10.857  -4.345  -5.523  1.00 34.09     0.042 A 
HETATM   21  C21   D T1351     -11.623  -4.415  -4.351  1.00 35.67     0.124 A 
HETATM   22  N22   D T1351     -12.837  -4.910  -4.595  1.00 33.11    -0.146 NA
HETATM   23  N23   D T1351     -12.838  -5.206  -5.919  1.00 34.31    -0.146 NA
HETATM   24  C24   D T1351     -11.660  -4.893  -6.493  1.00 32.13     0.124 A 
ENDBRANCH  17  20
ENDBRANCH   1  14
TORSDOF 3
ENDMDL
MODEL 6
REMARK VINA RESULT:    -6.655      3.991      8.662
REMARK INTER + INTRA:          -8.555
REMARK INTER:                  -7.925
REMARK INTRA:                  -0.630
REMARK UNBOUND:                -0.733
REMARK  3 active torsions:
REMARK  status: ('A' for Active; 'I' for Inactive)
REMARK    1  A    between atoms: C5_5  and  C8_8 
REMARK    2  A    between atoms: C8_8  and  C14_14 
REMARK    3  A    between atoms: C17_17  and  C20_20 
ROOT
HETATM    1  C8    D T1351      -6.525 -11.294  -7.239  1.00 28.40     0.042 C 
HETATM    2  C9    D T1351      -7.370 -11.556  -5.974  1.00 31.07     0.046 C 
HETATM    3  C10   D T1351      -7.901 -12.979  -5.883  1.00 30.89     0.291 C 
HETATM    4  N11   D T1351      -6.757 -13.933  -5.929  1.00 29.44     0.339 N 
HETATM    5  C12   D T1351      -5.975 -13.785  -7.192  1.00 30.13     0.291 C 
HETATM    6  C13   D T1351      -5.427 -12.372  -7.276  1.00 30.34     0.046 C 
ENDROOT
BRANCH   1   7
HETATM    7  C5    D T1351      -7.376 -11.260  -8.520  1.00 28.95    -0.019 A 
HETATM    8  C4    D T1351      -8.496 -10.437  -8.608  1.00 28.71    -0.003 A 
HETATM    9  C3    D T1351      -9.246 -10.393  -9.762  1.00 30.92     0.011 A 
HETATM   10  C2    D T1351      -8.880 -11.150 -10.860  1.00 30.64     0.058 A 
HETATM   11 CL1    D T1351      -9.829 -11.086 -12.311  1.00 40.18    -0.082 Cl
HETATM   12  C7    D T1351      -7.765 -11.970 -10.787  1.00 32.16     0.011 A 
HETATM   13  C6    D T1351      -7.014 -12.019  -9.630  1.00 28.80    -0.003 A 
ENDBRANCH   1   7
BRANCH   1  14
HETATM   14  C14   D T1351      -5.892  -9.908  -7.016  1.00 30.67    -0.019 A 
HETATM   15  C15   D T1351      -4.551  -9.658  -7.292  1.00 28.60    -0.004 A 
HETATM   16  C16   D T1351      -4.004  -8.418  -7.039  1.00 33.11    -0.000 A 
HETATM   17  C17   D T1351      -4.786  -7.393  -6.520  1.00 31.57     0.003 A 
HETATM   18  C18   D T1351      -6.115  -7.650  -6.223  1.00 28.36    -0.000 A 
HETATM   19  C19   D T1351      -6.662  -8.889  -6.468  1.00 26.27    -0.004 A 
BRANCH  17  20
HETATM   20  C20   D T1351      -4.191  -6.095  -6.178  1.00 34.09     0.042 A 
HETATM   21  C21   D T1351      -3.094  -5.857  -5.339  1.00 35.67     0.124 A 
HETATM   22  N22   D T1351      -2.871  -4.551  -5.191  1.00 33.11    -0.146 NA
HETATM   23  N23   D T1351      -3.857  -3.944  -5.898  1.00 34.31    -0.146 NA
HETATM   24  C24   D T1351      -4.669  -4.845  -6.484  1.00 32.13     0.124 A 
ENDBRANCH  17  20
ENDBRANCH   1  14
TORSDOF 3
ENDMDL
MODEL 7
REMARK VINA RESULT:    -6.632      3.896      7.465
REMARK INTER + INTRA:          -8.528
REMARK INTER:                  -7.561
REMARK INTRA:                  -0.967
REMARK UNBOUND:                -0.733
REMARK  3 active torsions:
REMARK  status: ('A' for Active; 'I' for Inactive)
REMARK    1  A    between atoms: C5_5  and  C8_8 
REMARK    2  A    between atoms: C8_8  and  C14_14 
REMARK    3  A    between atoms: C17_17  and  C20_20 
ROOT
HETATM    1  C8    D T1351      -6.426  -2.097  -6.206  1.00 28.40     0.042 C 
HETATM    2  C9    D T1351      -5.558  -2.157  -4.931  1.00 31.07     0.046 C 
HETATM    3  C10   D T1351      -4.154  -2.687  -5.176  1.00 30.89     0.291 C 
HETATM    4  N11   D T1351      -3.482  -1.841  -6.202  1.00 29.44     0.339 N 
HETATM    5  C12   D T1351      -4.236  -1.844  -7.490  1.00 30.13     0.291 C 
HETATM    6  C13   D T1351      -5.631  -1.296  -7.253  1.00 30.34     0.046 C 
ENDROOT
BRANCH   1   7
HETATM    7  C5    D T1351      -6.836  -3.493  -6.705  1.00 28.95    -0.019 A 
HETATM    8  C4    D T1351      -6.582  -4.626  -5.935  1.00 28.71    -0.003 A 
HETATM    9  C3    D T1351      -6.968  -5.873  -6.374  1.00 30.92     0.011 A 
HETATM   10  C2    D T1351      -7.636  -6.013  -7.576  1.00 30.64     0.058 A 
HETATM   11 CL1    D T1351      -8.122  -7.588  -8.119  1.00 40.18    -0.082 Cl
HETATM   12  C7    D T1351      -7.900  -4.893  -8.349  1.00 32.16     0.011 A 
HETATM   13  C6    D T1351      -7.512  -3.642  -7.914  1.00 28.80    -0.003 A 
ENDBRANCH   1   7
BRANCH   1  14
HETATM   14  C14   D T1351      -7.687  -1.316  -5.795  1.00 30.67    -0.019 A 
HETATM   15  C15   D T1351      -8.491  -1.720  -4.732  1.00 28.60    -0.004 A 
HETATM   16  C16   D T1351      -9.638  -1.024  -4.419  1.00 33.11    -0.000 A 
HETATM   17  C17   D T1351     -10.004   0.102  -5.147  1.00 31.57     0.003 A 
HETATM   18  C18   D T1351      -9.217   0.490  -6.220  1.00 28.36    -0.000 A 
HETATM   19  C19   D T1351      -8.074  -0.208  -6.539  1.00 26.27    -0.004 A 
BRANCH  17  20
HETATM   20  C20   D T1351     -11.263   0.802  -4.865  1.00 34.09     0.042 A 
HETATM   21  C21   D T1351     -12.565   0.317  -5.052  1.00 35.67     0.124 A 
HETATM   22  N22   D T1351     -13.474   1.249  -4.763  1.00 33.11    -0.146 NA
HETATM   23  N23   D T1351     -12.756   2.353  -4.436  1.00 34.31    -0.146 NA
HETATM   24  C24   D T1351     -11.432   2.116  -4.505  1.00 32.13     0.124 A 
ENDBRANCH  17  20
ENDBRANCH   1  14
TORSDOF 3
ENDMDL
MODEL 8
REMARK VINA RESULT:    -6.583      3.770      8.423
REMARK INTER + INTRA:          -8.470
REMARK INTER:                  -7.680
REMARK INTRA:                  -0.790
REMARK UNBOUND:                -0.733
REMARK  3 active torsions:
REMARK  status: ('A' for Active; 'I' for Inactive)
REMARK    1  A    between atoms: C5_5  and  C8_8 
REMARK    2  A    between atoms: C8_8  and  C14_14 
REMARK    3  A    between atoms: C17_17  and  C20_20 
ROOT
HETATM    1  C8    D T1351      -6.456 -11.225  -7.718  1.00 28.40     0.042 C 
HETATM    2  C9    D T1351      -6.276 -12.196  -6.532  1.00 31.07     0.046 C 
HETATM    3  C10   D T1351      -6.585 -13.644  -6.881  1.00 30.89     0.291 C 
HETATM    4  N11   D T1351      -5.718 -14.071  -8.016  1.00 29.44     0.339 N 
HETATM    5  C12   D T1351      -5.941 -13.221  -9.222  1.00 30.13     0.291 C 
HETATM    6  C13   D T1351      -5.614 -11.778  -8.883  1.00 30.34     0.046 C 
ENDROOT
BRANCH   1   7
HETATM    7  C5    D T1351      -7.934 -11.018  -8.091  1.00 28.95    -0.019 A 
HETATM    8  C4    D T1351      -8.289 -10.554  -9.356  1.00 28.71    -0.003 A 
HETATM    9  C3    D T1351      -9.614 -10.389  -9.695  1.00 30.92     0.011 A 
HETATM   10  C2    D T1351     -10.610 -10.705  -8.790  1.00 30.64     0.058 A 
HETATM   11 CL1    D T1351     -12.276 -10.496  -9.227  1.00 40.18    -0.082 Cl
HETATM   12  C7    D T1351     -10.269 -11.172  -7.530  1.00 32.16     0.011 A 
HETATM   13  C6    D T1351      -8.943 -11.336  -7.186  1.00 28.80    -0.003 A 
ENDBRANCH   1   7
BRANCH   1  14
HETATM   14  C14   D T1351      -5.865  -9.888  -7.233  1.00 30.67    -0.019 A 
HETATM   15  C15   D T1351      -6.665  -8.872  -6.718  1.00 28.60    -0.004 A 
HETATM   16  C16   D T1351      -6.110  -7.671  -6.335  1.00 33.11    -0.000 A 
HETATM   17  C17   D T1351      -4.741  -7.459  -6.439  1.00 31.57     0.003 A 
HETATM   18  C18   D T1351      -3.947  -8.461  -6.975  1.00 28.36    -0.000 A 
HETATM   19  C19   D T1351      -4.500  -9.660  -7.365  1.00 26.27    -0.004 A 
BRANCH  17  20
HETATM   20  C20   D T1351      -4.155  -6.156  -6.103  1.00 34.09     0.042 A 
HETATM   21  C21   D T1351      -3.081  -5.904  -5.239  1.00 35.67     0.124 A 
HETATM   22  N22   D T1351      -2.862  -4.595  -5.107  1.00 33.11    -0.146 NA
HETATM   23  N23   D T1351      -3.829  -4.000  -5.850  1.00 34.31    -0.146 NA
HETATM   24  C24   D T1351      -4.625  -4.910  -6.442  1.00 32.13     0.124 A 
ENDBRANCH  17  20
ENDBRANCH   1  14
TORSDOF 3
ENDMDL
MODEL 9
REMARK VINA RESULT:    -6.422      5.086      7.730
REMARK INTER + INTRA:          -8.281
REMARK INTER:                  -7.460
REMARK INTRA:                  -0.822
REMARK UNBOUND:                -0.733
REMARK  3 active torsions:
REMARK  status: ('A' for Active; 'I' for Inactive)
REMARK    1  A    between atoms: C5_5  and  C8_8 
REMARK    2  A    between atoms: C8_8  and  C14_14 
REMARK    3  A    between atoms: C17_17  and  C20_20 
ROOT
HETATM    1  C8    D T1351      -9.903   2.439  -6.551  1.00 28.40     0.042 C 
HETATM    2  C9    D T1351     -10.326   2.498  -5.067  1.00 31.07     0.046 C 
HETATM    3  C10   D T1351     -11.338   3.593  -4.768  1.00 30.89     0.291 C 
HETATM    4  N11   D T1351     -12.540   3.398  -5.626  1.00 29.44     0.339 N 
HETATM    5  C12   D T1351     -12.189   3.444  -7.075  1.00 30.13     0.291 C 
HETATM    6  C13   D T1351     -11.195   2.339  -7.382  1.00 30.34     0.046 C 
ENDROOT
BRANCH   1   7
HETATM    7  C5    D T1351      -9.018   3.630  -6.958  1.00 28.95    -0.019 A 
HETATM    8  C4    D T1351      -9.165   4.230  -8.207  1.00 28.71    -0.003 A 
HETATM    9  C3    D T1351      -8.387   5.309  -8.562  1.00 30.92     0.011 A 
HETATM   10  C2    D T1351      -7.463   5.825  -7.672  1.00 30.64     0.058 A 
HETATM   11 CL1    D T1351      -6.488   7.186  -8.128  1.00 40.18    -0.082 Cl
HETATM   12  C7    D T1351      -7.311   5.240  -6.425  1.00 32.16     0.011 A 
HETATM   13  C6    D T1351      -8.087   4.157  -6.067  1.00 28.80    -0.003 A 
ENDBRANCH   1   7
BRANCH   1  14
HETATM   14  C14   D T1351      -9.091   1.138  -6.683  1.00 30.67    -0.019 A 
HETATM   15  C15   D T1351      -9.228   0.088  -5.778  1.00 28.60    -0.004 A 
HETATM   16  C16   D T1351      -8.454  -1.045  -5.899  1.00 33.11    -0.000 A 
HETATM   17  C17   D T1351      -7.536  -1.168  -6.936  1.00 31.57     0.003 A 
HETATM   18  C18   D T1351      -7.383  -0.113  -7.822  1.00 28.36    -0.000 A 
HETATM   19  C19   D T1351      -8.151   1.023  -7.700  1.00 26.27    -0.004 A 
BRANCH  17  20
HETATM   20  C20   D T1351      -6.657  -2.340  -7.025  1.00 34.09     0.042 A 
HETATM   21  C21   D T1351      -5.256  -2.354  -7.012  1.00 35.67     0.124 A 
HETATM   22  N22   D T1351      -4.782  -3.588  -7.189  1.00 33.11    -0.146 NA
HETATM   23  N23   D T1351      -5.880  -4.364  -7.366  1.00 34.31    -0.146 NA
HETATM   24  C24   D T1351      -7.013  -3.639  -7.289  1.00 32.13     0.124 A 
ENDBRANCH  17  20
ENDBRANCH   1  14
TORSDOF 3
ENDMDL
