MODEL 1
REMARK VINA RESULT:    -8.042      0.000      0.000
REMARK INTER + INTRA:         -10.414
REMARK INTER:                  -9.452
REMARK INTRA:                  -0.962
REMARK UNBOUND:                -0.962
REMARK  3 active torsions:
REMARK  status: ('A' for Active; 'I' for Inactive)
REMARK    1  A    between atoms: C5_5  and  C8_8 
REMARK    2  A    between atoms: C8_8  and  C14_14 
REMARK    3  A    between atoms: C17_17  and  C20_20 
ROOT
HETATM    1  C8    D T1480       8.972   2.926  -4.161  1.00 24.84     0.042 C 
HETATM    2  C9    D T1480      10.451   2.750  -4.576  1.00 24.83     0.046 C 
HETATM    3  C10   D T1480      10.706   1.450  -5.307  1.00 24.63     0.291 C 
HETATM    4  N11   D T1480      10.408   0.393  -4.305  1.00 23.69     0.339 N 
HETATM    5  C12   D T1480       8.938   0.375  -4.068  1.00 25.57     0.291 C 
HETATM    6  C13   D T1480       8.539   1.670  -3.386  1.00 27.98     0.046 C 
ENDROOT
BRANCH   1   7
HETATM    7  C5    D T1480       8.922   4.082  -3.162  1.00 27.86    -0.019 A 
HETATM    8  C4    D T1480       9.871   5.102  -3.199  1.00 28.73    -0.003 A 
HETATM    9  C3    D T1480       9.834   6.127  -2.280  1.00 37.49     0.011 A 
HETATM   10  C2    D T1480       8.854   6.146  -1.305  1.00 34.69     0.058 A 
HETATM   11 CL1    D T1480       8.813   7.427  -0.140  1.00 50.48    -0.082 Cl
HETATM   12  C7    D T1480       7.923   5.120  -1.246  1.00 40.09     0.011 A 
HETATM   13  C6    D T1480       7.964   4.088  -2.162  1.00 30.28    -0.003 A 
ENDBRANCH   1   7
BRANCH   1  14
HETATM   14  C14   D T1480       8.101   3.223  -5.400  1.00 24.09    -0.019 A 
HETATM   15  C15   D T1480       8.432   4.165  -6.368  1.00 24.10    -0.004 A 
HETATM   16  C16   D T1480       7.591   4.391  -7.449  1.00 25.21    -0.000 A 
HETATM   17  C17   D T1480       6.410   3.673  -7.585  1.00 22.67     0.003 A 
HETATM   18  C18   D T1480       6.091   2.736  -6.625  1.00 26.22    -0.000 A 
HETATM   19  C19   D T1480       6.922   2.511  -5.554  1.00 25.71    -0.004 A 
BRANCH  17  20
HETATM   20  C20   D T1480       5.478   3.892  -8.699  1.00 20.81     0.042 A 
HETATM   21  C21   D T1480       4.627   4.971  -8.926  1.00 10.94     0.124 A 
HETATM   22  N22   D T1480       3.888   4.792 -10.040  1.00 19.16    -0.146 NA
HETATM   23  N23   D T1480       4.248   3.569 -10.528  1.00 25.24    -0.146 NA
HETATM   24  C24   D T1480       5.194   2.994  -9.740  1.00 21.20     0.124 A 
ENDBRANCH  17  20
ENDBRANCH   1  14
TORSDOF 3
ENDMDL
MODEL 2
REMARK VINA RESULT:    -7.808      0.525      1.457
REMARK INTER + INTRA:         -10.139
REMARK INTER:                  -9.180
REMARK INTRA:                  -0.959
REMARK UNBOUND:                -0.962
REMARK  3 active torsions:
REMARK  status: ('A' for Active; 'I' for Inactive)
REMARK    1  A    between atoms: C5_5  and  C8_8 
REMARK    2  A    between atoms: C8_8  and  C14_14 
REMARK    3  A    between atoms: C17_17  and  C20_20 
ROOT
HETATM    1  C8    D T1480       9.071   3.251  -3.893  1.00 24.84     0.042 C 
HETATM    2  C9    D T1480      10.499   3.019  -4.436  1.00 24.83     0.046 C 
HETATM    3  C10   D T1480      10.678   1.649  -5.054  1.00 24.63     0.291 C 
HETATM    4  N11   D T1480      10.483   0.702  -3.925  1.00 23.69     0.339 N 
HETATM    5  C12   D T1480       9.045   0.724  -3.540  1.00 25.57     0.291 C 
HETATM    6  C13   D T1480       8.718   2.085  -2.956  1.00 27.98     0.046 C 
ENDROOT
BRANCH   1   7
HETATM    7  C5    D T1480       9.123   4.503  -3.017  1.00 27.86    -0.019 A 
HETATM    8  C4    D T1480       8.321   4.618  -1.883  1.00 28.73    -0.003 A 
HETATM    9  C3    D T1480       8.355   5.759  -1.114  1.00 37.49     0.011 A 
HETATM   10  C2    D T1480       9.184   6.807  -1.468  1.00 34.69     0.058 A 
HETATM   11 CL1    D T1480       9.219   8.249  -0.509  1.00 50.48    -0.082 Cl
HETATM   12  C7    D T1480       9.965   6.710  -2.610  1.00 40.09     0.011 A 
HETATM   13  C6    D T1480       9.926   5.570  -3.387  1.00 30.28    -0.003 A 
ENDBRANCH   1   7
BRANCH   1  14
HETATM   14  C14   D T1480       8.079   3.432  -5.061  1.00 24.09    -0.019 A 
HETATM   15  C15   D T1480       6.773   2.952  -5.048  1.00 24.10    -0.004 A 
HETATM   16  C16   D T1480       5.941   3.139  -6.143  1.00 25.21    -0.000 A 
HETATM   17  C17   D T1480       6.396   3.816  -7.266  1.00 22.67     0.003 A 
HETATM   18  C18   D T1480       7.689   4.295  -7.271  1.00 26.22    -0.000 A 
HETATM   19  C19   D T1480       8.515   4.111  -6.189  1.00 25.71    -0.004 A 
BRANCH  17  20
HETATM   20  C20   D T1480       5.560   4.019  -8.457  1.00 20.81     0.042 A 
HETATM   21  C21   D T1480       4.622   5.018  -8.705  1.00 10.94     0.124 A 
HETATM   22  N22   D T1480       4.020   4.846  -9.900  1.00 19.16    -0.146 NA
HETATM   23  N23   D T1480       4.559   3.706 -10.422  1.00 25.24    -0.146 NA
HETATM   24  C24   D T1480       5.480   3.175  -9.576  1.00 21.20     0.124 A 
ENDBRANCH  17  20
ENDBRANCH   1  14
TORSDOF 3
ENDMDL
MODEL 3
REMARK VINA RESULT:    -7.397      1.581      2.397
REMARK INTER + INTRA:          -9.656
REMARK INTER:                  -8.699
REMARK INTRA:                  -0.957
REMARK UNBOUND:                -0.962
REMARK  3 active torsions:
REMARK  status: ('A' for Active; 'I' for Inactive)
REMARK    1  A    between atoms: C5_5  and  C8_8 
REMARK    2  A    between atoms: C8_8  and  C14_14 
REMARK    3  A    between atoms: C17_17  and  C20_20 
ROOT
HETATM    1  C8    D T1480       9.153   4.021  -2.450  1.00 24.84     0.042 C 
HETATM    2  C9    D T1480      10.574   3.485  -2.733  1.00 24.83     0.046 C 
HETATM    3  C10   D T1480      10.608   1.985  -2.933  1.00 24.63     0.291 C 
HETATM    4  N11   D T1480      10.184   1.423  -1.624  1.00 23.69     0.339 N 
HETATM    5  C12   D T1480       8.737   1.716  -1.436  1.00 25.57     0.291 C 
HETATM    6  C13   D T1480       8.559   3.215  -1.283  1.00 27.98     0.046 C 
ENDROOT
BRANCH   1   7
HETATM    7  C5    D T1480       9.308   5.455  -1.942  1.00 27.86    -0.019 A 
HETATM    8  C4    D T1480       8.444   5.971  -0.978  1.00 28.73    -0.003 A 
HETATM    9  C3    D T1480       8.575   7.272  -0.545  1.00 37.49     0.011 A 
HETATM   10  C2    D T1480       9.563   8.080  -1.073  1.00 34.69     0.058 A 
HETATM   11 CL1    D T1480       9.721   9.720  -0.540  1.00 50.48    -0.082 Cl
HETATM   12  C7    D T1480      10.410   7.581  -2.052  1.00 40.09     0.011 A 
HETATM   13  C6    D T1480      10.275   6.280  -2.493  1.00 30.28    -0.003 A 
ENDBRANCH   1   7
BRANCH   1  14
HETATM   14  C14   D T1480       8.299   3.976  -3.734  1.00 24.09    -0.019 A 
HETATM   15  C15   D T1480       6.941   3.675  -3.750  1.00 24.10    -0.004 A 
HETATM   16  C16   D T1480       6.240   3.638  -4.947  1.00 25.21    -0.000 A 
HETATM   17  C17   D T1480       6.882   3.909  -6.148  1.00 22.67     0.003 A 
HETATM   18  C18   D T1480       8.227   4.211  -6.125  1.00 26.22    -0.000 A 
HETATM   19  C19   D T1480       8.923   4.249  -4.942  1.00 25.71    -0.004 A 
BRANCH  17  20
HETATM   20  C20   D T1480       6.187   3.860  -7.442  1.00 20.81     0.042 A 
HETATM   21  C21   D T1480       5.441   4.854  -8.070  1.00 10.94     0.124 A 
HETATM   22  N22   D T1480       4.919   4.419  -9.235  1.00 19.16    -0.146 NA
HETATM   23  N23   D T1480       5.312   3.117  -9.351  1.00 25.24    -0.146 NA
HETATM   24  C24   D T1480       6.067   2.743  -8.284  1.00 21.20     0.124 A 
ENDBRANCH  17  20
ENDBRANCH   1  14
TORSDOF 3
ENDMDL
MODEL 4
REMARK VINA RESULT:    -7.393      2.816      4.172
REMARK INTER + INTRA:          -9.651
REMARK INTER:                  -8.816
REMARK INTRA:                  -0.835
REMARK UNBOUND:                -0.962
REMARK  3 active torsions:
REMARK  status: ('A' for Active; 'I' for Inactive)
REMARK    1  A    between atoms: C5_5  and  C8_8 
REMARK    2  A    between atoms: C8_8  and  C14_14 
REMARK    3  A    between atoms: C17_17  and  C20_20 
ROOT
HETATM    1  C8    D T1480       9.302   3.528  -3.034  1.00 24.84     0.042 C 
HETATM    2  C9    D T1480       8.350   3.469  -1.818  1.00 24.83     0.046 C 
HETATM    3  C10   D T1480       7.670   4.791  -1.538  1.00 24.63     0.291 C 
HETATM    4  N11   D T1480       8.780   5.712  -1.176  1.00 23.69     0.339 N 
HETATM    5  C12   D T1480       9.579   5.986  -2.402  1.00 25.57     0.291 C 
HETATM    6  C13   D T1480      10.270   4.704  -2.828  1.00 27.98     0.046 C 
ENDROOT
BRANCH   1   7
HETATM    7  C5    D T1480      10.156   2.260  -2.996  1.00 27.86    -0.019 A 
HETATM    8  C4    D T1480      10.276   1.445  -4.120  1.00 28.73    -0.003 A 
HETATM    9  C3    D T1480      11.027   0.291  -4.071  1.00 37.49     0.011 A 
HETATM   10  C2    D T1480      11.661  -0.071  -2.897  1.00 34.69     0.058 A 
HETATM   11 CL1    D T1480      12.594  -1.529  -2.829  1.00 50.48    -0.082 Cl
HETATM   12  C7    D T1480      11.523   0.721  -1.768  1.00 40.09     0.011 A 
HETATM   13  C6    D T1480      10.765   1.874  -1.814  1.00 30.28    -0.003 A 
ENDBRANCH   1   7
BRANCH   1  14
HETATM   14  C14   D T1480       8.490   3.613  -4.344  1.00 24.09    -0.019 A 
HETATM   15  C15   D T1480       8.930   4.278  -5.484  1.00 24.10    -0.004 A 
HETATM   16  C16   D T1480       8.139   4.326  -6.622  1.00 25.21    -0.000 A 
HETATM   17  C17   D T1480       6.897   3.703  -6.645  1.00 22.67     0.003 A 
HETATM   18  C18   D T1480       6.470   3.040  -5.514  1.00 26.22    -0.000 A 
HETATM   19  C19   D T1480       7.252   2.991  -4.385  1.00 25.71    -0.004 A 
BRANCH  17  20
HETATM   20  C20   D T1480       6.015   3.745  -7.818  1.00 20.81     0.042 A 
HETATM   21  C21   D T1480       5.755   2.744  -8.751  1.00 10.94     0.124 A 
HETATM   22  N22   D T1480       4.918   3.174  -9.717  1.00 19.16    -0.146 NA
HETATM   23  N23   D T1480       4.653   4.479  -9.420  1.00 25.24    -0.146 NA
HETATM   24  C24   D T1480       5.305   4.860  -8.291  1.00 21.20     0.124 A 
ENDBRANCH  17  20
ENDBRANCH   1  14
TORSDOF 3
ENDMDL
MODEL 5
REMARK VINA RESULT:    -7.263      3.539      6.785
REMARK INTER + INTRA:          -9.498
REMARK INTER:                  -8.896
REMARK INTRA:                  -0.602
REMARK UNBOUND:                -0.962
REMARK  3 active torsions:
REMARK  status: ('A' for Active; 'I' for Inactive)
REMARK    1  A    between atoms: C5_5  and  C8_8 
REMARK    2  A    between atoms: C8_8  and  C14_14 
REMARK    3  A    between atoms: C17_17  and  C20_20 
ROOT
HETATM    1  C8    D T1480       7.604   2.398  -5.717  1.00 24.84     0.042 C 
HETATM    2  C9    D T1480       6.620   1.623  -4.811  1.00 24.83     0.046 C 
HETATM    3  C10   D T1480       7.321   0.711  -3.828  1.00 24.63     0.291 C 
HETATM    4  N11   D T1480       8.012  -0.294  -4.677  1.00 23.69     0.339 N 
HETATM    5  C12   D T1480       9.135   0.383  -5.382  1.00 25.57     0.291 C 
HETATM    6  C13   D T1480       8.559   1.383  -6.367  1.00 27.98     0.046 C 
ENDROOT
BRANCH   1   7
HETATM    7  C5    D T1480       6.782   3.002  -6.856  1.00 27.86    -0.019 A 
HETATM    8  C4    D T1480       6.306   4.309  -6.781  1.00 28.73    -0.003 A 
HETATM    9  C3    D T1480       5.546   4.837  -7.800  1.00 37.49     0.011 A 
HETATM   10  C2    D T1480       5.241   4.066  -8.906  1.00 34.69     0.058 A 
HETATM   11 CL1    D T1480       4.273   4.724 -10.183  1.00 50.48    -0.082 Cl
HETATM   12  C7    D T1480       5.689   2.756  -8.975  1.00 40.09     0.011 A 
HETATM   13  C6    D T1480       6.444   2.223  -7.951  1.00 30.28    -0.003 A 
ENDBRANCH   1   7
BRANCH   1  14
HETATM   14  C14   D T1480       8.323   3.497  -4.907  1.00 24.09    -0.019 A 
HETATM   15  C15   D T1480       9.339   4.296  -5.422  1.00 24.10    -0.004 A 
HETATM   16  C16   D T1480       9.952   5.257  -4.629  1.00 25.21    -0.000 A 
HETATM   17  C17   D T1480       9.554   5.441  -3.311  1.00 22.67     0.003 A 
HETATM   18  C18   D T1480       8.543   4.649  -2.809  1.00 26.22    -0.000 A 
HETATM   19  C19   D T1480       7.934   3.698  -3.591  1.00 25.71    -0.004 A 
BRANCH  17  20
HETATM   20  C20   D T1480      10.187   6.428  -2.427  1.00 20.81     0.042 A 
HETATM   21  C21   D T1480      11.236   6.249  -1.527  1.00 10.94     0.124 A 
HETATM   22  N22   D T1480      11.513   7.387  -0.859  1.00 19.16    -0.146 NA
HETATM   23  N23   D T1480      10.616   8.309  -1.314  1.00 25.24    -0.146 NA
HETATM   24  C24   D T1480       9.795   7.764  -2.250  1.00 21.20     0.124 A 
ENDBRANCH  17  20
ENDBRANCH   1  14
TORSDOF 3
ENDMDL
MODEL 6
REMARK VINA RESULT:    -7.079      3.997      5.428
REMARK INTER + INTRA:          -9.282
REMARK INTER:                  -8.201
REMARK INTRA:                  -1.081
REMARK UNBOUND:                -0.962
REMARK  3 active torsions:
REMARK  status: ('A' for Active; 'I' for Inactive)
REMARK    1  A    between atoms: C5_5  and  C8_8 
REMARK    2  A    between atoms: C8_8  and  C14_14 
REMARK    3  A    between atoms: C17_17  and  C20_20 
ROOT
HETATM    1  C8    D T1480       9.984   2.604  -0.898  1.00 24.84     0.042 C 
HETATM    2  C9    D T1480       8.928   3.399  -0.098  1.00 24.83     0.046 C 
HETATM    3  C10   D T1480       8.779   4.827  -0.577  1.00 24.63     0.291 C 
HETATM    4  N11   D T1480      10.098   5.454  -0.298  1.00 23.69     0.339 N 
HETATM    5  C12   D T1480      11.098   4.876  -1.236  1.00 25.57     0.291 C 
HETATM    6  C13   D T1480      11.293   3.410  -0.897  1.00 27.98     0.046 C 
ENDROOT
BRANCH   1   7
HETATM    7  C5    D T1480      10.270   1.323  -0.113  1.00 27.86    -0.019 A 
HETATM    8  C4    D T1480       9.472   0.952   0.967  1.00 28.73    -0.003 A 
HETATM    9  C3    D T1480       9.751  -0.189   1.684  1.00 37.49     0.011 A 
HETATM   10  C2    D T1480      10.836  -0.973   1.341  1.00 34.69     0.058 A 
HETATM   11 CL1    D T1480      11.197  -2.403   2.250  1.00 50.48    -0.082 Cl
HETATM   12  C7    D T1480      11.650  -0.596   0.284  1.00 40.09     0.011 A 
HETATM   13  C6    D T1480      11.376   0.553  -0.431  1.00 30.28    -0.003 A 
ENDBRANCH   1   7
BRANCH   1  14
HETATM   14  C14   D T1480       9.453   2.283  -2.311  1.00 24.09    -0.019 A 
HETATM   15  C15   D T1480      10.197   2.453  -3.474  1.00 24.10    -0.004 A 
HETATM   16  C16   D T1480       9.648   2.157  -4.713  1.00 25.21    -0.000 A 
HETATM   17  C17   D T1480       8.348   1.678  -4.812  1.00 22.67     0.003 A 
HETATM   18  C18   D T1480       7.618   1.506  -3.655  1.00 26.22    -0.000 A 
HETATM   19  C19   D T1480       8.159   1.798  -2.427  1.00 25.71    -0.004 A 
BRANCH  17  20
HETATM   20  C20   D T1480       7.716   1.373  -6.102  1.00 20.81     0.042 A 
HETATM   21  C21   D T1480       6.905   2.185  -6.891  1.00 10.94     0.124 A 
HETATM   22  N22   D T1480       6.476   1.535  -7.992  1.00 19.16    -0.146 NA
HETATM   23  N23   D T1480       6.997   0.277  -7.903  1.00 25.24    -0.146 NA
HETATM   24  C24   D T1480       7.739   0.140  -6.773  1.00 21.20     0.124 A 
ENDBRANCH  17  20
ENDBRANCH   1  14
TORSDOF 3
ENDMDL
MODEL 7
REMARK VINA RESULT:    -6.919      4.370      7.001
REMARK INTER + INTRA:          -9.094
REMARK INTER:                  -8.131
REMARK INTRA:                  -0.963
REMARK UNBOUND:                -0.962
REMARK  3 active torsions:
REMARK  status: ('A' for Active; 'I' for Inactive)
REMARK    1  A    between atoms: C5_5  and  C8_8 
REMARK    2  A    between atoms: C8_8  and  C14_14 
REMARK    3  A    between atoms: C17_17  and  C20_20 
ROOT
HETATM    1  C8    D T1480       9.034   3.362  -2.557  1.00 24.84     0.042 C 
HETATM    2  C9    D T1480       8.276   2.641  -1.420  1.00 24.83     0.046 C 
HETATM    3  C10   D T1480       9.107   2.487  -0.165  1.00 24.63     0.291 C 
HETATM    4  N11   D T1480      10.231   1.601  -0.567  1.00 23.69     0.339 N 
HETATM    5  C12   D T1480      11.123   2.365  -1.481  1.00 25.57     0.291 C 
HETATM    6  C13   D T1480      10.375   2.642  -2.772  1.00 27.98     0.046 C 
ENDROOT
BRANCH   1   7
HETATM    7  C5    D T1480       8.226   3.152  -3.838  1.00 27.86    -0.019 A 
HETATM    8  C4    D T1480       8.803   2.559  -4.960  1.00 28.73    -0.003 A 
HETATM    9  C3    D T1480       8.077   2.396  -6.117  1.00 37.49     0.011 A 
HETATM   10  C2    D T1480       6.766   2.830  -6.178  1.00 34.69     0.058 A 
HETATM   11 CL1    D T1480       5.854   2.639  -7.638  1.00 50.48    -0.082 Cl
HETATM   12  C7    D T1480       6.194   3.445  -5.074  1.00 40.09     0.011 A 
HETATM   13  C6    D T1480       6.924   3.616  -3.915  1.00 30.28    -0.003 A 
ENDBRANCH   1   7
BRANCH   1  14
HETATM   14  C14   D T1480       9.180   4.864  -2.233  1.00 24.09    -0.019 A 
HETATM   15  C15   D T1480       8.562   5.485  -1.153  1.00 24.10    -0.004 A 
HETATM   16  C16   D T1480       8.726   6.845  -0.932  1.00 25.21    -0.000 A 
HETATM   17  C17   D T1480       9.518   7.606  -1.782  1.00 22.67     0.003 A 
HETATM   18  C18   D T1480      10.133   6.983  -2.847  1.00 26.22    -0.000 A 
HETATM   19  C19   D T1480       9.972   5.637  -3.068  1.00 25.71    -0.004 A 
BRANCH  17  20
HETATM   20  C20   D T1480       9.704   9.052  -1.602  1.00 20.81     0.042 A 
HETATM   21  C21   D T1480      10.694   9.723  -0.886  1.00 10.94     0.124 A 
HETATM   22  N22   D T1480      10.507  11.058  -0.916  1.00 19.16    -0.146 NA
HETATM   23  N23   D T1480       9.367  11.254  -1.641  1.00 25.24    -0.146 NA
HETATM   24  C24   D T1480       8.851  10.068  -2.060  1.00 21.20     0.124 A 
ENDBRANCH  17  20
ENDBRANCH   1  14
TORSDOF 3
ENDMDL
MODEL 8
REMARK VINA RESULT:    -6.780      3.296      4.776
REMARK INTER + INTRA:          -8.931
REMARK INTER:                  -7.902
REMARK INTRA:                  -1.029
REMARK UNBOUND:                -0.962
REMARK  3 active torsions:
REMARK  status: ('A' for Active; 'I' for Inactive)
REMARK    1  A    between atoms: C5_5  and  C8_8 
REMARK    2  A    between atoms: C8_8  and  C14_14 
REMARK    3  A    between atoms: C17_17  and  C20_20 
ROOT
HETATM    1  C8    D T1480       9.495   3.855  -1.474  1.00 24.84     0.042 C 
HETATM    2  C9    D T1480       8.629   4.676  -0.492  1.00 24.83     0.046 C 
HETATM    3  C10   D T1480       8.439   6.110  -0.935  1.00 24.63     0.291 C 
HETATM    4  N11   D T1480       9.804   6.696  -0.905  1.00 23.69     0.339 N 
HETATM    5  C12   D T1480      10.596   6.094  -2.012  1.00 25.57     0.291 C 
HETATM    6  C13   D T1480      10.806   4.621  -1.715  1.00 27.98     0.046 C 
ENDROOT
BRANCH   1   7
HETATM    7  C5    D T1480       9.882   2.562  -0.755  1.00 27.86    -0.019 A 
HETATM    8  C4    D T1480       9.152   2.105   0.340  1.00 28.73    -0.003 A 
HETATM    9  C3    D T1480       9.522   0.953   0.997  1.00 37.49     0.011 A 
HETATM   10  C2    D T1480      10.632   0.244   0.578  1.00 34.69     0.058 A 
HETATM   11 CL1    D T1480      11.107  -1.198   1.411  1.00 50.48    -0.082 Cl
HETATM   12  C7    D T1480      11.379   0.707  -0.495  1.00 40.09     0.011 A 
HETATM   13  C6    D T1480      11.014   1.866  -1.149  1.00 30.28    -0.003 A 
ENDBRANCH   1   7
BRANCH   1  14
HETATM   14  C14   D T1480       8.703   3.557  -2.764  1.00 24.09    -0.019 A 
HETATM   15  C15   D T1480       7.350   3.235  -2.783  1.00 24.10    -0.004 A 
HETATM   16  C16   D T1480       6.705   2.964  -3.982  1.00 25.21    -0.000 A 
HETATM   17  C17   D T1480       7.400   3.018  -5.184  1.00 22.67     0.003 A 
HETATM   18  C18   D T1480       8.740   3.343  -5.158  1.00 26.22    -0.000 A 
HETATM   19  C19   D T1480       9.380   3.612  -3.973  1.00 25.71    -0.004 A 
BRANCH  17  20
HETATM   20  C20   D T1480       6.767   2.718  -6.475  1.00 20.81     0.042 A 
HETATM   21  C21   D T1480       6.241   1.511  -6.929  1.00 10.94     0.124 A 
HETATM   22  N22   D T1480       5.781   1.616  -8.192  1.00 19.16    -0.146 NA
HETATM   23  N23   D T1480       6.036   2.903  -8.570  1.00 25.24    -0.146 NA
HETATM   24  C24   D T1480       6.639   3.591  -7.566  1.00 21.20     0.124 A 
ENDBRANCH  17  20
ENDBRANCH   1  14
TORSDOF 3
ENDMDL
MODEL 9
REMARK VINA RESULT:    -6.721      3.941      5.468
REMARK INTER + INTRA:          -8.862
REMARK INTER:                  -7.836
REMARK INTRA:                  -1.026
REMARK UNBOUND:                -0.962
REMARK  3 active torsions:
REMARK  status: ('A' for Active; 'I' for Inactive)
REMARK    1  A    between atoms: C5_5  and  C8_8 
REMARK    2  A    between atoms: C8_8  and  C14_14 
REMARK    3  A    between atoms: C17_17  and  C20_20 
ROOT
HETATM    1  C8    D T1480      10.234   3.361  -0.325  1.00 24.84     0.042 C 
HETATM    2  C9    D T1480       9.539   4.253   0.728  1.00 24.83     0.046 C 
HETATM    3  C10   D T1480       9.721   5.731   0.459  1.00 24.63     0.291 C 
HETATM    4  N11   D T1480      11.184   5.958   0.595  1.00 23.69     0.339 N 
HETATM    5  C12   D T1480      11.867   5.309  -0.558  1.00 25.57     0.291 C 
HETATM    6  C13   D T1480      11.701   3.805  -0.438  1.00 27.98     0.046 C 
ENDROOT
BRANCH   1   7
HETATM    7  C5    D T1480      10.260   1.940   0.239  1.00 27.86    -0.019 A 
HETATM    8  C4    D T1480      11.372   1.119   0.061  1.00 28.73    -0.003 A 
HETATM    9  C3    D T1480      11.378  -0.168   0.550  1.00 37.49     0.011 A 
HETATM   10  C2    D T1480      10.271  -0.659   1.217  1.00 34.69     0.058 A 
HETATM   11 CL1    D T1480      10.271  -2.282   1.821  1.00 50.48    -0.082 Cl
HETATM   12  C7    D T1480       9.151   0.143   1.374  1.00 40.09     0.011 A 
HETATM   13  C6    D T1480       9.141   1.431   0.878  1.00 30.28    -0.003 A 
ENDBRANCH   1   7
BRANCH   1  14
HETATM   14  C14   D T1480       9.464   3.413  -1.662  1.00 24.09    -0.019 A 
HETATM   15  C15   D T1480       8.102   3.679  -1.759  1.00 24.10    -0.004 A 
HETATM   16  C16   D T1480       7.472   3.695  -2.996  1.00 25.21    -0.000 A 
HETATM   17  C17   D T1480       8.195   3.454  -4.157  1.00 22.67     0.003 A 
HETATM   18  C18   D T1480       9.546   3.197  -4.054  1.00 26.22    -0.000 A 
HETATM   19  C19   D T1480      10.171   3.181  -2.832  1.00 25.71    -0.004 A 
BRANCH  17  20
HETATM   20  C20   D T1480       7.569   3.438  -5.486  1.00 20.81     0.042 A 
HETATM   21  C21   D T1480       7.986   4.071  -6.655  1.00 10.94     0.124 A 
HETATM   22  N22   D T1480       7.122   3.856  -7.668  1.00 19.16    -0.146 NA
HETATM   23  N23   D T1480       6.120   3.094  -7.142  1.00 25.24    -0.146 NA
HETATM   24  C24   D T1480       6.349   2.834  -5.829  1.00 21.20     0.124 A 
ENDBRANCH  17  20
ENDBRANCH   1  14
TORSDOF 3
ENDMDL
