MODEL 1
REMARK VINA RESULT:    -9.443      0.000      0.000
REMARK INTER + INTRA:         -11.381
REMARK INTER:                 -11.099
REMARK INTRA:                  -0.281
REMARK UNBOUND:                -0.281
REMARK  3 active torsions:
REMARK  status: ('A' for Active; 'I' for Inactive)
REMARK    1  A    between atoms: C5_5  and  C8_8 
REMARK    2  A    between atoms: C8_8  and  C14_14 
REMARK    3  A    between atoms: C17_17  and  C20_20 
ROOT
HETATM    1  C8    D T1480       5.125  13.216  -0.376  1.00 24.84     0.042 C 
HETATM    2  C9    D T1480       5.654  14.667  -0.417  1.00 24.83     0.046 C 
HETATM    3  C10   D T1480       5.377  15.356  -1.735  1.00 24.63     0.291 C 
HETATM    4  N11   D T1480       6.157  14.581  -2.734  1.00 23.69     0.339 N 
HETATM    5  C12   D T1480       5.513  13.248  -2.899  1.00 25.57     0.291 C 
HETATM    6  C13   D T1480       5.670  12.471  -1.605  1.00 27.98     0.046 C 
ENDROOT
BRANCH   1   7
HETATM    7  C5    D T1480       5.754  12.544   0.845  1.00 27.86    -0.019 A 
HETATM    8  C4    D T1480       5.107  12.553   2.080  1.00 28.73    -0.003 A 
HETATM    9  C3    D T1480       5.693  11.968   3.181  1.00 37.49     0.011 A 
HETATM   10  C2    D T1480       6.935  11.373   3.069  1.00 34.69     0.058 A 
HETATM   11 CL1    D T1480       7.679  10.648   4.455  1.00 50.48    -0.082 Cl
HETATM   12  C7    D T1480       7.596  11.384   1.849  1.00 40.09     0.011 A 
HETATM   13  C6    D T1480       7.015  11.978   0.748  1.00 30.28    -0.003 A 
ENDBRANCH   1   7
BRANCH   1  14
HETATM   14  C14   D T1480       3.585  13.211  -0.279  1.00 24.09    -0.019 A 
HETATM   15  C15   D T1480       2.830  12.071  -0.024  1.00 24.10    -0.004 A 
HETATM   16  C16   D T1480       1.445  12.140   0.033  1.00 25.21    -0.000 A 
HETATM   17  C17   D T1480       0.791  13.351  -0.156  1.00 22.67     0.003 A 
HETATM   18  C18   D T1480       1.546  14.477  -0.402  1.00 26.22    -0.000 A 
HETATM   19  C19   D T1480       2.916  14.412  -0.459  1.00 25.71    -0.004 A 
BRANCH  17  20
HETATM   20  C20   D T1480      -0.673  13.470  -0.126  1.00 20.81     0.042 A 
HETATM   21  C21   D T1480      -1.569  13.492  -1.193  1.00 10.94     0.124 A 
HETATM   22  N22   D T1480      -2.838  13.658  -0.769  1.00 19.16    -0.146 NA
HETATM   23  N23   D T1480      -2.761  13.769   0.589  1.00 25.24    -0.146 NA
HETATM   24  C24   D T1480      -1.473  13.672   1.009  1.00 21.20     0.124 A 
ENDBRANCH  17  20
ENDBRANCH   1  14
TORSDOF 3
ENDMDL
MODEL 2
REMARK VINA RESULT:    -9.082      3.736      6.939
REMARK INTER + INTRA:         -10.956
REMARK INTER:                 -10.117
REMARK INTRA:                  -0.839
REMARK UNBOUND:                -0.281
REMARK  3 active torsions:
REMARK  status: ('A' for Active; 'I' for Inactive)
REMARK    1  A    between atoms: C5_5  and  C8_8 
REMARK    2  A    between atoms: C8_8  and  C14_14 
REMARK    3  A    between atoms: C17_17  and  C20_20 
ROOT
HETATM    1  C8    D T1480       4.807  14.154  -1.260  1.00 24.84     0.042 C 
HETATM    2  C9    D T1480       5.128  13.572  -2.655  1.00 24.83     0.046 C 
HETATM    3  C10   D T1480       6.469  14.027  -3.187  1.00 24.63     0.291 C 
HETATM    4  N11   D T1480       6.328  15.497  -3.351  1.00 23.69     0.339 N 
HETATM    5  C12   D T1480       6.265  16.115  -1.997  1.00 25.57     0.291 C 
HETATM    6  C13   D T1480       4.976  15.680  -1.325  1.00 27.98     0.046 C 
ENDROOT
BRANCH   1   7
HETATM    7  C5    D T1480       3.322  13.899  -0.999  1.00 27.86    -0.019 A 
HETATM    8  C4    D T1480       2.892  12.710  -0.413  1.00 28.73    -0.003 A 
HETATM    9  C3    D T1480       1.550  12.477  -0.205  1.00 37.49     0.011 A 
HETATM   10  C2    D T1480       0.618  13.423  -0.586  1.00 34.69     0.058 A 
HETATM   11 CL1    D T1480      -1.071  13.127  -0.338  1.00 50.48    -0.082 Cl
HETATM   12  C7    D T1480       1.037  14.597  -1.194  1.00 40.09     0.011 A 
HETATM   13  C6    D T1480       2.380  14.828  -1.411  1.00 30.28    -0.003 A 
ENDBRANCH   1   7
BRANCH   1  14
HETATM   14  C14   D T1480       5.683  13.477  -0.184  1.00 24.09    -0.019 A 
HETATM   15  C15   D T1480       6.479  12.364  -0.424  1.00 24.10    -0.004 A 
HETATM   16  C16   D T1480       7.229  11.798   0.598  1.00 25.21    -0.000 A 
HETATM   17  C17   D T1480       7.201  12.343   1.876  1.00 22.67     0.003 A 
HETATM   18  C18   D T1480       6.414  13.451   2.104  1.00 26.22    -0.000 A 
HETATM   19  C19   D T1480       5.672  14.011   1.095  1.00 25.71    -0.004 A 
BRANCH  17  20
HETATM   20  C20   D T1480       7.961  11.768   2.995  1.00 20.81     0.042 A 
HETATM   21  C21   D T1480       9.262  12.052   3.404  1.00 10.94     0.124 A 
HETATM   22  N22   D T1480       9.629  11.285   4.451  1.00 19.16    -0.146 NA
HETATM   23  N23   D T1480       8.560  10.476   4.708  1.00 25.24    -0.146 NA
HETATM   24  C24   D T1480       7.543  10.731   3.843  1.00 21.20     0.124 A 
ENDBRANCH  17  20
ENDBRANCH   1  14
TORSDOF 3
ENDMDL
MODEL 3
REMARK VINA RESULT:    -8.536      3.981      6.560
REMARK INTER + INTRA:         -10.315
REMARK INTER:                  -9.402
REMARK INTRA:                  -0.912
REMARK UNBOUND:                -0.281
REMARK  3 active torsions:
REMARK  status: ('A' for Active; 'I' for Inactive)
REMARK    1  A    between atoms: C5_5  and  C8_8 
REMARK    2  A    between atoms: C8_8  and  C14_14 
REMARK    3  A    between atoms: C17_17  and  C20_20 
ROOT
HETATM    1  C8    D T1480       4.654  13.693  -0.687  1.00 24.84     0.042 C 
HETATM    2  C9    D T1480       5.451  14.009   0.597  1.00 24.83     0.046 C 
HETATM    3  C10   D T1480       6.943  13.827   0.422  1.00 24.63     0.291 C 
HETATM    4  N11   D T1480       7.115  12.377   0.150  1.00 23.69     0.339 N 
HETATM    5  C12   D T1480       6.570  12.087  -1.205  1.00 25.57     0.291 C 
HETATM    6  C13   D T1480       5.067  12.296  -1.178  1.00 27.98     0.046 C 
ENDROOT
BRANCH   1   7
HETATM    7  C5    D T1480       3.182  13.586  -0.286  1.00 27.86    -0.019 A 
HETATM    8  C4    D T1480       2.170  13.937  -1.179  1.00 28.73    -0.003 A 
HETATM    9  C3    D T1480       0.847  13.863  -0.802  1.00 37.49     0.011 A 
HETATM   10  C2    D T1480       0.515  13.446   0.473  1.00 34.69     0.058 A 
HETATM   11 CL1    D T1480      -1.147  13.365   0.955  1.00 50.48    -0.082 Cl
HETATM   12  C7    D T1480       1.518  13.121   1.375  1.00 40.09     0.011 A 
HETATM   13  C6    D T1480       2.843  13.203   1.001  1.00 30.28    -0.003 A 
ENDBRANCH   1   7
BRANCH   1  14
HETATM   14  C14   D T1480       4.864  14.807  -1.735  1.00 24.09    -0.019 A 
HETATM   15  C15   D T1480       4.934  16.159  -1.421  1.00 24.10    -0.004 A 
HETATM   16  C16   D T1480       5.109  17.107  -2.420  1.00 25.21    -0.000 A 
HETATM   17  C17   D T1480       5.224  16.717  -3.749  1.00 22.67     0.003 A 
HETATM   18  C18   D T1480       5.160  15.375  -4.051  1.00 26.22    -0.000 A 
HETATM   19  C19   D T1480       4.987  14.435  -3.065  1.00 25.71    -0.004 A 
BRANCH  17  20
HETATM   20  C20   D T1480       5.389  17.685  -4.842  1.00 20.81     0.042 A 
HETATM   21  C21   D T1480       6.556  18.071  -5.499  1.00 10.94     0.124 A 
HETATM   22  N22   D T1480       6.312  19.020  -6.424  1.00 19.16    -0.146 NA
HETATM   23  N23   D T1480       4.972  19.271  -6.350  1.00 25.24    -0.146 NA
HETATM   24  C24   D T1480       4.388  18.494  -5.401  1.00 21.20     0.124 A 
ENDBRANCH  17  20
ENDBRANCH   1  14
TORSDOF 3
ENDMDL
MODEL 4
REMARK VINA RESULT:    -8.495      4.533      6.569
REMARK INTER + INTRA:         -10.266
REMARK INTER:                  -9.187
REMARK INTRA:                  -1.079
REMARK UNBOUND:                -0.281
REMARK  3 active torsions:
REMARK  status: ('A' for Active; 'I' for Inactive)
REMARK    1  A    between atoms: C5_5  and  C8_8 
REMARK    2  A    between atoms: C8_8  and  C14_14 
REMARK    3  A    between atoms: C17_17  and  C20_20 
ROOT
HETATM    1  C8    D T1480       5.591  15.668  -1.783  1.00 24.84     0.042 C 
HETATM    2  C9    D T1480       5.229  14.901  -3.074  1.00 24.83     0.046 C 
HETATM    3  C10   D T1480       6.351  14.010  -3.562  1.00 24.63     0.291 C 
HETATM    4  N11   D T1480       7.451  14.947  -3.908  1.00 23.69     0.339 N 
HETATM    5  C12   D T1480       7.990  15.522  -2.644  1.00 25.57     0.291 C 
HETATM    6  C13   D T1480       6.923  16.400  -2.016  1.00 27.98     0.046 C 
ENDROOT
BRANCH   1   7
HETATM    7  C5    D T1480       4.534  16.757  -1.598  1.00 27.86    -0.019 A 
HETATM    8  C4    D T1480       3.352  16.741  -2.338  1.00 28.73    -0.003 A 
HETATM    9  C3    D T1480       2.416  17.739  -2.184  1.00 37.49     0.011 A 
HETATM   10  C2    D T1480       2.647  18.772  -1.295  1.00 34.69     0.058 A 
HETATM   11 CL1    D T1480       1.477  20.036  -1.109  1.00 50.48    -0.082 Cl
HETATM   12  C7    D T1480       3.832  18.808  -0.575  1.00 40.09     0.011 A 
HETATM   13  C6    D T1480       4.775  17.814  -0.735  1.00 30.28    -0.003 A 
ENDBRANCH   1   7
BRANCH   1  14
HETATM   14  C14   D T1480       5.614  14.706  -0.577  1.00 24.09    -0.019 A 
HETATM   15  C15   D T1480       6.561  14.764   0.440  1.00 24.10    -0.004 A 
HETATM   16  C16   D T1480       6.529  13.853   1.487  1.00 25.21    -0.000 A 
HETATM   17  C17   D T1480       5.543  12.874   1.539  1.00 22.67     0.003 A 
HETATM   18  C18   D T1480       4.605  12.828   0.531  1.00 26.22    -0.000 A 
HETATM   19  C19   D T1480       4.636  13.727  -0.506  1.00 25.71    -0.004 A 
BRANCH  17  20
HETATM   20  C20   D T1480       5.481  11.876   2.615  1.00 20.81     0.042 A 
HETATM   21  C21   D T1480       4.360  11.360   3.263  1.00 10.94     0.124 A 
HETATM   22  N22   D T1480       4.707  10.490   4.232  1.00 19.16    -0.146 NA
HETATM   23  N23   D T1480       6.071  10.459   4.229  1.00 25.24    -0.146 NA
HETATM   24  C24   D T1480       6.570  11.290   3.277  1.00 21.20     0.124 A 
ENDBRANCH  17  20
ENDBRANCH   1  14
TORSDOF 3
ENDMDL
MODEL 5
REMARK VINA RESULT:    -8.299      4.121      6.293
REMARK INTER + INTRA:         -10.036
REMARK INTER:                  -9.004
REMARK INTRA:                  -1.032
REMARK UNBOUND:                -0.281
REMARK  3 active torsions:
REMARK  status: ('A' for Active; 'I' for Inactive)
REMARK    1  A    between atoms: C5_5  and  C8_8 
REMARK    2  A    between atoms: C8_8  and  C14_14 
REMARK    3  A    between atoms: C17_17  and  C20_20 
ROOT
HETATM    1  C8    D T1480       5.481  15.886  -1.906  1.00 24.84     0.042 C 
HETATM    2  C9    D T1480       5.496  17.363  -1.453  1.00 24.83     0.046 C 
HETATM    3  C10   D T1480       4.180  17.807  -0.854  1.00 24.63     0.291 C 
HETATM    4  N11   D T1480       3.206  17.706  -1.972  1.00 23.69     0.339 N 
HETATM    5  C12   D T1480       2.983  16.263  -2.269  1.00 25.57     0.291 C 
HETATM    6  C13   D T1480       4.268  15.678  -2.826  1.00 27.98     0.046 C 
ENDROOT
BRANCH   1   7
HETATM    7  C5    D T1480       6.719  15.673  -2.778  1.00 27.86    -0.019 A 
HETATM    8  C4    D T1480       6.855  14.526  -3.559  1.00 28.73    -0.003 A 
HETATM    9  C3    D T1480       7.985  14.328  -4.323  1.00 37.49     0.011 A 
HETATM   10  C2    D T1480       8.998  15.268  -4.312  1.00 34.69     0.058 A 
HETATM   11 CL1    D T1480      10.426  15.016  -5.260  1.00 50.48    -0.082 Cl
HETATM   12  C7    D T1480       8.881  16.398  -3.516  1.00 40.09     0.011 A 
HETATM   13  C6    D T1480       7.754  16.593  -2.744  1.00 30.28    -0.003 A 
ENDBRANCH   1   7
BRANCH   1  14
HETATM   14  C14   D T1480       5.499  14.950  -0.679  1.00 24.09    -0.019 A 
HETATM   15  C15   D T1480       6.286  15.166   0.446  1.00 24.10    -0.004 A 
HETATM   16  C16   D T1480       6.263  14.271   1.507  1.00 25.21    -0.000 A 
HETATM   17  C17   D T1480       5.445  13.148   1.463  1.00 22.67     0.003 A 
HETATM   18  C18   D T1480       4.663  12.944   0.347  1.00 26.22    -0.000 A 
HETATM   19  C19   D T1480       4.685  13.828  -0.703  1.00 25.71    -0.004 A 
BRANCH  17  20
HETATM   20  C20   D T1480       5.401  12.161   2.551  1.00 20.81     0.042 A 
HETATM   21  C21   D T1480       6.458  11.491   3.164  1.00 10.94     0.124 A 
HETATM   22  N22   D T1480       6.018  10.625   4.098  1.00 19.16    -0.146 NA
HETATM   23  N23   D T1480       4.656  10.717   4.074  1.00 25.24    -0.146 NA
HETATM   24  C24   D T1480       4.250  11.623   3.146  1.00 21.20     0.124 A 
ENDBRANCH  17  20
ENDBRANCH   1  14
TORSDOF 3
ENDMDL
MODEL 6
REMARK VINA RESULT:    -8.208      1.875      5.699
REMARK INTER + INTRA:          -9.929
REMARK INTER:                  -9.110
REMARK INTRA:                  -0.818
REMARK UNBOUND:                -0.281
REMARK  3 active torsions:
REMARK  status: ('A' for Active; 'I' for Inactive)
REMARK    1  A    between atoms: C5_5  and  C8_8 
REMARK    2  A    between atoms: C8_8  and  C14_14 
REMARK    3  A    between atoms: C17_17  and  C20_20 
ROOT
HETATM    1  C8    D T1480       2.996  13.036   0.454  1.00 24.84     0.042 C 
HETATM    2  C9    D T1480       2.083  11.866   0.025  1.00 24.83     0.046 C 
HETATM    3  C10   D T1480       0.846  12.328  -0.715  1.00 24.63     0.291 C 
HETATM    4  N11   D T1480       0.089  13.128   0.282  1.00 23.69     0.339 N 
HETATM    5  C12   D T1480       0.835  14.392   0.532  1.00 25.57     0.291 C 
HETATM    6  C13   D T1480       2.142  14.055   1.225  1.00 27.98     0.046 C 
ENDROOT
BRANCH   1   7
HETATM    7  C5    D T1480       4.001  12.474   1.460  1.00 27.86    -0.019 A 
HETATM    8  C4    D T1480       5.372  12.647   1.275  1.00 28.73    -0.003 A 
HETATM    9  C3    D T1480       6.273  12.115   2.172  1.00 37.49     0.011 A 
HETATM   10  C2    D T1480       5.819  11.396   3.262  1.00 34.69     0.058 A 
HETATM   11 CL1    D T1480       6.949  10.715   4.384  1.00 50.48    -0.082 Cl
HETATM   12  C7    D T1480       4.457  11.197   3.437  1.00 40.09     0.011 A 
HETATM   13  C6    D T1480       3.555  11.722   2.535  1.00 30.28    -0.003 A 
ENDBRANCH   1   7
BRANCH   1  14
HETATM   14  C14   D T1480       3.716  13.631  -0.774  1.00 24.09    -0.019 A 
HETATM   15  C15   D T1480       3.910  14.994  -0.971  1.00 24.10    -0.004 A 
HETATM   16  C16   D T1480       4.553  15.459  -2.110  1.00 25.21    -0.000 A 
HETATM   17  C17   D T1480       5.020  14.567  -3.068  1.00 22.67     0.003 A 
HETATM   18  C18   D T1480       4.829  13.218  -2.863  1.00 26.22    -0.000 A 
HETATM   19  C19   D T1480       4.193  12.756  -1.737  1.00 25.71    -0.004 A 
BRANCH  17  20
HETATM   20  C20   D T1480       5.687  15.011  -4.300  1.00 20.81     0.042 A 
HETATM   21  C21   D T1480       5.255  15.948  -5.237  1.00 10.94     0.124 A 
HETATM   22  N22   D T1480       6.124  16.057  -6.262  1.00 19.16    -0.146 NA
HETATM   23  N23   D T1480       7.120  15.161  -5.998  1.00 25.24    -0.146 NA
HETATM   24  C24   D T1480       6.883  14.506  -4.832  1.00 21.20     0.124 A 
ENDBRANCH  17  20
ENDBRANCH   1  14
TORSDOF 3
ENDMDL
MODEL 7
REMARK VINA RESULT:    -7.963      3.443      5.219
REMARK INTER + INTRA:          -9.641
REMARK INTER:                  -8.933
REMARK INTRA:                  -0.708
REMARK UNBOUND:                -0.281
REMARK  3 active torsions:
REMARK  status: ('A' for Active; 'I' for Inactive)
REMARK    1  A    between atoms: C5_5  and  C8_8 
REMARK    2  A    between atoms: C8_8  and  C14_14 
REMARK    3  A    between atoms: C17_17  and  C20_20 
ROOT
HETATM    1  C8    D T1480       8.358  12.014   1.857  1.00 24.84     0.042 C 
HETATM    2  C9    D T1480       8.933  10.632   1.472  1.00 24.83     0.046 C 
HETATM    3  C10   D T1480       8.261   9.492   2.205  1.00 24.63     0.291 C 
HETATM    4  N11   D T1480       8.593   9.718   3.636  1.00 23.69     0.339 N 
HETATM    5  C12   D T1480       7.847  10.919   4.106  1.00 25.57     0.291 C 
HETATM    6  C13   D T1480       8.393  12.140   3.388  1.00 27.98     0.046 C 
ENDROOT
BRANCH   1   7
HETATM    7  C5    D T1480       9.327  13.068   1.320  1.00 27.86    -0.019 A 
HETATM    8  C4    D T1480       8.856  14.214   0.681  1.00 28.73    -0.003 A 
HETATM    9  C3    D T1480       9.737  15.147   0.177  1.00 37.49     0.011 A 
HETATM   10  C2    D T1480      11.099  14.945   0.295  1.00 34.69     0.058 A 
HETATM   11 CL1    D T1480      12.208  16.109  -0.350  1.00 50.48    -0.082 Cl
HETATM   12  C7    D T1480      11.574  13.793   0.905  1.00 40.09     0.011 A 
HETATM   13  C6    D T1480      10.694  12.855   1.403  1.00 30.28    -0.003 A 
ENDBRANCH   1   7
BRANCH   1  14
HETATM   14  C14   D T1480       6.950  12.195   1.251  1.00 24.09    -0.019 A 
HETATM   15  C15   D T1480       6.660  12.013  -0.097  1.00 24.10    -0.004 A 
HETATM   16  C16   D T1480       5.372  12.211  -0.574  1.00 25.21    -0.000 A 
HETATM   17  C17   D T1480       4.350  12.585   0.290  1.00 22.67     0.003 A 
HETATM   18  C18   D T1480       4.644  12.757   1.625  1.00 26.22    -0.000 A 
HETATM   19  C19   D T1480       5.918  12.563   2.099  1.00 25.71    -0.004 A 
BRANCH  17  20
HETATM   20  C20   D T1480       2.976  12.826  -0.172  1.00 20.81     0.042 A 
HETATM   21  C21   D T1480       2.501  13.828  -1.015  1.00 10.94     0.124 A 
HETATM   22  N22   D T1480       1.165  13.749  -1.174  1.00 19.16    -0.146 NA
HETATM   23  N23   D T1480       0.764  12.695  -0.404  1.00 25.24    -0.146 NA
HETATM   24  C24   D T1480       1.826  12.124   0.222  1.00 21.20     0.124 A 
ENDBRANCH  17  20
ENDBRANCH   1  14
TORSDOF 3
ENDMDL
MODEL 8
REMARK VINA RESULT:    -7.701      3.784      7.876
REMARK INTER + INTRA:          -9.333
REMARK INTER:                  -8.360
REMARK INTRA:                  -0.974
REMARK UNBOUND:                -0.281
REMARK  3 active torsions:
REMARK  status: ('A' for Active; 'I' for Inactive)
REMARK    1  A    between atoms: C5_5  and  C8_8 
REMARK    2  A    between atoms: C8_8  and  C14_14 
REMARK    3  A    between atoms: C17_17  and  C20_20 
ROOT
HETATM    1  C8    D T1480       6.063  15.068  -1.287  1.00 24.84     0.042 C 
HETATM    2  C9    D T1480       4.727  14.543  -1.858  1.00 24.83     0.046 C 
HETATM    3  C10   D T1480       4.058  15.530  -2.789  1.00 24.63     0.291 C 
HETATM    4  N11   D T1480       3.734  16.697  -1.929  1.00 23.69     0.339 N 
HETATM    5  C12   D T1480       5.008  17.376  -1.562  1.00 25.57     0.291 C 
HETATM    6  C13   D T1480       5.810  16.450  -0.665  1.00 27.98     0.046 C 
ENDROOT
BRANCH   1   7
HETATM    7  C5    D T1480       6.449  14.144  -0.131  1.00 27.86    -0.019 A 
HETATM    8  C4    D T1480       6.928  12.857  -0.372  1.00 28.73    -0.003 A 
HETATM    9  C3    D T1480       7.249  12.022   0.675  1.00 37.49     0.011 A 
HETATM   10  C2    D T1480       7.091  12.455   1.978  1.00 34.69     0.058 A 
HETATM   11 CL1    D T1480       7.482  11.403   3.297  1.00 50.48    -0.082 Cl
HETATM   12  C7    D T1480       6.591  13.725   2.225  1.00 40.09     0.011 A 
HETATM   13  C6    D T1480       6.260  14.559   1.177  1.00 30.28    -0.003 A 
ENDBRANCH   1   7
BRANCH   1  14
HETATM   14  C14   D T1480       7.149  15.069  -2.383  1.00 24.09    -0.019 A 
HETATM   15  C15   D T1480       7.076  14.307  -3.544  1.00 24.10    -0.004 A 
HETATM   16  C16   D T1480       8.101  14.347  -4.480  1.00 25.21    -0.000 A 
HETATM   17  C17   D T1480       9.212  15.155  -4.273  1.00 22.67     0.003 A 
HETATM   18  C18   D T1480       9.274  15.912  -3.124  1.00 26.22    -0.000 A 
HETATM   19  C19   D T1480       8.262  15.874  -2.197  1.00 25.71    -0.004 A 
BRANCH  17  20
HETATM   20  C20   D T1480      10.331  15.214  -5.224  1.00 20.81     0.042 A 
HETATM   21  C21   D T1480      11.654  14.815  -5.041  1.00 10.94     0.124 A 
HETATM   22  N22   D T1480      12.402  15.068  -6.134  1.00 19.16    -0.146 NA
HETATM   23  N23   D T1480      11.558  15.661  -7.029  1.00 25.24    -0.146 NA
HETATM   24  C24   D T1480      10.308  15.776  -6.510  1.00 21.20     0.124 A 
ENDBRANCH  17  20
ENDBRANCH   1  14
TORSDOF 3
ENDMDL
MODEL 9
REMARK VINA RESULT:    -7.223      4.085      5.853
REMARK INTER + INTRA:          -8.771
REMARK INTER:                  -7.826
REMARK INTRA:                  -0.944
REMARK UNBOUND:                -0.281
REMARK  3 active torsions:
REMARK  status: ('A' for Active; 'I' for Inactive)
REMARK    1  A    between atoms: C5_5  and  C8_8 
REMARK    2  A    between atoms: C8_8  and  C14_14 
REMARK    3  A    between atoms: C17_17  and  C20_20 
ROOT
HETATM    1  C8    D T1480       6.479  16.090  -4.627  1.00 24.84     0.042 C 
HETATM    2  C9    D T1480       6.193  17.607  -4.613  1.00 24.83     0.046 C 
HETATM    3  C10   D T1480       4.896  17.966  -5.305  1.00 24.63     0.291 C 
HETATM    4  N11   D T1480       5.107  17.577  -6.723  1.00 23.69     0.339 N 
HETATM    5  C12   D T1480       5.140  16.090  -6.800  1.00 25.57     0.291 C 
HETATM    6  C13   D T1480       6.380  15.594  -6.078  1.00 27.98     0.046 C 
ENDROOT
BRANCH   1   7
HETATM    7  C5    D T1480       7.940  15.906  -4.212  1.00 27.86    -0.019 A 
HETATM    8  C4    D T1480       8.436  16.503  -3.054  1.00 28.73    -0.003 A 
HETATM    9  C3    D T1480       9.759  16.355  -2.701  1.00 37.49     0.011 A 
HETATM   10  C2    D T1480      10.609  15.615  -3.502  1.00 34.69     0.058 A 
HETATM   11 CL1    D T1480      12.277  15.438  -3.068  1.00 50.48    -0.082 Cl
HETATM   12  C7    D T1480      10.128  15.041  -4.670  1.00 40.09     0.011 A 
HETATM   13  C6    D T1480       8.805  15.197  -5.029  1.00 30.28    -0.003 A 
ENDBRANCH   1   7
BRANCH   1  14
HETATM   14  C14   D T1480       5.531  15.357  -3.654  1.00 24.09    -0.019 A 
HETATM   15  C15   D T1480       4.639  16.007  -2.809  1.00 24.10    -0.004 A 
HETATM   16  C16   D T1480       3.827  15.282  -1.947  1.00 25.21    -0.000 A 
HETATM   17  C17   D T1480       3.887  13.894  -1.924  1.00 22.67     0.003 A 
HETATM   18  C18   D T1480       4.769  13.257  -2.769  1.00 26.22    -0.000 A 
HETATM   19  C19   D T1480       5.574  13.972  -3.621  1.00 25.71    -0.004 A 
BRANCH  17  20
HETATM   20  C20   D T1480       3.064  13.084  -1.015  1.00 20.81     0.042 A 
HETATM   21  C21   D T1480       1.675  13.041  -0.901  1.00 10.94     0.124 A 
HETATM   22  N22   D T1480       1.287  12.204   0.082  1.00 19.16    -0.146 NA
HETATM   23  N23   D T1480       2.439  11.716   0.627  1.00 25.24    -0.146 NA
HETATM   24  C24   D T1480       3.527  12.233  -0.000  1.00 21.20     0.124 A 
ENDBRANCH  17  20
ENDBRANCH   1  14
TORSDOF 3
ENDMDL
