MODEL 1
REMARK VINA RESULT:    -7.161      0.000      0.000
REMARK INTER + INTRA:          -9.170
REMARK INTER:                  -8.417
REMARK INTRA:                  -0.754
REMARK UNBOUND:                -0.754
REMARK  3 active torsions:
REMARK  status: ('A' for Active; 'I' for Inactive)
REMARK    1  A    between atoms: C5_5  and  C8_8 
REMARK    2  A    between atoms: C8_8  and  C14_14 
REMARK    3  A    between atoms: C17_17  and  C20_20 
ROOT
HETATM    1  C8    D T1480       3.908   7.844   6.245  1.00 24.84     0.042 C 
HETATM    2  C9    D T1480       4.547   8.699   7.362  1.00 24.83     0.046 C 
HETATM    3  C10   D T1480       5.988   9.060   7.074  1.00 24.63     0.291 C 
HETATM    4  N11   D T1480       6.704   7.759   7.060  1.00 23.69     0.339 N 
HETATM    5  C12   D T1480       6.286   7.008   5.844  1.00 25.57     0.291 C 
HETATM    6  C13   D T1480       4.822   6.636   5.984  1.00 27.98     0.046 C 
ENDROOT
BRANCH   1   7
HETATM    7  C5    D T1480       2.602   7.279   6.805  1.00 27.86    -0.019 A 
HETATM    8  C4    D T1480       1.369   7.720   6.329  1.00 28.73    -0.003 A 
HETATM    9  C3    D T1480       0.197   7.225   6.857  1.00 37.49     0.011 A 
HETATM   10  C2    D T1480       0.237   6.291   7.874  1.00 34.69     0.058 A 
HETATM   11 CL1    D T1480      -1.235   5.678   8.549  1.00 50.48    -0.082 Cl
HETATM   12  C7    D T1480       1.461   5.868   8.372  1.00 40.09     0.011 A 
HETATM   13  C6    D T1480       2.636   6.369   7.849  1.00 30.28    -0.003 A 
ENDBRANCH   1   7
BRANCH   1  14
HETATM   14  C14   D T1480       3.646   8.707   4.992  1.00 24.09    -0.019 A 
HETATM   15  C15   D T1480       3.161  10.009   5.039  1.00 24.10    -0.004 A 
HETATM   16  C16   D T1480       2.935  10.721   3.868  1.00 25.21    -0.000 A 
HETATM   17  C17   D T1480       3.197  10.144   2.632  1.00 22.67     0.003 A 
HETATM   18  C18   D T1480       3.684   8.856   2.594  1.00 26.22    -0.000 A 
HETATM   19  C19   D T1480       3.909   8.150   3.750  1.00 25.71    -0.004 A 
BRANCH  17  20
HETATM   20  C20   D T1480       2.953  10.848   1.366  1.00 20.81     0.042 A 
HETATM   21  C21   D T1480       3.636  10.734   0.157  1.00 10.94     0.124 A 
HETATM   22  N22   D T1480       3.143  11.579  -0.771  1.00 19.16    -0.146 NA
HETATM   23  N23   D T1480       2.142  12.266  -0.148  1.00 25.24    -0.146 NA
HETATM   24  C24   D T1480       2.008  11.861   1.142  1.00 21.20     0.124 A 
ENDBRANCH  17  20
ENDBRANCH   1  14
TORSDOF 3
ENDMDL
MODEL 2
REMARK VINA RESULT:    -7.157      0.142      1.241
REMARK INTER + INTRA:          -9.166
REMARK INTER:                  -8.480
REMARK INTRA:                  -0.686
REMARK UNBOUND:                -0.754
REMARK  3 active torsions:
REMARK  status: ('A' for Active; 'I' for Inactive)
REMARK    1  A    between atoms: C5_5  and  C8_8 
REMARK    2  A    between atoms: C8_8  and  C14_14 
REMARK    3  A    between atoms: C17_17  and  C20_20 
ROOT
HETATM    1  C8    D T1480       4.038   7.834   6.187  1.00 24.84     0.042 C 
HETATM    2  C9    D T1480       4.730   8.659   7.295  1.00 24.83     0.046 C 
HETATM    3  C10   D T1480       6.169   8.995   6.966  1.00 24.63     0.291 C 
HETATM    4  N11   D T1480       6.857   7.679   6.909  1.00 23.69     0.339 N 
HETATM    5  C12   D T1480       6.383   6.955   5.697  1.00 25.57     0.291 C 
HETATM    6  C13   D T1480       4.918   6.612   5.878  1.00 27.98     0.046 C 
ENDROOT
BRANCH   1   7
HETATM    7  C5    D T1480       2.739   7.288   6.782  1.00 27.86    -0.019 A 
HETATM    8  C4    D T1480       2.762   6.323   7.786  1.00 28.73    -0.003 A 
HETATM    9  C3    D T1480       1.587   5.818   8.298  1.00 37.49     0.011 A 
HETATM   10  C2    D T1480       0.373   6.260   7.808  1.00 34.69     0.058 A 
HETATM   11 CL1    D T1480      -1.106   5.616   8.441  1.00 50.48    -0.082 Cl
HETATM   12  C7    D T1480       0.344   7.201   6.789  1.00 40.09     0.011 A 
HETATM   13  C6    D T1480       1.519   7.703   6.271  1.00 30.28    -0.003 A 
ENDBRANCH   1   7
BRANCH   1  14
HETATM   14  C14   D T1480       3.754   8.722   4.957  1.00 24.09    -0.019 A 
HETATM   15  C15   D T1480       3.242  10.012   5.036  1.00 24.10    -0.004 A 
HETATM   16  C16   D T1480       2.997  10.747   3.884  1.00 25.21    -0.000 A 
HETATM   17  C17   D T1480       3.268  10.206   2.633  1.00 22.67     0.003 A 
HETATM   18  C18   D T1480       3.781   8.929   2.563  1.00 26.22    -0.000 A 
HETATM   19  C19   D T1480       4.024   8.201   3.701  1.00 25.71    -0.004 A 
BRANCH  17  20
HETATM   20  C20   D T1480       3.005  10.935   1.385  1.00 20.81     0.042 A 
HETATM   21  C21   D T1480       2.015  11.879   1.118  1.00 10.94     0.124 A 
HETATM   22  N22   D T1480       2.065  12.298  -0.163  1.00 19.16    -0.146 NA
HETATM   23  N23   D T1480       3.086  11.599  -0.739  1.00 25.24    -0.146 NA
HETATM   24  C24   D T1480       3.665  10.761   0.160  1.00 21.20     0.124 A 
ENDBRANCH  17  20
ENDBRANCH   1  14
TORSDOF 3
ENDMDL
MODEL 3
REMARK VINA RESULT:    -6.591      3.353      7.514
REMARK INTER + INTRA:          -8.500
REMARK INTER:                  -7.689
REMARK INTRA:                  -0.811
REMARK UNBOUND:                -0.754
REMARK  3 active torsions:
REMARK  status: ('A' for Active; 'I' for Inactive)
REMARK    1  A    between atoms: C5_5  and  C8_8 
REMARK    2  A    between atoms: C8_8  and  C14_14 
REMARK    3  A    between atoms: C17_17  and  C20_20 
ROOT
HETATM    1  C8    D T1480       5.001   7.416   6.603  1.00 24.84     0.042 C 
HETATM    2  C9    D T1480       5.001   7.087   5.093  1.00 24.83     0.046 C 
HETATM    3  C10   D T1480       6.126   7.767   4.343  1.00 24.63     0.291 C 
HETATM    4  N11   D T1480       5.838   9.219   4.471  1.00 23.69     0.339 N 
HETATM    5  C12   D T1480       6.073   9.619   5.887  1.00 25.57     0.291 C 
HETATM    6  C13   D T1480       5.033   8.945   6.761  1.00 27.98     0.046 C 
ENDROOT
BRANCH   1   7
HETATM    7  C5    D T1480       3.654   6.956   7.162  1.00 27.86    -0.019 A 
HETATM    8  C4    D T1480       3.588   5.989   8.163  1.00 28.73    -0.003 A 
HETATM    9  C3    D T1480       2.370   5.561   8.643  1.00 37.49     0.011 A 
HETATM   10  C2    D T1480       1.200   6.083   8.124  1.00 34.69     0.058 A 
HETATM   11 CL1    D T1480      -0.333   5.536   8.716  1.00 50.48    -0.082 Cl
HETATM   12  C7    D T1480       1.259   7.026   7.107  1.00 40.09     0.011 A 
HETATM   13  C6    D T1480       2.478   7.450   6.620  1.00 30.28    -0.003 A 
ENDBRANCH   1   7
BRANCH   1  14
HETATM   14  C14   D T1480       6.170   6.695   7.308  1.00 24.09    -0.019 A 
HETATM   15  C15   D T1480       6.890   7.241   8.364  1.00 24.10    -0.004 A 
HETATM   16  C16   D T1480       7.941   6.539   8.940  1.00 25.21    -0.000 A 
HETATM   17  C17   D T1480       8.284   5.276   8.473  1.00 22.67     0.003 A 
HETATM   18  C18   D T1480       7.561   4.739   7.430  1.00 26.22    -0.000 A 
HETATM   19  C19   D T1480       6.522   5.431   6.859  1.00 25.71    -0.004 A 
BRANCH  17  20
HETATM   20  C20   D T1480       9.401   4.505   9.034  1.00 20.81     0.042 A 
HETATM   21  C21   D T1480      10.516   3.983   8.381  1.00 10.94     0.124 A 
HETATM   22  N22   D T1480      11.307   3.294   9.229  1.00 19.16    -0.146 NA
HETATM   23  N23   D T1480      10.684   3.350  10.442  1.00 25.24    -0.146 NA
HETATM   24  C24   D T1480       9.528   4.060  10.358  1.00 21.20     0.124 A 
ENDBRANCH  17  20
ENDBRANCH   1  14
TORSDOF 3
ENDMDL
MODEL 4
REMARK VINA RESULT:    -6.541      3.767      7.634
REMARK INTER + INTRA:          -8.442
REMARK INTER:                  -7.591
REMARK INTRA:                  -0.851
REMARK UNBOUND:                -0.754
REMARK  3 active torsions:
REMARK  status: ('A' for Active; 'I' for Inactive)
REMARK    1  A    between atoms: C5_5  and  C8_8 
REMARK    2  A    between atoms: C8_8  and  C14_14 
REMARK    3  A    between atoms: C17_17  and  C20_20 
ROOT
HETATM    1  C8    D T1480       4.708   8.859   4.557  1.00 24.84     0.042 C 
HETATM    2  C9    D T1480       4.144  10.297   4.603  1.00 24.83     0.046 C 
HETATM    3  C10   D T1480       2.695  10.374   4.174  1.00 24.63     0.291 C 
HETATM    4  N11   D T1480       2.703   9.956   2.748  1.00 23.69     0.339 N 
HETATM    5  C12   D T1480       3.005   8.499   2.690  1.00 25.57     0.291 C 
HETATM    6  C13   D T1480       4.430   8.279   3.161  1.00 27.98     0.046 C 
ENDROOT
BRANCH   1   7
HETATM    7  C5    D T1480       6.228   8.970   4.680  1.00 27.86    -0.019 A 
HETATM    8  C4    D T1480       6.812   9.647   5.749  1.00 28.73    -0.003 A 
HETATM    9  C3    D T1480       8.182   9.764   5.839  1.00 37.49     0.011 A 
HETATM   10  C2    D T1480       8.988   9.218   4.859  1.00 34.69     0.058 A 
HETATM   11 CL1    D T1480      10.710   9.376   4.962  1.00 50.48    -0.082 Cl
HETATM   12  C7    D T1480       8.411   8.567   3.778  1.00 40.09     0.011 A 
HETATM   13  C6    D T1480       7.040   8.455   3.682  1.00 30.28    -0.003 A 
ENDBRANCH   1   7
BRANCH   1  14
HETATM   14  C14   D T1480       4.119   8.016   5.708  1.00 24.09    -0.019 A 
HETATM   15  C15   D T1480       3.149   8.482   6.589  1.00 24.10    -0.004 A 
HETATM   16  C16   D T1480       2.677   7.671   7.613  1.00 25.21    -0.000 A 
HETATM   17  C17   D T1480       3.161   6.378   7.767  1.00 22.67     0.003 A 
HETATM   18  C18   D T1480       4.117   5.922   6.887  1.00 26.22    -0.000 A 
HETATM   19  C19   D T1480       4.586   6.722   5.874  1.00 25.71    -0.004 A 
BRANCH  17  20
HETATM   20  C20   D T1480       2.709   5.492   8.847  1.00 20.81     0.042 A 
HETATM   21  C21   D T1480       3.471   4.683   9.689  1.00 10.94     0.124 A 
HETATM   22  N22   D T1480       2.692   3.977  10.533  1.00 19.16    -0.146 NA
HETATM   23  N23   D T1480       1.407   4.315  10.220  1.00 25.24    -0.146 NA
HETATM   24  C24   D T1480       1.380   5.216   9.202  1.00 21.20     0.124 A 
ENDBRANCH  17  20
ENDBRANCH   1  14
TORSDOF 3
ENDMDL
MODEL 5
REMARK VINA RESULT:    -6.523      3.743      7.198
REMARK INTER + INTRA:          -8.420
REMARK INTER:                  -7.333
REMARK INTRA:                  -1.087
REMARK UNBOUND:                -0.754
REMARK  3 active torsions:
REMARK  status: ('A' for Active; 'I' for Inactive)
REMARK    1  A    between atoms: C5_5  and  C8_8 
REMARK    2  A    between atoms: C8_8  and  C14_14 
REMARK    3  A    between atoms: C17_17  and  C20_20 
ROOT
HETATM    1  C8    D T1480       3.660  10.925   2.075  1.00 24.84     0.042 C 
HETATM    2  C9    D T1480       4.725  10.014   1.426  1.00 24.83     0.046 C 
HETATM    3  C10   D T1480       5.948   9.826   2.298  1.00 24.63     0.291 C 
HETATM    4  N11   D T1480       6.543  11.184   2.406  1.00 23.69     0.339 N 
HETATM    5  C12   D T1480       5.644  12.023   3.246  1.00 25.57     0.291 C 
HETATM    6  C13   D T1480       4.342  12.236   2.498  1.00 27.98     0.046 C 
ENDROOT
BRANCH   1   7
HETATM    7  C5    D T1480       2.660  11.296   0.978  1.00 27.86    -0.019 A 
HETATM    8  C4    D T1480       2.752  10.734  -0.293  1.00 28.73    -0.003 A 
HETATM    9  C3    D T1480       1.863  11.094  -1.283  1.00 37.49     0.011 A 
HETATM   10  C2    D T1480       0.878  12.026  -1.021  1.00 34.69     0.058 A 
HETATM   11 CL1    D T1480      -0.232  12.490  -2.268  1.00 50.48    -0.082 Cl
HETATM   12  C7    D T1480       0.798  12.610   0.235  1.00 40.09     0.011 A 
HETATM   13  C6    D T1480       1.692  12.256   1.225  1.00 30.28    -0.003 A 
ENDBRANCH   1   7
BRANCH   1  14
HETATM   14  C14   D T1480       2.960  10.186   3.236  1.00 24.09    -0.019 A 
HETATM   15  C15   D T1480       2.817  10.715   4.513  1.00 24.10    -0.004 A 
HETATM   16  C16   D T1480       2.188   9.984   5.514  1.00 25.21    -0.000 A 
HETATM   17  C17   D T1480       1.686   8.716   5.250  1.00 22.67     0.003 A 
HETATM   18  C18   D T1480       1.826   8.202   3.979  1.00 26.22    -0.000 A 
HETATM   19  C19   D T1480       2.447   8.922   2.989  1.00 25.71    -0.004 A 
BRANCH  17  20
HETATM   20  C20   D T1480       1.034   7.897   6.280  1.00 20.81     0.042 A 
HETATM   21  C21   D T1480       1.613   7.012   7.187  1.00 10.94     0.124 A 
HETATM   22  N22   D T1480       0.681   6.408   7.952  1.00 19.16    -0.146 NA
HETATM   23  N23   D T1480      -0.520   6.891   7.519  1.00 25.24    -0.146 NA
HETATM   24  C24   D T1480      -0.345   7.780   6.506  1.00 21.20     0.124 A 
ENDBRANCH  17  20
ENDBRANCH   1  14
TORSDOF 3
ENDMDL
MODEL 6
REMARK VINA RESULT:    -6.513      3.701      7.718
REMARK INTER + INTRA:          -8.409
REMARK INTER:                  -7.602
REMARK INTRA:                  -0.807
REMARK UNBOUND:                -0.754
REMARK  3 active torsions:
REMARK  status: ('A' for Active; 'I' for Inactive)
REMARK    1  A    between atoms: C5_5  and  C8_8 
REMARK    2  A    between atoms: C8_8  and  C14_14 
REMARK    3  A    between atoms: C17_17  and  C20_20 
ROOT
HETATM    1  C8    D T1480       4.795   6.602   7.501  1.00 24.84     0.042 C 
HETATM    2  C9    D T1480       4.433   6.316   6.027  1.00 24.83     0.046 C 
HETATM    3  C10   D T1480       5.063   7.299   5.065  1.00 24.63     0.291 C 
HETATM    4  N11   D T1480       4.454   8.608   5.415  1.00 23.69     0.339 N 
HETATM    5  C12   D T1480       4.985   9.031   6.741  1.00 25.57     0.291 C 
HETATM    6  C13   D T1480       4.468   8.075   7.798  1.00 27.98     0.046 C 
ENDROOT
BRANCH   1   7
HETATM    7  C5    D T1480       3.846   5.770   8.365  1.00 27.86    -0.019 A 
HETATM    8  C4    D T1480       4.332   4.757   9.189  1.00 28.73    -0.003 A 
HETATM    9  C3    D T1480       3.468   3.995   9.945  1.00 37.49     0.011 A 
HETATM   10  C2    D T1480       2.107   4.225   9.881  1.00 34.69     0.058 A 
HETATM   11 CL1    D T1480       1.018   3.259  10.819  1.00 50.48    -0.082 Cl
HETATM   12  C7    D T1480       1.615   5.213   9.041  1.00 40.09     0.011 A 
HETATM   13  C6    D T1480       2.478   5.972   8.278  1.00 30.28    -0.003 A 
ENDBRANCH   1   7
BRANCH   1  14
HETATM   14  C14   D T1480       6.267   6.226   7.774  1.00 24.09    -0.019 A 
HETATM   15  C15   D T1480       6.896   5.116   7.221  1.00 24.10    -0.004 A 
HETATM   16  C16   D T1480       8.221   4.831   7.525  1.00 25.21    -0.000 A 
HETATM   17  C17   D T1480       8.940   5.655   8.380  1.00 22.67     0.003 A 
HETATM   18  C18   D T1480       8.311   6.756   8.919  1.00 26.22    -0.000 A 
HETATM   19  C19   D T1480       7.002   7.041   8.621  1.00 25.71    -0.004 A 
BRANCH  17  20
HETATM   20  C20   D T1480      10.335   5.382   8.749  1.00 20.81     0.042 A 
HETATM   21  C21   D T1480      11.353   6.287   9.046  1.00 10.94     0.124 A 
HETATM   22  N22   D T1480      12.517   5.656   9.299  1.00 19.16    -0.146 NA
HETATM   23  N23   D T1480      12.256   4.325   9.142  1.00 25.24    -0.146 NA
HETATM   24  C24   D T1480      10.956   4.126   8.799  1.00 21.20     0.124 A 
ENDBRANCH  17  20
ENDBRANCH   1  14
TORSDOF 3
ENDMDL
MODEL 7
REMARK VINA RESULT:    -6.362      2.113      2.476
REMARK INTER + INTRA:          -8.231
REMARK INTER:                  -7.409
REMARK INTRA:                  -0.822
REMARK UNBOUND:                -0.754
REMARK  3 active torsions:
REMARK  status: ('A' for Active; 'I' for Inactive)
REMARK    1  A    between atoms: C5_5  and  C8_8 
REMARK    2  A    between atoms: C8_8  and  C14_14 
REMARK    3  A    between atoms: C17_17  and  C20_20 
ROOT
HETATM    1  C8    D T1480       4.700   7.550   6.292  1.00 24.84     0.042 C 
HETATM    2  C9    D T1480       5.248   8.125   7.617  1.00 24.83     0.046 C 
HETATM    3  C10   D T1480       6.733   7.890   7.790  1.00 24.63     0.291 C 
HETATM    4  N11   D T1480       6.873   6.413   7.866  1.00 23.69     0.339 N 
HETATM    5  C12   D T1480       6.587   5.846   6.519  1.00 25.57     0.291 C 
HETATM    6  C13   D T1480       5.123   6.075   6.197  1.00 27.98     0.046 C 
ENDROOT
BRANCH   1   7
HETATM    7  C5    D T1480       3.175   7.553   6.400  1.00 27.86    -0.019 A 
HETATM    8  C4    D T1480       2.420   8.589   5.852  1.00 28.73    -0.003 A 
HETATM    9  C3    D T1480       1.049   8.597   5.976  1.00 37.49     0.011 A 
HETATM   10  C2    D T1480       0.410   7.577   6.656  1.00 34.69     0.058 A 
HETATM   11 CL1    D T1480      -1.314   7.592   6.825  1.00 50.48    -0.082 Cl
HETATM   12  C7    D T1480       1.157   6.557   7.226  1.00 40.09     0.011 A 
HETATM   13  C6    D T1480       2.532   6.552   7.110  1.00 30.28    -0.003 A 
ENDBRANCH   1   7
BRANCH   1  14
HETATM   14  C14   D T1480       5.173   8.409   5.100  1.00 24.09    -0.019 A 
HETATM   15  C15   D T1480       5.746   9.669   5.234  1.00 24.10    -0.004 A 
HETATM   16  C16   D T1480       6.134  10.392   4.114  1.00 25.21    -0.000 A 
HETATM   17  C17   D T1480       5.962   9.863   2.841  1.00 22.67     0.003 A 
HETATM   18  C18   D T1480       5.399   8.612   2.716  1.00 26.22    -0.000 A 
HETATM   19  C19   D T1480       5.015   7.895   3.822  1.00 25.71    -0.004 A 
BRANCH  17  20
HETATM   20  C20   D T1480       6.335  10.598   1.625  1.00 20.81     0.042 A 
HETATM   21  C21   D T1480       5.580  11.511   0.891  1.00 10.94     0.124 A 
HETATM   22  N22   D T1480       6.251  11.947  -0.195  1.00 19.16    -0.146 NA
HETATM   23  N23   D T1480       7.448  11.291  -0.175  1.00 25.24    -0.146 NA
HETATM   24  C24   D T1480       7.527  10.462   0.899  1.00 21.20     0.124 A 
ENDBRANCH  17  20
ENDBRANCH   1  14
TORSDOF 3
ENDMDL
MODEL 8
REMARK VINA RESULT:    -6.280      3.521      6.903
REMARK INTER + INTRA:          -8.134
REMARK INTER:                  -7.306
REMARK INTRA:                  -0.829
REMARK UNBOUND:                -0.754
REMARK  3 active torsions:
REMARK  status: ('A' for Active; 'I' for Inactive)
REMARK    1  A    between atoms: C5_5  and  C8_8 
REMARK    2  A    between atoms: C8_8  and  C14_14 
REMARK    3  A    between atoms: C17_17  and  C20_20 
ROOT
HETATM    1  C8    D T1480       5.427   9.473   4.214  1.00 24.84     0.042 C 
HETATM    2  C9    D T1480       6.233   8.462   3.369  1.00 24.83     0.046 C 
HETATM    3  C10   D T1480       7.442   7.919   4.098  1.00 24.63     0.291 C 
HETATM    4  N11   D T1480       8.316   9.103   4.308  1.00 23.69     0.339 N 
HETATM    5  C12   D T1480       7.670   9.986   5.318  1.00 25.57     0.291 C 
HETATM    6  C13   D T1480       6.396  10.553   4.723  1.00 27.98     0.046 C 
ENDROOT
BRANCH   1   7
HETATM    7  C5    D T1480       4.459  10.179   3.264  1.00 27.86    -0.019 A 
HETATM    8  C4    D T1480       3.598   9.449   2.446  1.00 28.73    -0.003 A 
HETATM    9  C3    D T1480       2.747  10.093   1.575  1.00 37.49     0.011 A 
HETATM   10  C2    D T1480       2.750  11.472   1.498  1.00 34.69     0.058 A 
HETATM   11 CL1    D T1480       1.691  12.283   0.393  1.00 50.48    -0.082 Cl
HETATM   12  C7    D T1480       3.623  12.204   2.290  1.00 40.09     0.011 A 
HETATM   13  C6    D T1480       4.481  11.561   3.158  1.00 30.28    -0.003 A 
ENDBRANCH   1   7
BRANCH   1  14
HETATM   14  C14   D T1480       4.664   8.743   5.340  1.00 24.09    -0.019 A 
HETATM   15  C15   D T1480       3.994   9.395   6.368  1.00 24.10    -0.004 A 
HETATM   16  C16   D T1480       3.341   8.671   7.357  1.00 25.21    -0.000 A 
HETATM   17  C17   D T1480       3.344   7.282   7.331  1.00 22.67     0.003 A 
HETATM   18  C18   D T1480       4.007   6.643   6.306  1.00 26.22    -0.000 A 
HETATM   19  C19   D T1480       4.652   7.356   5.326  1.00 25.71    -0.004 A 
BRANCH  17  20
HETATM   20  C20   D T1480       2.689   6.473   8.366  1.00 20.81     0.042 A 
HETATM   21  C21   D T1480       3.219   5.986   9.560  1.00 10.94     0.124 A 
HETATM   22  N22   D T1480       2.318   5.242  10.233  1.00 19.16    -0.146 NA
HETATM   23  N23   D T1480       1.197   5.228   9.456  1.00 25.24    -0.146 NA
HETATM   24  C24   D T1480       1.389   5.949   8.319  1.00 21.20     0.124 A 
ENDBRANCH  17  20
ENDBRANCH   1  14
TORSDOF 3
ENDMDL
MODEL 9
REMARK VINA RESULT:    -5.973      3.785      7.051
REMARK INTER + INTRA:          -7.774
REMARK INTER:                  -6.909
REMARK INTRA:                  -0.865
REMARK UNBOUND:                -0.754
REMARK  3 active torsions:
REMARK  status: ('A' for Active; 'I' for Inactive)
REMARK    1  A    between atoms: C5_5  and  C8_8 
REMARK    2  A    between atoms: C8_8  and  C14_14 
REMARK    3  A    between atoms: C17_17  and  C20_20 
ROOT
HETATM    1  C8    D T1480       6.299   9.455   4.312  1.00 24.84     0.042 C 
HETATM    2  C9    D T1480       7.479   8.601   3.799  1.00 24.83     0.046 C 
HETATM    3  C10   D T1480       8.540   8.370   4.853  1.00 24.63     0.291 C 
HETATM    4  N11   D T1480       9.078   9.725   5.145  1.00 23.69     0.339 N 
HETATM    5  C12   D T1480       8.031  10.497   5.870  1.00 25.57     0.291 C 
HETATM    6  C13   D T1480       6.870  10.744   4.926  1.00 27.98     0.046 C 
ENDROOT
BRANCH   1   7
HETATM    7  C5    D T1480       5.492   9.886   3.086  1.00 27.86    -0.019 A 
HETATM    8  C4    D T1480       6.099  10.015   1.839  1.00 28.73    -0.003 A 
HETATM    9  C3    D T1480       5.371  10.429   0.745  1.00 37.49     0.011 A 
HETATM   10  C2    D T1480       4.029  10.728   0.882  1.00 34.69     0.058 A 
HETATM   11 CL1    D T1480       3.114  11.262  -0.489  1.00 50.48    -0.082 Cl
HETATM   12  C7    D T1480       3.425  10.628   2.126  1.00 40.09     0.011 A 
HETATM   13  C6    D T1480       4.155  10.221   3.224  1.00 30.28    -0.003 A 
ENDBRANCH   1   7
BRANCH   1  14
HETATM   14  C14   D T1480       5.428   8.634   5.288  1.00 24.09    -0.019 A 
HETATM   15  C15   D T1480       5.235   7.262   5.183  1.00 24.10    -0.004 A 
HETATM   16  C16   D T1480       4.425   6.591   6.090  1.00 25.21    -0.000 A 
HETATM   17  C17   D T1480       3.800   7.282   7.121  1.00 22.67     0.003 A 
HETATM   18  C18   D T1480       4.001   8.642   7.221  1.00 26.22    -0.000 A 
HETATM   19  C19   D T1480       4.802   9.307   6.326  1.00 25.71    -0.004 A 
BRANCH  17  20
HETATM   20  C20   D T1480       2.916   6.622   8.090  1.00 20.81     0.042 A 
HETATM   21  C21   D T1480       3.131   6.381   9.445  1.00 10.94     0.124 A 
HETATM   22  N22   D T1480       2.102   5.708   9.997  1.00 19.16    -0.146 NA
HETATM   23  N23   D T1480       1.217   5.490   8.981  1.00 25.24    -0.146 NA
HETATM   24  C24   D T1480       1.681   6.016   7.817  1.00 21.20     0.124 A 
ENDBRANCH  17  20
ENDBRANCH   1  14
TORSDOF 3
ENDMDL
