MODEL 1
REMARK VINA RESULT:    -9.151      0.000      0.000
REMARK INTER + INTRA:         -11.040
REMARK INTER:                 -10.756
REMARK INTRA:                  -0.284
REMARK UNBOUND:                -0.284
REMARK  3 active torsions:
REMARK  status: ('A' for Active; 'I' for Inactive)
REMARK    1  A    between atoms: C5_5  and  C8_8 
REMARK    2  A    between atoms: C8_8  and  C14_14 
REMARK    3  A    between atoms: C17_17  and  C20_20 
ROOT
HETATM    1  C8    D T1480      -2.863   1.008  10.099  1.00 24.84     0.042 C 
HETATM    2  C9    D T1480      -4.130   1.647  10.711  1.00 24.83     0.046 C 
HETATM    3  C10   D T1480      -5.400   1.225  10.006  1.00 24.63     0.291 C 
HETATM    4  N11   D T1480      -5.263   1.766   8.629  1.00 23.69     0.339 N 
HETATM    5  C12   D T1480      -4.203   0.991   7.926  1.00 25.57     0.291 C 
HETATM    6  C13   D T1480      -2.868   1.284   8.586  1.00 27.98     0.046 C 
ENDROOT
BRANCH   1   7
HETATM    7  C5    D T1480      -1.661   1.765  10.667  1.00 27.86    -0.019 A 
HETATM    8  C4    D T1480      -1.459   1.859  12.042  1.00 28.73    -0.003 A 
HETATM    9  C3    D T1480      -0.389   2.563  12.546  1.00 37.49     0.011 A 
HETATM   10  C2    D T1480       0.492   3.192  11.685  1.00 34.69     0.058 A 
HETATM   11 CL1    D T1480       1.831   4.091  12.317  1.00 50.48    -0.082 Cl
HETATM   12  C7    D T1480       0.281   3.126  10.316  1.00 40.09     0.011 A 
HETATM   13  C6    D T1480      -0.796   2.426   9.810  1.00 30.28    -0.003 A 
ENDBRANCH   1   7
BRANCH   1  14
HETATM   14  C14   D T1480      -2.795  -0.491  10.457  1.00 24.09    -0.019 A 
HETATM   15  C15   D T1480      -1.606  -1.203  10.581  1.00 24.10    -0.004 A 
HETATM   16  C16   D T1480      -1.622  -2.556  10.891  1.00 25.21    -0.000 A 
HETATM   17  C17   D T1480      -2.826  -3.218  11.090  1.00 22.67     0.003 A 
HETATM   18  C18   D T1480      -4.000  -2.506  10.973  1.00 26.22    -0.000 A 
HETATM   19  C19   D T1480      -3.987  -1.167  10.666  1.00 25.71    -0.004 A 
BRANCH  17  20
HETATM   20  C20   D T1480      -2.896  -4.653  11.398  1.00 20.81     0.042 A 
HETATM   21  C21   D T1480      -1.997  -5.436  12.120  1.00 10.94     0.124 A 
HETATM   22  N22   D T1480      -2.383  -6.726  12.154  1.00 19.16    -0.146 NA
HETATM   23  N23   D T1480      -3.535  -6.786  11.425  1.00 25.24    -0.146 NA
HETATM   24  C24   D T1480      -3.867  -5.560  10.945  1.00 21.20     0.124 A 
ENDBRANCH  17  20
ENDBRANCH   1  14
TORSDOF 3
ENDMDL
MODEL 2
REMARK VINA RESULT:    -8.806      4.056      6.352
REMARK INTER + INTRA:         -10.634
REMARK INTER:                  -9.712
REMARK INTRA:                  -0.922
REMARK UNBOUND:                -0.284
REMARK  3 active torsions:
REMARK  status: ('A' for Active; 'I' for Inactive)
REMARK    1  A    between atoms: C5_5  and  C8_8 
REMARK    2  A    between atoms: C8_8  and  C14_14 
REMARK    3  A    between atoms: C17_17  and  C20_20 
ROOT
HETATM    1  C8    D T1480      -3.700   0.506   9.888  1.00 24.84     0.042 C 
HETATM    2  C9    D T1480      -3.875   0.819   8.385  1.00 24.83     0.046 C 
HETATM    3  C10   D T1480      -3.761   2.295   8.073  1.00 24.63     0.291 C 
HETATM    4  N11   D T1480      -4.908   2.918   8.784  1.00 23.69     0.339 N 
HETATM    5  C12   D T1480      -4.643   2.851  10.248  1.00 25.57     0.291 C 
HETATM    6  C13   D T1480      -4.671   1.396  10.680  1.00 27.98     0.046 C 
ENDROOT
BRANCH   1   7
HETATM    7  C5    D T1480      -4.167  -0.934  10.103  1.00 27.86    -0.019 A 
HETATM    8  C4    D T1480      -3.577  -1.740  11.074  1.00 28.73    -0.003 A 
HETATM    9  C3    D T1480      -3.985  -3.044  11.244  1.00 37.49     0.011 A 
HETATM   10  C2    D T1480      -4.984  -3.565  10.442  1.00 34.69     0.058 A 
HETATM   11 CL1    D T1480      -5.491  -5.209  10.645  1.00 50.48    -0.082 Cl
HETATM   12  C7    D T1480      -5.556  -2.777   9.456  1.00 40.09     0.011 A 
HETATM   13  C6    D T1480      -5.142  -1.472   9.279  1.00 30.28    -0.003 A 
ENDBRANCH   1   7
BRANCH   1  14
HETATM   14  C14   D T1480      -2.222   0.678  10.299  1.00 24.09    -0.019 A 
HETATM   15  C15   D T1480      -1.811   1.389  11.422  1.00 24.10    -0.004 A 
HETATM   16  C16   D T1480      -0.461   1.516  11.722  1.00 25.21    -0.000 A 
HETATM   17  C17   D T1480       0.499   0.926  10.910  1.00 22.67     0.003 A 
HETATM   18  C18   D T1480       0.084   0.216   9.803  1.00 26.22    -0.000 A 
HETATM   19  C19   D T1480      -1.250   0.091   9.504  1.00 25.71    -0.004 A 
BRANCH  17  20
HETATM   20  C20   D T1480       1.939   1.050  11.173  1.00 20.81     0.042 A 
HETATM   21  C21   D T1480       2.791   0.147  11.806  1.00 10.94     0.124 A 
HETATM   22  N22   D T1480       4.045   0.633  11.899  1.00 19.16    -0.146 NA
HETATM   23  N23   D T1480       4.000   1.877  11.340  1.00 25.24    -0.146 NA
HETATM   24  C24   D T1480       2.746   2.165  10.904  1.00 21.20     0.124 A 
ENDBRANCH  17  20
ENDBRANCH   1  14
TORSDOF 3
ENDMDL
MODEL 3
REMARK VINA RESULT:    -8.640      4.140      5.610
REMARK INTER + INTRA:         -10.439
REMARK INTER:                  -9.432
REMARK INTRA:                  -1.008
REMARK UNBOUND:                -0.284
REMARK  3 active torsions:
REMARK  status: ('A' for Active; 'I' for Inactive)
REMARK    1  A    between atoms: C5_5  and  C8_8 
REMARK    2  A    between atoms: C8_8  and  C14_14 
REMARK    3  A    between atoms: C17_17  and  C20_20 
ROOT
HETATM    1  C8    D T1480      -0.585   1.940  10.830  1.00 24.84     0.042 C 
HETATM    2  C9    D T1480      -0.059   3.267  10.240  1.00 24.83     0.046 C 
HETATM    3  C10   D T1480       1.165   3.788  10.961  1.00 24.63     0.291 C 
HETATM    4  N11   D T1480       0.691   4.083  12.338  1.00 23.69     0.339 N 
HETATM    5  C12   D T1480       0.410   2.790  13.022  1.00 25.57     0.291 C 
HETATM    6  C13   D T1480      -0.777   2.131  12.344  1.00 27.98     0.046 C 
ENDROOT
BRANCH   1   7
HETATM    7  C5    D T1480      -1.981   1.713  10.248  1.00 27.86    -0.019 A 
HETATM    8  C4    D T1480      -3.074   1.484  11.079  1.00 28.73    -0.003 A 
HETATM    9  C3    D T1480      -4.324   1.254  10.546  1.00 37.49     0.011 A 
HETATM   10  C2    D T1480      -4.497   1.242   9.174  1.00 34.69     0.058 A 
HETATM   11 CL1    D T1480      -6.064   0.940   8.500  1.00 50.48    -0.082 Cl
HETATM   12  C7    D T1480      -3.408   1.442   8.341  1.00 40.09     0.011 A 
HETATM   13  C6    D T1480      -2.155   1.665   8.874  1.00 30.28    -0.003 A 
ENDBRANCH   1   7
BRANCH   1  14
HETATM   14  C14   D T1480       0.364   0.780  10.465  1.00 24.09    -0.019 A 
HETATM   15  C15   D T1480       1.252   0.817   9.395  1.00 24.10    -0.004 A 
HETATM   16  C16   D T1480       2.067  -0.273   9.115  1.00 25.21    -0.000 A 
HETATM   17  C17   D T1480       2.013  -1.413   9.906  1.00 22.67     0.003 A 
HETATM   18  C18   D T1480       1.136  -1.440  10.969  1.00 26.22    -0.000 A 
HETATM   19  C19   D T1480       0.329  -0.364  11.247  1.00 25.71    -0.004 A 
BRANCH  17  20
HETATM   20  C20   D T1480       2.838  -2.599   9.638  1.00 20.81     0.042 A 
HETATM   21  C21   D T1480       4.214  -2.757   9.789  1.00 10.94     0.124 A 
HETATM   22  N22   D T1480       4.616  -3.983   9.400  1.00 19.16    -0.146 NA
HETATM   23  N23   D T1480       3.489  -4.620   8.968  1.00 25.24    -0.146 NA
HETATM   24  C24   D T1480       2.403  -3.813   9.086  1.00 21.20     0.124 A 
ENDBRANCH  17  20
ENDBRANCH   1  14
TORSDOF 3
ENDMDL
MODEL 4
REMARK VINA RESULT:    -8.558      4.694      7.554
REMARK INTER + INTRA:         -10.343
REMARK INTER:                  -9.487
REMARK INTRA:                  -0.856
REMARK UNBOUND:                -0.284
REMARK  3 active torsions:
REMARK  status: ('A' for Active; 'I' for Inactive)
REMARK    1  A    between atoms: C5_5  and  C8_8 
REMARK    2  A    between atoms: C8_8  and  C14_14 
REMARK    3  A    between atoms: C17_17  and  C20_20 
ROOT
HETATM    1  C8    D T1480      -2.406  -5.514  10.850  1.00 24.84     0.042 C 
HETATM    2  C9    D T1480      -2.733  -6.116  12.235  1.00 24.83     0.046 C 
HETATM    3  C10   D T1480      -1.881  -7.321  12.569  1.00 24.63     0.291 C 
HETATM    4  N11   D T1480      -2.256  -8.339  11.553  1.00 23.69     0.339 N 
HETATM    5  C12   D T1480      -1.728  -7.896  10.232  1.00 25.57     0.291 C 
HETATM    6  C13   D T1480      -2.471  -6.643   9.808  1.00 27.98     0.046 C 
ENDROOT
BRANCH   1   7
HETATM    7  C5    D T1480      -3.538  -4.546  10.503  1.00 27.86    -0.019 A 
HETATM    8  C4    D T1480      -4.668  -4.984   9.817  1.00 28.73    -0.003 A 
HETATM    9  C3    D T1480      -5.672  -4.101   9.486  1.00 37.49     0.011 A 
HETATM   10  C2    D T1480      -5.558  -2.766   9.828  1.00 34.69     0.058 A 
HETATM   11 CL1    D T1480      -6.813  -1.650   9.401  1.00 50.48    -0.082 Cl
HETATM   12  C7    D T1480      -4.423  -2.319  10.487  1.00 40.09     0.011 A 
HETATM   13  C6    D T1480      -3.414  -3.202  10.813  1.00 30.28    -0.003 A 
ENDBRANCH   1   7
BRANCH   1  14
HETATM   14  C14   D T1480      -1.046  -4.785  10.893  1.00 24.09    -0.019 A 
HETATM   15  C15   D T1480      -0.531  -4.179  12.034  1.00 24.10    -0.004 A 
HETATM   16  C16   D T1480       0.695  -3.526  11.995  1.00 25.21    -0.000 A 
HETATM   17  C17   D T1480       1.427  -3.476  10.816  1.00 22.67     0.003 A 
HETATM   18  C18   D T1480       0.914  -4.084   9.691  1.00 26.22    -0.000 A 
HETATM   19  C19   D T1480      -0.298  -4.730   9.727  1.00 25.71    -0.004 A 
BRANCH  17  20
HETATM   20  C20   D T1480       2.717  -2.779  10.718  1.00 20.81     0.042 A 
HETATM   21  C21   D T1480       3.280  -1.857  11.599  1.00 10.94     0.124 A 
HETATM   22  N22   D T1480       4.464  -1.401  11.146  1.00 19.16    -0.146 NA
HETATM   23  N23   D T1480       4.661  -2.018   9.944  1.00 25.24    -0.146 NA
HETATM   24  C24   D T1480       3.624  -2.844   9.650  1.00 21.20     0.124 A 
ENDBRANCH  17  20
ENDBRANCH   1  14
TORSDOF 3
ENDMDL
MODEL 5
REMARK VINA RESULT:    -8.542      3.080      4.656
REMARK INTER + INTRA:         -10.323
REMARK INTER:                  -9.753
REMARK INTRA:                  -0.571
REMARK UNBOUND:                -0.284
REMARK  3 active torsions:
REMARK  status: ('A' for Active; 'I' for Inactive)
REMARK    1  A    between atoms: C5_5  and  C8_8 
REMARK    2  A    between atoms: C8_8  and  C14_14 
REMARK    3  A    between atoms: C17_17  and  C20_20 
ROOT
HETATM    1  C8    D T1480      -0.605  -1.386  10.801  1.00 24.84     0.042 C 
HETATM    2  C9    D T1480       0.493  -1.288   9.718  1.00 24.83     0.046 C 
HETATM    3  C10   D T1480       1.858  -1.696  10.226  1.00 24.63     0.291 C 
HETATM    4  N11   D T1480       2.186  -0.689  11.269  1.00 23.69     0.339 N 
HETATM    5  C12   D T1480       1.297  -0.923  12.440  1.00 25.57     0.291 C 
HETATM    6  C13   D T1480      -0.131  -0.604  12.037  1.00 27.98     0.046 C 
ENDROOT
BRANCH   1   7
HETATM    7  C5    D T1480      -1.829  -0.640  10.267  1.00 27.86    -0.019 A 
HETATM    8  C4    D T1480      -3.115  -1.128  10.486  1.00 28.73    -0.003 A 
HETATM    9  C3    D T1480      -4.211  -0.465   9.980  1.00 37.49     0.011 A 
HETATM   10  C2    D T1480      -4.038   0.691   9.240  1.00 34.69     0.058 A 
HETATM   11 CL1    D T1480      -5.413   1.520   8.590  1.00 50.48    -0.082 Cl
HETATM   12  C7    D T1480      -2.758   1.166   8.995  1.00 40.09     0.011 A 
HETATM   13  C6    D T1480      -1.660   0.498   9.496  1.00 30.28    -0.003 A 
ENDBRANCH   1   7
BRANCH   1  14
HETATM   14  C14   D T1480      -0.938  -2.865  11.091  1.00 24.09    -0.019 A 
HETATM   15  C15   D T1480      -0.548  -3.919  10.273  1.00 24.10    -0.004 A 
HETATM   16  C16   D T1480      -0.897  -5.226  10.589  1.00 25.21    -0.000 A 
HETATM   17  C17   D T1480      -1.637  -5.499  11.732  1.00 22.67     0.003 A 
HETATM   18  C18   D T1480      -2.015  -4.450  12.542  1.00 26.22    -0.000 A 
HETATM   19  C19   D T1480      -1.670  -3.157  12.232  1.00 25.71    -0.004 A 
BRANCH  17  20
HETATM   20  C20   D T1480      -2.050  -6.861  12.097  1.00 20.81     0.042 A 
HETATM   21  C21   D T1480      -3.330  -7.411  12.105  1.00 10.94     0.124 A 
HETATM   22  N22   D T1480      -3.317  -8.686  12.542  1.00 19.16    -0.146 NA
HETATM   23  N23   D T1480      -2.014  -8.958  12.845  1.00 25.24    -0.146 NA
HETATM   24  C24   D T1480      -1.226  -7.879  12.600  1.00 21.20     0.124 A 
ENDBRANCH  17  20
ENDBRANCH   1  14
TORSDOF 3
ENDMDL
MODEL 6
REMARK VINA RESULT:    -8.400      3.493      6.811
REMARK INTER + INTRA:         -10.157
REMARK INTER:                  -9.612
REMARK INTRA:                  -0.545
REMARK UNBOUND:                -0.284
REMARK  3 active torsions:
REMARK  status: ('A' for Active; 'I' for Inactive)
REMARK    1  A    between atoms: C5_5  and  C8_8 
REMARK    2  A    between atoms: C8_8  and  C14_14 
REMARK    3  A    between atoms: C17_17  and  C20_20 
ROOT
HETATM    1  C8    D T1480      -3.954  -1.612  10.618  1.00 24.84     0.042 C 
HETATM    2  C9    D T1480      -4.615  -1.819   9.237  1.00 24.83     0.046 C 
HETATM    3  C10   D T1480      -5.428  -0.625   8.787  1.00 24.63     0.291 C 
HETATM    4  N11   D T1480      -6.525  -0.522   9.784  1.00 23.69     0.339 N 
HETATM    5  C12   D T1480      -5.941  -0.077  11.079  1.00 25.57     0.291 C 
HETATM    6  C13   D T1480      -5.044  -1.180  11.612  1.00 27.98     0.046 C 
ENDROOT
BRANCH   1   7
HETATM    7  C5    D T1480      -3.464  -2.982  11.090  1.00 27.86    -0.019 A 
HETATM    8  C4    D T1480      -2.411  -3.092  11.994  1.00 28.73    -0.003 A 
HETATM    9  C3    D T1480      -1.959  -4.330  12.395  1.00 37.49     0.011 A 
HETATM   10  C2    D T1480      -2.546  -5.476  11.892  1.00 34.69     0.058 A 
HETATM   11 CL1    D T1480      -1.970  -7.034  12.383  1.00 50.48    -0.082 Cl
HETATM   12  C7    D T1480      -3.577  -5.373  10.970  1.00 40.09     0.011 A 
HETATM   13  C6    D T1480      -4.026  -4.134  10.562  1.00 30.28    -0.003 A 
ENDBRANCH   1   7
BRANCH   1  14
HETATM   14  C14   D T1480      -2.784  -0.613  10.504  1.00 24.09    -0.019 A 
HETATM   15  C15   D T1480      -1.592  -0.891   9.845  1.00 24.10    -0.004 A 
HETATM   16  C16   D T1480      -0.574   0.052   9.796  1.00 25.21    -0.000 A 
HETATM   17  C17   D T1480      -0.735   1.293  10.400  1.00 22.67     0.003 A 
HETATM   18  C18   D T1480      -1.922   1.565  11.046  1.00 26.22    -0.000 A 
HETATM   19  C19   D T1480      -2.930   0.633  11.096  1.00 25.71    -0.004 A 
BRANCH  17  20
HETATM   20  C20   D T1480       0.319   2.316  10.395  1.00 20.81     0.042 A 
HETATM   21  C21   D T1480       0.205   3.689  10.602  1.00 10.94     0.124 A 
HETATM   22  N22   D T1480       1.395   4.308  10.479  1.00 19.16    -0.146 NA
HETATM   23  N23   D T1480       2.290   3.327  10.164  1.00 25.24    -0.146 NA
HETATM   24  C24   D T1480       1.675   2.118  10.094  1.00 21.20     0.124 A 
ENDBRANCH  17  20
ENDBRANCH   1  14
TORSDOF 3
ENDMDL
MODEL 7
REMARK VINA RESULT:    -8.195      3.512      5.048
REMARK INTER + INTRA:          -9.916
REMARK INTER:                  -8.871
REMARK INTRA:                  -1.045
REMARK UNBOUND:                -0.284
REMARK  3 active torsions:
REMARK  status: ('A' for Active; 'I' for Inactive)
REMARK    1  A    between atoms: C5_5  and  C8_8 
REMARK    2  A    between atoms: C8_8  and  C14_14 
REMARK    3  A    between atoms: C17_17  and  C20_20 
ROOT
HETATM    1  C8    D T1480       0.565   0.982  10.979  1.00 24.84     0.042 C 
HETATM    2  C9    D T1480       0.641   1.285  12.492  1.00 24.83     0.046 C 
HETATM    3  C10   D T1480      -0.153   2.510  12.889  1.00 24.63     0.291 C 
HETATM    4  N11   D T1480       0.517   3.634  12.186  1.00 23.69     0.339 N 
HETATM    5  C12   D T1480       0.247   3.502  10.728  1.00 25.57     0.291 C 
HETATM    6  C13   D T1480       0.949   2.259  10.214  1.00 27.98     0.046 C 
ENDROOT
BRANCH   1   7
HETATM    7  C5    D T1480       1.656  -0.045  10.672  1.00 27.86    -0.019 A 
HETATM    8  C4    D T1480       1.834  -0.536   9.381  1.00 28.73    -0.003 A 
HETATM    9  C3    D T1480       2.801  -1.479   9.117  1.00 37.49     0.011 A 
HETATM   10  C2    D T1480       3.601  -1.953  10.141  1.00 34.69     0.058 A 
HETATM   11 CL1    D T1480       4.809  -3.151   9.815  1.00 50.48    -0.082 Cl
HETATM   12  C7    D T1480       3.410  -1.490  11.434  1.00 40.09     0.011 A 
HETATM   13  C6    D T1480       2.436  -0.549  11.700  1.00 30.28    -0.003 A 
ENDBRANCH   1   7
BRANCH   1  14
HETATM   14  C14   D T1480      -0.831   0.435  10.614  1.00 24.09    -0.019 A 
HETATM   15  C15   D T1480      -1.678   1.035   9.689  1.00 24.10    -0.004 A 
HETATM   16  C16   D T1480      -2.930   0.495   9.422  1.00 25.21    -0.000 A 
HETATM   17  C17   D T1480      -3.350  -0.660  10.070  1.00 22.67     0.003 A 
HETATM   18  C18   D T1480      -2.502  -1.253  10.980  1.00 26.22    -0.000 A 
HETATM   19  C19   D T1480      -1.265  -0.720  11.247  1.00 25.71    -0.004 A 
BRANCH  17  20
HETATM   20  C20   D T1480      -4.672  -1.257   9.838  1.00 20.81     0.042 A 
HETATM   21  C21   D T1480      -4.996  -2.589   9.588  1.00 10.94     0.124 A 
HETATM   22  N22   D T1480      -6.318  -2.746   9.384  1.00 19.16    -0.146 NA
HETATM   23  N23   D T1480      -6.857  -1.495   9.481  1.00 25.24    -0.146 NA
HETATM   24  C24   D T1480      -5.893  -0.574   9.742  1.00 21.20     0.124 A 
ENDBRANCH  17  20
ENDBRANCH   1  14
TORSDOF 3
ENDMDL
MODEL 8
REMARK VINA RESULT:    -7.986      3.785      5.333
REMARK INTER + INTRA:          -9.670
REMARK INTER:                  -8.746
REMARK INTRA:                  -0.924
REMARK UNBOUND:                -0.284
REMARK  3 active torsions:
REMARK  status: ('A' for Active; 'I' for Inactive)
REMARK    1  A    between atoms: C5_5  and  C8_8 
REMARK    2  A    between atoms: C8_8  and  C14_14 
REMARK    3  A    between atoms: C17_17  and  C20_20 
ROOT
HETATM    1  C8    D T1480      -1.471   0.339  10.432  1.00 24.84     0.042 C 
HETATM    2  C9    D T1480      -1.083   1.178   9.195  1.00 24.83     0.046 C 
HETATM    3  C10   D T1480       0.132   2.048   9.431  1.00 24.63     0.291 C 
HETATM    4  N11   D T1480      -0.290   3.002  10.489  1.00 23.69     0.339 N 
HETATM    5  C12   D T1480      -0.432   2.250  11.767  1.00 25.57     0.291 C 
HETATM    6  C13   D T1480      -1.597   1.287  11.636  1.00 27.98     0.046 C 
ENDROOT
BRANCH   1   7
HETATM    7  C5    D T1480      -2.874  -0.215  10.176  1.00 27.86    -0.019 A 
HETATM    8  C4    D T1480      -3.272  -1.434  10.719  1.00 28.73    -0.003 A 
HETATM    9  C3    D T1480      -4.527  -1.939  10.463  1.00 37.49     0.011 A 
HETATM   10  C2    D T1480      -5.401  -1.237   9.652  1.00 34.69     0.058 A 
HETATM   11 CL1    D T1480      -6.976  -1.876   9.316  1.00 50.48    -0.082 Cl
HETATM   12  C7    D T1480      -5.001  -0.037   9.085  1.00 40.09     0.011 A 
HETATM   13  C6    D T1480      -3.740   0.465   9.336  1.00 30.28    -0.003 A 
ENDBRANCH   1   7
BRANCH   1  14
HETATM   14  C14   D T1480      -0.454  -0.802  10.643  1.00 24.09    -0.019 A 
HETATM   15  C15   D T1480       0.150  -1.501   9.603  1.00 24.10    -0.004 A 
HETATM   16  C16   D T1480       1.046  -2.529   9.868  1.00 25.21    -0.000 A 
HETATM   17  C17   D T1480       1.359  -2.868  11.178  1.00 22.67     0.003 A 
HETATM   18  C18   D T1480       0.763  -2.167  12.204  1.00 26.22    -0.000 A 
HETATM   19  C19   D T1480      -0.124  -1.151  11.944  1.00 25.71    -0.004 A 
BRANCH  17  20
HETATM   20  C20   D T1480       2.283  -3.961  11.510  1.00 20.81     0.042 A 
HETATM   21  C21   D T1480       2.741  -4.995  10.695  1.00 10.94     0.124 A 
HETATM   22  N22   D T1480       3.550  -5.834  11.370  1.00 19.16    -0.146 NA
HETATM   23  N23   D T1480       3.599  -5.353  12.646  1.00 25.24    -0.146 NA
HETATM   24  C24   D T1480       2.839  -4.233  12.769  1.00 21.20     0.124 A 
ENDBRANCH  17  20
ENDBRANCH   1  14
TORSDOF 3
ENDMDL
MODEL 9
REMARK VINA RESULT:    -7.898      4.494      6.167
REMARK INTER + INTRA:          -9.567
REMARK INTER:                  -8.602
REMARK INTRA:                  -0.965
REMARK UNBOUND:                -0.284
REMARK  3 active torsions:
REMARK  status: ('A' for Active; 'I' for Inactive)
REMARK    1  A    between atoms: C5_5  and  C8_8 
REMARK    2  A    between atoms: C8_8  and  C14_14 
REMARK    3  A    between atoms: C17_17  and  C20_20 
ROOT
HETATM    1  C8    D T1480      -1.747  -0.283  10.564  1.00 24.84     0.042 C 
HETATM    2  C9    D T1480      -1.954   0.438   9.214  1.00 24.83     0.046 C 
HETATM    3  C10   D T1480      -1.233   1.766   9.139  1.00 24.63     0.291 C 
HETATM    4  N11   D T1480      -1.879   2.603  10.182  1.00 23.69     0.339 N 
HETATM    5  C12   D T1480      -1.488   2.071  11.517  1.00 25.57     0.291 C 
HETATM    6  C13   D T1480      -2.108   0.697  11.693  1.00 27.98     0.046 C 
ENDROOT
BRANCH   1   7
HETATM    7  C5    D T1480      -2.777  -1.411  10.632  1.00 27.86    -0.019 A 
HETATM    8  C4    D T1480      -2.499  -2.594  11.312  1.00 28.73    -0.003 A 
HETATM    9  C3    D T1480      -3.421  -3.616  11.347  1.00 37.49     0.011 A 
HETATM   10  C2    D T1480      -4.633  -3.475  10.696  1.00 34.69     0.058 A 
HETATM   11 CL1    D T1480      -5.790  -4.763  10.726  1.00 50.48    -0.082 Cl
HETATM   12  C7    D T1480      -4.905  -2.311   9.993  1.00 40.09     0.011 A 
HETATM   13  C6    D T1480      -3.978  -1.290   9.952  1.00 30.28    -0.003 A 
ENDBRANCH   1   7
BRANCH   1  14
HETATM   14  C14   D T1480      -0.310  -0.837  10.658  1.00 24.09    -0.019 A 
HETATM   15  C15   D T1480       0.474  -0.761  11.804  1.00 24.10    -0.004 A 
HETATM   16  C16   D T1480       1.767  -1.268  11.811  1.00 25.21    -0.000 A 
HETATM   17  C17   D T1480       2.294  -1.867  10.674  1.00 22.67     0.003 A 
HETATM   18  C18   D T1480       1.509  -1.945   9.543  1.00 26.22    -0.000 A 
HETATM   19  C19   D T1480       0.231  -1.444   9.534  1.00 25.71    -0.004 A 
BRANCH  17  20
HETATM   20  C20   D T1480       3.663  -2.398  10.624  1.00 20.81     0.042 A 
HETATM   21  C21   D T1480       4.748  -2.091  11.443  1.00 10.94     0.124 A 
HETATM   22  N22   D T1480       5.858  -2.753  11.060  1.00 19.16    -0.146 NA
HETATM   23  N23   D T1480       5.494  -3.481   9.965  1.00 25.24    -0.146 NA
HETATM   24  C24   D T1480       4.183  -3.282   9.667  1.00 21.20     0.124 A 
ENDBRANCH  17  20
ENDBRANCH   1  14
TORSDOF 3
ENDMDL
