MODEL 1
REMARK VINA RESULT:    -8.124      0.000      0.000
REMARK INTER + INTRA:         -10.153
REMARK INTER:                  -9.548
REMARK INTRA:                  -0.604
REMARK UNBOUND:                -0.604
REMARK  3 active torsions:
REMARK  status: ('A' for Active; 'I' for Inactive)
REMARK    1  A    between atoms: C5_5  and  C8_8 
REMARK    2  A    between atoms: C8_8  and  C14_14 
REMARK    3  A    between atoms: C17_17  and  C20_20 
ROOT
HETATM    1  C8    D T1480     -12.768   5.785  -2.822  1.00 24.84     0.042 C 
HETATM    2  C9    D T1480     -13.367   7.004  -3.558  1.00 24.83     0.046 C 
HETATM    3  C10   D T1480     -12.330   8.052  -3.899  1.00 24.63     0.291 C 
HETATM    4  N11   D T1480     -11.841   8.537  -2.583  1.00 23.69     0.339 N 
HETATM    5  C12   D T1480     -11.041   7.451  -1.952  1.00 25.57     0.291 C 
HETATM    6  C13   D T1480     -11.968   6.299  -1.614  1.00 27.98     0.046 C 
ENDROOT
BRANCH   1   7
HETATM    7  C5    D T1480     -13.940   4.987  -2.251  1.00 27.86    -0.019 A 
HETATM    8  C4    D T1480     -15.228   5.141  -2.761  1.00 28.73    -0.003 A 
HETATM    9  C3    D T1480     -16.283   4.437  -2.223  1.00 37.49     0.011 A 
HETATM   10  C2    D T1480     -16.072   3.577  -1.163  1.00 34.69     0.058 A 
HETATM   11 CL1    D T1480     -17.398   2.702  -0.476  1.00 50.48    -0.082 Cl
HETATM   12  C7    D T1480     -14.797   3.440  -0.632  1.00 40.09     0.011 A 
HETATM   13  C6    D T1480     -13.741   4.150  -1.166  1.00 30.28    -0.003 A 
ENDBRANCH   1   7
BRANCH   1  14
HETATM   14  C14   D T1480     -11.937   4.927  -3.799  1.00 24.09    -0.019 A 
HETATM   15  C15   D T1480     -10.568   5.082  -3.991  1.00 24.10    -0.004 A 
HETATM   16  C16   D T1480      -9.887   4.283  -4.899  1.00 25.21    -0.000 A 
HETATM   17  C17   D T1480     -10.562   3.311  -5.626  1.00 22.67     0.003 A 
HETATM   18  C18   D T1480     -11.917   3.158  -5.427  1.00 26.22    -0.000 A 
HETATM   19  C19   D T1480     -12.593   3.947  -4.529  1.00 25.71    -0.004 A 
BRANCH  17  20
HETATM   20  C20   D T1480      -9.890   2.456  -6.615  1.00 20.81     0.042 A 
HETATM   21  C21   D T1480     -10.423   1.848  -7.749  1.00 10.94     0.124 A 
HETATM   22  N22   D T1480      -9.501   1.102  -8.388  1.00 19.16    -0.146 NA
HETATM   23  N23   D T1480      -8.361   1.209  -7.645  1.00 25.24    -0.146 NA
HETATM   24  C24   D T1480      -8.562   2.006  -6.565  1.00 21.20     0.124 A 
ENDBRANCH  17  20
ENDBRANCH   1  14
TORSDOF 3
ENDMDL
MODEL 2
REMARK VINA RESULT:    -7.809      3.829      6.853
REMARK INTER + INTRA:          -9.783
REMARK INTER:                  -8.923
REMARK INTRA:                  -0.861
REMARK UNBOUND:                -0.604
REMARK  3 active torsions:
REMARK  status: ('A' for Active; 'I' for Inactive)
REMARK    1  A    between atoms: C5_5  and  C8_8 
REMARK    2  A    between atoms: C8_8  and  C14_14 
REMARK    3  A    between atoms: C17_17  and  C20_20 
ROOT
HETATM    1  C8    D T1480     -18.487   3.541  -0.513  1.00 24.84     0.042 C 
HETATM    2  C9    D T1480     -18.903   2.119  -0.953  1.00 24.83     0.046 C 
HETATM    3  C10   D T1480     -19.157   2.016  -2.442  1.00 24.63     0.291 C 
HETATM    4  N11   D T1480     -20.323   2.905  -2.685  1.00 23.69     0.339 N 
HETATM    5  C12   D T1480     -19.881   4.316  -2.506  1.00 25.57     0.291 C 
HETATM    6  C13   D T1480     -19.533   4.534  -1.045  1.00 27.98     0.046 C 
ENDROOT
BRANCH   1   7
HETATM    7  C5    D T1480     -18.593   3.585   1.012  1.00 27.86    -0.019 A 
HETATM    8  C4    D T1480     -17.574   4.140   1.785  1.00 28.73    -0.003 A 
HETATM    9  C3    D T1480     -17.666   4.152   3.159  1.00 37.49     0.011 A 
HETATM   10  C2    D T1480     -18.770   3.604   3.784  1.00 34.69     0.058 A 
HETATM   11 CL1    D T1480     -18.881   3.606   5.512  1.00 50.48    -0.082 Cl
HETATM   12  C7    D T1480     -19.774   3.025   3.021  1.00 40.09     0.011 A 
HETATM   13  C6    D T1480     -19.680   3.006   1.644  1.00 30.28    -0.003 A 
ENDBRANCH   1   7
BRANCH   1  14
HETATM   14  C14   D T1480     -17.048   3.844  -0.978  1.00 24.09    -0.019 A 
HETATM   15  C15   D T1480     -16.035   2.892  -1.027  1.00 24.10    -0.004 A 
HETATM   16  C16   D T1480     -14.757   3.241  -1.442  1.00 25.21    -0.000 A 
HETATM   17  C17   D T1480     -14.472   4.546  -1.823  1.00 22.67     0.003 A 
HETATM   18  C18   D T1480     -15.481   5.483  -1.778  1.00 26.22    -0.000 A 
HETATM   19  C19   D T1480     -16.746   5.141  -1.367  1.00 25.71    -0.004 A 
BRANCH  17  20
HETATM   20  C20   D T1480     -13.130   4.968  -2.248  1.00 20.81     0.042 A 
HETATM   21  C21   D T1480     -12.120   5.557  -1.491  1.00 10.94     0.124 A 
HETATM   22  N22   D T1480     -11.040   5.842  -2.246  1.00 19.16    -0.146 NA
HETATM   23  N23   D T1480     -11.364   5.455  -3.514  1.00 25.24    -0.146 NA
HETATM   24  C24   D T1480     -12.619   4.936  -3.554  1.00 21.20     0.124 A 
ENDBRANCH  17  20
ENDBRANCH   1  14
TORSDOF 3
ENDMDL
MODEL 3
REMARK VINA RESULT:    -7.720      6.659     10.067
REMARK INTER + INTRA:          -9.678
REMARK INTER:                  -8.646
REMARK INTRA:                  -1.032
REMARK UNBOUND:                -0.604
REMARK  3 active torsions:
REMARK  status: ('A' for Active; 'I' for Inactive)
REMARK    1  A    between atoms: C5_5  and  C8_8 
REMARK    2  A    between atoms: C8_8  and  C14_14 
REMARK    3  A    between atoms: C17_17  and  C20_20 
ROOT
HETATM    1  C8    D T1480     -18.046   4.054   1.202  1.00 24.84     0.042 C 
HETATM    2  C9    D T1480     -16.552   4.387   1.413  1.00 24.83     0.046 C 
HETATM    3  C10   D T1480     -15.768   4.416   0.118  1.00 24.63     0.291 C 
HETATM    4  N11   D T1480     -15.835   3.022  -0.390  1.00 23.69     0.339 N 
HETATM    5  C12   D T1480     -17.230   2.752  -0.836  1.00 25.57     0.291 C 
HETATM    6  C13   D T1480     -18.137   2.759   0.379  1.00 27.98     0.046 C 
ENDROOT
BRANCH   1   7
HETATM    7  C5    D T1480     -18.630   3.729   2.578  1.00 27.86    -0.019 A 
HETATM    8  C4    D T1480     -19.918   3.214   2.705  1.00 28.73    -0.003 A 
HETATM    9  C3    D T1480     -20.445   2.949   3.950  1.00 37.49     0.011 A 
HETATM   10  C2    D T1480     -19.700   3.202   5.086  1.00 34.69     0.058 A 
HETATM   11 CL1    D T1480     -20.366   2.883   6.652  1.00 50.48    -0.082 Cl
HETATM   12  C7    D T1480     -18.427   3.741   4.966  1.00 40.09     0.011 A 
HETATM   13  C6    D T1480     -17.900   4.014   3.720  1.00 30.28    -0.003 A 
ENDBRANCH   1   7
BRANCH   1  14
HETATM   14  C14   D T1480     -18.775   5.252   0.559  1.00 24.09    -0.019 A 
HETATM   15  C15   D T1480     -18.592   6.572   0.957  1.00 24.10    -0.004 A 
HETATM   16  C16   D T1480     -19.294   7.599   0.343  1.00 25.21    -0.000 A 
HETATM   17  C17   D T1480     -20.186   7.325  -0.686  1.00 22.67     0.003 A 
HETATM   18  C18   D T1480     -20.359   6.016  -1.080  1.00 26.22    -0.000 A 
HETATM   19  C19   D T1480     -19.665   4.998  -0.473  1.00 25.71    -0.004 A 
BRANCH  17  20
HETATM   20  C20   D T1480     -20.969   8.376  -1.352  1.00 20.81     0.042 A 
HETATM   21  C21   D T1480     -22.321   8.679  -1.209  1.00 10.94     0.124 A 
HETATM   22  N22   D T1480     -22.689   9.688  -2.023  1.00 19.16    -0.146 NA
HETATM   23  N23   D T1480     -21.565  10.028  -2.720  1.00 25.24    -0.146 NA
HETATM   24  C24   D T1480     -20.515   9.250  -2.350  1.00 21.20     0.124 A 
ENDBRANCH  17  20
ENDBRANCH   1  14
TORSDOF 3
ENDMDL
MODEL 4
REMARK VINA RESULT:    -7.582      3.485      7.045
REMARK INTER + INTRA:          -9.516
REMARK INTER:                  -8.531
REMARK INTRA:                  -0.985
REMARK UNBOUND:                -0.604
REMARK  3 active torsions:
REMARK  status: ('A' for Active; 'I' for Inactive)
REMARK    1  A    between atoms: C5_5  and  C8_8 
REMARK    2  A    between atoms: C8_8  and  C14_14 
REMARK    3  A    between atoms: C17_17  and  C20_20 
ROOT
HETATM    1  C8    D T1480     -12.653   5.344  -3.407  1.00 24.84     0.042 C 
HETATM    2  C9    D T1480     -11.233   5.428  -2.801  1.00 24.83     0.046 C 
HETATM    3  C10   D T1480     -11.042   6.643  -1.920  1.00 24.63     0.291 C 
HETATM    4  N11   D T1480     -11.191   7.800  -2.840  1.00 23.69     0.339 N 
HETATM    5  C12   D T1480     -12.620   7.891  -3.250  1.00 25.57     0.291 C 
HETATM    6  C13   D T1480     -12.959   6.681  -4.099  1.00 27.98     0.046 C 
ENDROOT
BRANCH   1   7
HETATM    7  C5    D T1480     -12.605   4.290  -4.513  1.00 27.86    -0.019 A 
HETATM    8  C4    D T1480     -11.389   3.771  -4.956  1.00 28.73    -0.003 A 
HETATM    9  C3    D T1480     -11.354   2.840  -5.971  1.00 37.49     0.011 A 
HETATM   10  C2    D T1480     -12.528   2.421  -6.566  1.00 34.69     0.058 A 
HETATM   11 CL1    D T1480     -12.485   1.262  -7.852  1.00 50.48    -0.082 Cl
HETATM   12  C7    D T1480     -13.739   2.954  -6.149  1.00 40.09     0.011 A 
HETATM   13  C6    D T1480     -13.775   3.892  -5.137  1.00 30.28    -0.003 A 
ENDBRANCH   1   7
BRANCH   1  14
HETATM   14  C14   D T1480     -13.676   4.958  -2.318  1.00 24.09    -0.019 A 
HETATM   15  C15   D T1480     -13.455   3.968  -1.367  1.00 24.10    -0.004 A 
HETATM   16  C16   D T1480     -14.428   3.664  -0.425  1.00 25.21    -0.000 A 
HETATM   17  C17   D T1480     -15.636   4.350  -0.414  1.00 22.67     0.003 A 
HETATM   18  C18   D T1480     -15.846   5.334  -1.355  1.00 26.22    -0.000 A 
HETATM   19  C19   D T1480     -14.885   5.637  -2.288  1.00 25.71    -0.004 A 
BRANCH  17  20
HETATM   20  C20   D T1480     -16.706   4.049   0.549  1.00 20.81     0.042 A 
HETATM   21  C21   D T1480     -17.867   3.304   0.357  1.00 10.94     0.124 A 
HETATM   22  N22   D T1480     -18.630   3.286   1.468  1.00 19.16    -0.146 NA
HETATM   23  N23   D T1480     -17.966   4.049   2.384  1.00 25.24    -0.146 NA
HETATM   24  C24   D T1480     -16.810   4.533   1.861  1.00 21.20     0.124 A 
ENDBRANCH  17  20
ENDBRANCH   1  14
TORSDOF 3
ENDMDL
MODEL 5
REMARK VINA RESULT:    -7.494      2.006      2.625
REMARK INTER + INTRA:          -9.413
REMARK INTER:                  -8.526
REMARK INTRA:                  -0.886
REMARK UNBOUND:                -0.604
REMARK  3 active torsions:
REMARK  status: ('A' for Active; 'I' for Inactive)
REMARK    1  A    between atoms: C5_5  and  C8_8 
REMARK    2  A    between atoms: C8_8  and  C14_14 
REMARK    3  A    between atoms: C17_17  and  C20_20 
ROOT
HETATM    1  C8    D T1480     -14.351   4.261  -2.352  1.00 24.84     0.042 C 
HETATM    2  C9    D T1480     -14.514   5.778  -2.595  1.00 24.83     0.046 C 
HETATM    3  C10   D T1480     -13.189   6.502  -2.703  1.00 24.63     0.291 C 
HETATM    4  N11   D T1480     -12.565   6.342  -1.365  1.00 23.69     0.339 N 
HETATM    5  C12   D T1480     -12.168   4.916  -1.201  1.00 25.57     0.291 C 
HETATM    6  C13   D T1480     -13.424   4.066  -1.141  1.00 27.98     0.046 C 
ENDROOT
BRANCH   1   7
HETATM    7  C5    D T1480     -15.720   3.726  -1.933  1.00 27.86    -0.019 A 
HETATM    8  C4    D T1480     -16.859   4.006  -2.685  1.00 28.73    -0.003 A 
HETATM    9  C3    D T1480     -18.093   3.541  -2.286  1.00 37.49     0.011 A 
HETATM   10  C2    D T1480     -18.211   2.798  -1.127  1.00 34.69     0.058 A 
HETATM   11 CL1    D T1480     -19.763   2.224  -0.616  1.00 50.48    -0.082 Cl
HETATM   12  C7    D T1480     -17.085   2.539  -0.360  1.00 40.09     0.011 A 
HETATM   13  C6    D T1480     -15.849   3.011  -0.754  1.00 30.28    -0.003 A 
ENDBRANCH   1   7
BRANCH   1  14
HETATM   14  C14   D T1480     -13.852   3.565  -3.635  1.00 24.09    -0.019 A 
HETATM   15  C15   D T1480     -13.603   4.233  -4.830  1.00 24.10    -0.004 A 
HETATM   16  C16   D T1480     -13.169   3.538  -5.950  1.00 25.21    -0.000 A 
HETATM   17  C17   D T1480     -12.970   2.164  -5.894  1.00 22.67     0.003 A 
HETATM   18  C18   D T1480     -13.213   1.509  -4.706  1.00 26.22    -0.000 A 
HETATM   19  C19   D T1480     -13.642   2.195  -3.596  1.00 25.71    -0.004 A 
BRANCH  17  20
HETATM   20  C20   D T1480     -12.534   1.382  -7.059  1.00 20.81     0.042 A 
HETATM   21  C21   D T1480     -13.198   0.347  -7.713  1.00 10.94     0.124 A 
HETATM   22  N22   D T1480     -12.457  -0.156  -8.720  1.00 19.16    -0.146 NA
HETATM   23  N23   D T1480     -11.287   0.546  -8.703  1.00 25.24    -0.146 NA
HETATM   24  C24   D T1480     -11.295   1.472  -7.710  1.00 21.20     0.124 A 
ENDBRANCH  17  20
ENDBRANCH   1  14
TORSDOF 3
ENDMDL
MODEL 6
REMARK VINA RESULT:    -7.292      2.057      3.161
REMARK INTER + INTRA:          -9.175
REMARK INTER:                  -8.320
REMARK INTRA:                  -0.855
REMARK UNBOUND:                -0.604
REMARK  3 active torsions:
REMARK  status: ('A' for Active; 'I' for Inactive)
REMARK    1  A    between atoms: C5_5  and  C8_8 
REMARK    2  A    between atoms: C8_8  and  C14_14 
REMARK    3  A    between atoms: C17_17  and  C20_20 
ROOT
HETATM    1  C8    D T1480     -14.922   4.018  -2.656  1.00 24.84     0.042 C 
HETATM    2  C9    D T1480     -14.743   5.552  -2.711  1.00 24.83     0.046 C 
HETATM    3  C10   D T1480     -13.374   6.000  -2.246  1.00 24.63     0.291 C 
HETATM    4  N11   D T1480     -13.317   5.607  -0.815  1.00 23.69     0.339 N 
HETATM    5  C12   D T1480     -13.239   4.122  -0.740  1.00 25.57     0.291 C 
HETATM    6  C13   D T1480     -14.547   3.541  -1.244  1.00 27.98     0.046 C 
ENDROOT
BRANCH   1   7
HETATM    7  C5    D T1480     -16.416   3.737  -2.820  1.00 27.86    -0.019 A 
HETATM    8  C4    D T1480     -17.159   3.183  -1.778  1.00 28.73    -0.003 A 
HETATM    9  C3    D T1480     -18.499   2.909  -1.943  1.00 37.49     0.011 A 
HETATM   10  C2    D T1480     -19.116   3.174  -3.151  1.00 34.69     0.058 A 
HETATM   11 CL1    D T1480     -20.796   2.818  -3.366  1.00 50.48    -0.082 Cl
HETATM   12  C7    D T1480     -18.375   3.698  -4.201  1.00 40.09     0.011 A 
HETATM   13  C6    D T1480     -17.031   3.967  -4.039  1.00 30.28    -0.003 A 
ENDBRANCH   1   7
BRANCH   1  14
HETATM   14  C14   D T1480     -14.105   3.344  -3.778  1.00 24.09    -0.019 A 
HETATM   15  C15   D T1480     -13.824   1.983  -3.819  1.00 24.10    -0.004 A 
HETATM   16  C16   D T1480     -13.069   1.448  -4.853  1.00 25.21    -0.000 A 
HETATM   17  C17   D T1480     -12.586   2.264  -5.868  1.00 22.67     0.003 A 
HETATM   18  C18   D T1480     -12.872   3.612  -5.825  1.00 26.22    -0.000 A 
HETATM   19  C19   D T1480     -13.620   4.143  -4.802  1.00 25.71    -0.004 A 
BRANCH  17  20
HETATM   20  C20   D T1480     -11.764   1.748  -6.971  1.00 20.81     0.042 A 
HETATM   21  C21   D T1480     -12.057   0.731  -7.876  1.00 10.94     0.124 A 
HETATM   22  N22   D T1480     -11.031   0.512  -8.722  1.00 19.16    -0.146 NA
HETATM   23  N23   D T1480     -10.049   1.383  -8.344  1.00 25.24    -0.146 NA
HETATM   24  C24   D T1480     -10.452   2.133  -7.286  1.00 21.20     0.124 A 
ENDBRANCH  17  20
ENDBRANCH   1  14
TORSDOF 3
ENDMDL
MODEL 7
REMARK VINA RESULT:    -7.118      5.601      8.075
REMARK INTER + INTRA:          -8.970
REMARK INTER:                  -8.038
REMARK INTRA:                  -0.932
REMARK UNBOUND:                -0.604
REMARK  3 active torsions:
REMARK  status: ('A' for Active; 'I' for Inactive)
REMARK    1  A    between atoms: C5_5  and  C8_8 
REMARK    2  A    between atoms: C8_8  and  C14_14 
REMARK    3  A    between atoms: C17_17  and  C20_20 
ROOT
HETATM    1  C8    D T1480     -14.685  -0.633  -6.720  1.00 24.84     0.042 C 
HETATM    2  C9    D T1480     -14.603  -1.687  -5.593  1.00 24.83     0.046 C 
HETATM    3  C10   D T1480     -15.598  -2.814  -5.769  1.00 24.63     0.291 C 
HETATM    4  N11   D T1480     -16.927  -2.160  -5.657  1.00 23.69     0.339 N 
HETATM    5  C12   D T1480     -17.139  -1.319  -6.867  1.00 25.57     0.291 C 
HETATM    6  C13   D T1480     -16.147  -0.172  -6.841  1.00 27.98     0.046 C 
ENDROOT
BRANCH   1   7
HETATM    7  C5    D T1480     -13.890   0.586  -6.251  1.00 27.86    -0.019 A 
HETATM    8  C4    D T1480     -13.182   1.372  -7.159  1.00 28.73    -0.003 A 
HETATM    9  C3    D T1480     -12.448   2.453  -6.724  1.00 37.49     0.011 A 
HETATM   10  C2    D T1480     -12.400   2.761  -5.378  1.00 34.69     0.058 A 
HETATM   11 CL1    D T1480     -11.466   4.111  -4.827  1.00 50.48    -0.082 Cl
HETATM   12  C7    D T1480     -13.080   1.966  -4.467  1.00 40.09     0.011 A 
HETATM   13  C6    D T1480     -13.810   0.878  -4.900  1.00 30.28    -0.003 A 
ENDBRANCH   1   7
BRANCH   1  14
HETATM   14  C14   D T1480     -14.103  -1.205  -8.029  1.00 24.09    -0.019 A 
HETATM   15  C15   D T1480     -14.621  -0.930  -9.290  1.00 24.10    -0.004 A 
HETATM   16  C16   D T1480     -14.054  -1.493 -10.425  1.00 25.21    -0.000 A 
HETATM   17  C17   D T1480     -12.955  -2.335 -10.319  1.00 22.67     0.003 A 
HETATM   18  C18   D T1480     -12.443  -2.599  -9.067  1.00 26.22    -0.000 A 
HETATM   19  C19   D T1480     -13.002  -2.043  -7.943  1.00 25.71    -0.004 A 
BRANCH  17  20
HETATM   20  C20   D T1480     -12.334  -2.972 -11.489  1.00 20.81     0.042 A 
HETATM   21  C21   D T1480     -12.651  -4.188 -12.091  1.00 10.94     0.124 A 
HETATM   22  N22   D T1480     -11.826  -4.458 -13.122  1.00 19.16    -0.146 NA
HETATM   23  N23   D T1480     -10.948  -3.415 -13.174  1.00 25.24    -0.146 NA
HETATM   24  C24   D T1480     -11.217  -2.509 -12.199  1.00 21.20     0.124 A 
ENDBRANCH  17  20
ENDBRANCH   1  14
TORSDOF 3
ENDMDL
MODEL 8
REMARK VINA RESULT:    -7.101      4.250      7.143
REMARK INTER + INTRA:          -8.951
REMARK INTER:                  -8.057
REMARK INTRA:                  -0.894
REMARK UNBOUND:                -0.604
REMARK  3 active torsions:
REMARK  status: ('A' for Active; 'I' for Inactive)
REMARK    1  A    between atoms: C5_5  and  C8_8 
REMARK    2  A    between atoms: C8_8  and  C14_14 
REMARK    3  A    between atoms: C17_17  and  C20_20 
ROOT
HETATM    1  C8    D T1480     -18.054   5.830   0.194  1.00 24.84     0.042 C 
HETATM    2  C9    D T1480     -18.049   6.085   1.718  1.00 24.83     0.046 C 
HETATM    3  C10   D T1480     -17.416   4.955   2.501  1.00 24.63     0.291 C 
HETATM    4  N11   D T1480     -18.303   3.789   2.258  1.00 23.69     0.339 N 
HETATM    5  C12   D T1480     -18.140   3.362   0.841  1.00 25.57     0.291 C 
HETATM    6  C13   D T1480     -18.688   4.453  -0.060  1.00 27.98     0.046 C 
ENDROOT
BRANCH   1   7
HETATM    7  C5    D T1480     -19.000   6.858  -0.428  1.00 27.86    -0.019 A 
HETATM    8  C4    D T1480     -20.013   6.463  -1.300  1.00 28.73    -0.003 A 
HETATM    9  C3    D T1480     -20.845   7.398  -1.876  1.00 37.49     0.011 A 
HETATM   10  C2    D T1480     -20.672   8.741  -1.599  1.00 34.69     0.058 A 
HETATM   11 CL1    D T1480     -21.707   9.920  -2.332  1.00 50.48    -0.082 Cl
HETATM   12  C7    D T1480     -19.648   9.142  -0.754  1.00 40.09     0.011 A 
HETATM   13  C6    D T1480     -18.809   8.207  -0.182  1.00 30.28    -0.003 A 
ENDBRANCH   1   7
BRANCH   1  14
HETATM   14  C14   D T1480     -16.628   5.973  -0.376  1.00 24.09    -0.019 A 
HETATM   15  C15   D T1480     -16.193   5.344  -1.538  1.00 24.10    -0.004 A 
HETATM   16  C16   D T1480     -14.889   5.507  -1.984  1.00 25.21    -0.000 A 
HETATM   17  C17   D T1480     -13.998   6.306  -1.279  1.00 22.67     0.003 A 
HETATM   18  C18   D T1480     -14.436   6.931  -0.131  1.00 26.22    -0.000 A 
HETATM   19  C19   D T1480     -15.726   6.772   0.312  1.00 25.71    -0.004 A 
BRANCH  17  20
HETATM   20  C20   D T1480     -12.602   6.491  -1.698  1.00 20.81     0.042 A 
HETATM   21  C21   D T1480     -11.617   5.527  -1.900  1.00 10.94     0.124 A 
HETATM   22  N22   D T1480     -10.440   6.087  -2.242  1.00 19.16    -0.146 NA
HETATM   23  N23   D T1480     -10.659   7.435  -2.239  1.00 25.24    -0.146 NA
HETATM   24  C24   D T1480     -11.946   7.713  -1.905  1.00 21.20     0.124 A 
ENDBRANCH  17  20
ENDBRANCH   1  14
TORSDOF 3
ENDMDL
MODEL 9
REMARK VINA RESULT:    -6.800      3.456      5.442
REMARK INTER + INTRA:          -8.597
REMARK INTER:                  -7.747
REMARK INTRA:                  -0.850
REMARK UNBOUND:                -0.604
REMARK  3 active torsions:
REMARK  status: ('A' for Active; 'I' for Inactive)
REMARK    1  A    between atoms: C5_5  and  C8_8 
REMARK    2  A    between atoms: C8_8  and  C14_14 
REMARK    3  A    between atoms: C17_17  and  C20_20 
ROOT
HETATM    1  C8    D T1480     -16.978   4.273  -0.859  1.00 24.84     0.042 C 
HETATM    2  C9    D T1480     -17.357   3.030  -0.023  1.00 24.83     0.046 C 
HETATM    3  C10   D T1480     -18.261   2.073  -0.769  1.00 24.63     0.291 C 
HETATM    4  N11   D T1480     -19.512   2.840  -0.997  1.00 23.69     0.339 N 
HETATM    5  C12   D T1480     -19.232   3.905  -2.000  1.00 25.57     0.291 C 
HETATM    6  C13   D T1480     -18.274   4.909  -1.387  1.00 27.98     0.046 C 
ENDROOT
BRANCH   1   7
HETATM    7  C5    D T1480     -16.363   5.289   0.104  1.00 27.86    -0.019 A 
HETATM    8  C4    D T1480     -15.125   5.870  -0.162  1.00 28.73    -0.003 A 
HETATM    9  C3    D T1480     -14.567   6.765   0.724  1.00 37.49     0.011 A 
HETATM   10  C2    D T1480     -15.231   7.087   1.892  1.00 34.69     0.058 A 
HETATM   11 CL1    D T1480     -14.525   8.201   3.014  1.00 50.48    -0.082 Cl
HETATM   12  C7    D T1480     -16.451   6.491   2.176  1.00 40.09     0.011 A 
HETATM   13  C6    D T1480     -17.007   5.589   1.293  1.00 30.28    -0.003 A 
ENDBRANCH   1   7
BRANCH   1  14
HETATM   14  C14   D T1480     -15.979   3.886  -1.969  1.00 24.09    -0.019 A 
HETATM   15  C15   D T1480     -15.029   2.878  -1.836  1.00 24.10    -0.004 A 
HETATM   16  C16   D T1480     -14.151   2.594  -2.873  1.00 25.21    -0.000 A 
HETATM   17  C17   D T1480     -14.211   3.308  -4.062  1.00 22.67     0.003 A 
HETATM   18  C18   D T1480     -15.158   4.302  -4.190  1.00 26.22    -0.000 A 
HETATM   19  C19   D T1480     -16.028   4.585  -3.165  1.00 25.71    -0.004 A 
BRANCH  17  20
HETATM   20  C20   D T1480     -13.289   3.060  -5.179  1.00 20.81     0.042 A 
HETATM   21  C21   D T1480     -11.897   3.122  -5.192  1.00 10.94     0.124 A 
HETATM   22  N22   D T1480     -11.403   2.870  -6.420  1.00 19.16    -0.146 NA
HETATM   23  N23   D T1480     -12.490   2.665  -7.220  1.00 25.24    -0.146 NA
HETATM   24  C24   D T1480     -13.641   2.783  -6.508  1.00 21.20     0.124 A 
ENDBRANCH  17  20
ENDBRANCH   1  14
TORSDOF 3
ENDMDL
