MODEL 1
REMARK VINA RESULT:    -7.812      0.000      0.000
REMARK INTER + INTRA:         -10.278
REMARK INTER:                  -9.183
REMARK INTRA:                  -1.096
REMARK UNBOUND:                -1.096
REMARK  3 active torsions:
REMARK  status: ('A' for Active; 'I' for Inactive)
REMARK    1  A    between atoms: C5_5  and  C8_8 
REMARK    2  A    between atoms: C8_8  and  C14_14 
REMARK    3  A    between atoms: C17_17  and  C20_20 
ROOT
HETATM    1  C8    D T1480       9.909  -1.292  -3.752  1.00 24.84     0.042 C 
HETATM    2  C9    D T1480      11.258  -1.038  -3.042  1.00 24.83     0.046 C 
HETATM    3  C10   D T1480      11.448  -1.902  -1.814  1.00 24.63     0.291 C 
HETATM    4  N11   D T1480      10.377  -1.468  -0.880  1.00 23.69     0.339 N 
HETATM    5  C12   D T1480       9.069  -1.923  -1.426  1.00 25.57     0.291 C 
HETATM    6  C13   D T1480       8.786  -1.165  -2.708  1.00 27.98     0.046 C 
ENDROOT
BRANCH   1   7
HETATM    7  C5    D T1480       9.703  -0.146  -4.744  1.00 27.86    -0.019 A 
HETATM    8  C4    D T1480      10.724   0.766  -5.006  1.00 28.73    -0.003 A 
HETATM    9  C3    D T1480      10.521   1.810  -5.882  1.00 37.49     0.011 A 
HETATM   10  C2    D T1480       9.295   1.964  -6.501  1.00 34.69     0.058 A 
HETATM   11 CL1    D T1480       9.034   3.284  -7.593  1.00 50.48    -0.082 Cl
HETATM   12  C7    D T1480       8.268   1.075  -6.224  1.00 40.09     0.011 A 
HETATM   13  C6    D T1480       8.466   0.034  -5.341  1.00 30.28    -0.003 A 
ENDBRANCH   1   7
BRANCH   1  14
HETATM   14  C14   D T1480       9.934  -2.654  -4.475  1.00 24.09    -0.019 A 
HETATM   15  C15   D T1480       8.895  -3.576  -4.422  1.00 24.10    -0.004 A 
HETATM   16  C16   D T1480       8.993  -4.791  -5.086  1.00 25.21    -0.000 A 
HETATM   17  C17   D T1480      10.132  -5.102  -5.821  1.00 22.67     0.003 A 
HETATM   18  C18   D T1480      11.155  -4.181  -5.874  1.00 26.22    -0.000 A 
HETATM   19  C19   D T1480      11.060  -2.978  -5.218  1.00 25.71    -0.004 A 
BRANCH  17  20
HETATM   20  C20   D T1480      10.292  -6.382  -6.522  1.00 20.81     0.042 A 
HETATM   21  C21   D T1480       9.830  -7.644  -6.152  1.00 10.94     0.124 A 
HETATM   22  N22   D T1480      10.213  -8.589  -7.035  1.00 19.16    -0.146 NA
HETATM   23  N23   D T1480      10.954  -7.935  -7.975  1.00 25.24    -0.146 NA
HETATM   24  C24   D T1480      11.032  -6.608  -7.693  1.00 21.20     0.124 A 
ENDBRANCH  17  20
ENDBRANCH   1  14
TORSDOF 3
ENDMDL
MODEL 2
REMARK VINA RESULT:    -7.150      3.693      6.788
REMARK INTER + INTRA:          -9.500
REMARK INTER:                  -8.421
REMARK INTRA:                  -1.079
REMARK UNBOUND:                -1.096
REMARK  3 active torsions:
REMARK  status: ('A' for Active; 'I' for Inactive)
REMARK    1  A    between atoms: C5_5  and  C8_8 
REMARK    2  A    between atoms: C8_8  and  C14_14 
REMARK    3  A    between atoms: C17_17  and  C20_20 
ROOT
HETATM    1  C8    D T1480       9.683  -2.677  -4.022  1.00 24.84     0.042 C 
HETATM    2  C9    D T1480       8.467  -3.029  -3.135  1.00 24.83     0.046 C 
HETATM    3  C10   D T1480       8.292  -2.076  -1.972  1.00 24.63     0.291 C 
HETATM    4  N11   D T1480       9.508  -2.274  -1.140  1.00 23.69     0.339 N 
HETATM    5  C12   D T1480      10.674  -1.713  -1.876  1.00 25.57     0.291 C 
HETATM    6  C13   D T1480      10.918  -2.555  -3.114  1.00 27.98     0.046 C 
ENDROOT
BRANCH   1   7
HETATM    7  C5    D T1480       9.937  -3.882  -4.930  1.00 27.86    -0.019 A 
HETATM    8  C4    D T1480       9.258  -5.083  -4.732  1.00 28.73    -0.003 A 
HETATM    9  C3    D T1480       9.512  -6.171  -5.539  1.00 37.49     0.011 A 
HETATM   10  C2    D T1480      10.453  -6.078  -6.548  1.00 34.69     0.058 A 
HETATM   11 CL1    D T1480      10.783  -7.449  -7.554  1.00 50.48    -0.082 Cl
HETATM   12  C7    D T1480      11.150  -4.894  -6.732  1.00 40.09     0.011 A 
HETATM   13  C6    D T1480      10.903  -3.806  -5.919  1.00 30.28    -0.003 A 
ENDBRANCH   1   7
BRANCH   1  14
HETATM   14  C14   D T1480       9.391  -1.409  -4.850  1.00 24.09    -0.019 A 
HETATM   15  C15   D T1480      10.236  -0.306  -4.897  1.00 24.10    -0.004 A 
HETATM   16  C16   D T1480       9.901   0.809  -5.653  1.00 25.21    -0.000 A 
HETATM   17  C17   D T1480       8.718   0.836  -6.382  1.00 22.67     0.003 A 
HETATM   18  C18   D T1480       7.889  -0.264  -6.336  1.00 26.22    -0.000 A 
HETATM   19  C19   D T1480       8.218  -1.368  -5.588  1.00 25.71    -0.004 A 
BRANCH  17  20
HETATM   20  C20   D T1480       8.309   2.000  -7.179  1.00 20.81     0.042 A 
HETATM   21  C21   D T1480       7.194   2.146  -8.002  1.00 10.94     0.124 A 
HETATM   22  N22   D T1480       7.180   3.353  -8.605  1.00 19.16    -0.146 NA
HETATM   23  N23   D T1480       8.313   3.987  -8.185  1.00 25.24    -0.146 NA
HETATM   24  C24   D T1480       9.022   3.198  -7.335  1.00 21.20     0.124 A 
ENDBRANCH  17  20
ENDBRANCH   1  14
TORSDOF 3
ENDMDL
MODEL 3
REMARK VINA RESULT:    -7.087      3.735      6.837
REMARK INTER + INTRA:          -9.426
REMARK INTER:                  -8.539
REMARK INTRA:                  -0.887
REMARK UNBOUND:                -1.096
REMARK  3 active torsions:
REMARK  status: ('A' for Active; 'I' for Inactive)
REMARK    1  A    between atoms: C5_5  and  C8_8 
REMARK    2  A    between atoms: C8_8  and  C14_14 
REMARK    3  A    between atoms: C17_17  and  C20_20 
ROOT
HETATM    1  C8    D T1480       9.985  -2.375  -4.006  1.00 24.84     0.042 C 
HETATM    2  C9    D T1480      11.215  -3.105  -4.592  1.00 24.83     0.046 C 
HETATM    3  C10   D T1480      10.907  -3.835  -5.881  1.00 24.63     0.291 C 
HETATM    4  N11   D T1480       9.925  -4.880  -5.494  1.00 23.69     0.339 N 
HETATM    5  C12   D T1480       8.637  -4.212  -5.159  1.00 25.57     0.291 C 
HETATM    6  C13   D T1480       8.832  -3.388  -3.900  1.00 27.98     0.046 C 
ENDROOT
BRANCH   1   7
HETATM    7  C5    D T1480      10.340  -1.979  -2.572  1.00 27.86    -0.019 A 
HETATM    8  C4    D T1480      11.666  -1.967  -2.140  1.00 28.73    -0.003 A 
HETATM    9  C3    D T1480      11.974  -1.634  -0.840  1.00 37.49     0.011 A 
HETATM   10  C2    D T1480      10.965  -1.318   0.051  1.00 34.69     0.058 A 
HETATM   11 CL1    D T1480      11.351  -0.912   1.690  1.00 50.48    -0.082 Cl
HETATM   12  C7    D T1480       9.643  -1.354  -0.366  1.00 40.09     0.011 A 
HETATM   13  C6    D T1480       9.332  -1.696  -1.666  1.00 30.28    -0.003 A 
ENDBRANCH   1   7
BRANCH   1  14
HETATM   14  C14   D T1480       9.645  -1.133  -4.856  1.00 24.09    -0.019 A 
HETATM   15  C15   D T1480      10.510  -0.060  -5.036  1.00 24.10    -0.004 A 
HETATM   16  C16   D T1480      10.131   1.033  -5.803  1.00 25.21    -0.000 A 
HETATM   17  C17   D T1480       8.880   1.068  -6.409  1.00 22.67     0.003 A 
HETATM   18  C18   D T1480       8.030  -0.001  -6.230  1.00 26.22    -0.000 A 
HETATM   19  C19   D T1480       8.404  -1.084  -5.472  1.00 25.71    -0.004 A 
BRANCH  17  20
HETATM   20  C20   D T1480       8.424   2.211  -7.210  1.00 20.81     0.042 A 
HETATM   21  C21   D T1480       8.999   3.475  -7.333  1.00 10.94     0.124 A 
HETATM   22  N22   D T1480       8.264   4.276  -8.132  1.00 19.16    -0.146 NA
HETATM   23  N23   D T1480       7.188   3.528  -8.512  1.00 25.24    -0.146 NA
HETATM   24  C24   D T1480       7.246   2.286  -7.967  1.00 21.20     0.124 A 
ENDBRANCH  17  20
ENDBRANCH   1  14
TORSDOF 3
ENDMDL
MODEL 4
REMARK VINA RESULT:    -6.813      3.957      6.669
REMARK INTER + INTRA:          -9.104
REMARK INTER:                  -8.292
REMARK INTRA:                  -0.812
REMARK UNBOUND:                -1.096
REMARK  3 active torsions:
REMARK  status: ('A' for Active; 'I' for Inactive)
REMARK    1  A    between atoms: C5_5  and  C8_8 
REMARK    2  A    between atoms: C8_8  and  C14_14 
REMARK    3  A    between atoms: C17_17  and  C20_20 
ROOT
HETATM    1  C8    D T1480      10.046  -2.672  -2.745  1.00 24.84     0.042 C 
HETATM    2  C9    D T1480       9.093  -2.529  -1.536  1.00 24.83     0.046 C 
HETATM    3  C10   D T1480       9.431  -1.345  -0.657  1.00 24.63     0.291 C 
HETATM    4  N11   D T1480      10.778  -1.656  -0.112  1.00 23.69     0.339 N 
HETATM    5  C12   D T1480      11.766  -1.557  -1.223  1.00 25.57     0.291 C 
HETATM    6  C13   D T1480      11.491  -2.668  -2.218  1.00 27.98     0.046 C 
ENDROOT
BRANCH   1   7
HETATM    7  C5    D T1480       9.811  -4.062  -3.338  1.00 27.86    -0.019 A 
HETATM    8  C4    D T1480       9.703  -4.242  -4.717  1.00 28.73    -0.003 A 
HETATM    9  C3    D T1480       9.466  -5.494  -5.241  1.00 37.49     0.011 A 
HETATM   10  C2    D T1480       9.324  -6.581  -4.398  1.00 34.69     0.058 A 
HETATM   11 CL1    D T1480       9.012  -8.153  -5.056  1.00 50.48    -0.082 Cl
HETATM   12  C7    D T1480       9.404  -6.402  -3.026  1.00 40.09     0.011 A 
HETATM   13  C6    D T1480       9.633  -5.148  -2.498  1.00 30.28    -0.003 A 
ENDBRANCH   1   7
BRANCH   1  14
HETATM   14  C14   D T1480       9.760  -1.569  -3.784  1.00 24.09    -0.019 A 
HETATM   15  C15   D T1480      10.746  -0.773  -4.357  1.00 24.10    -0.004 A 
HETATM   16  C16   D T1480      10.413   0.212  -5.277  1.00 25.21    -0.000 A 
HETATM   17  C17   D T1480       9.088   0.415  -5.643  1.00 22.67     0.003 A 
HETATM   18  C18   D T1480       8.117  -0.381  -5.075  1.00 26.22    -0.000 A 
HETATM   19  C19   D T1480       8.444  -1.357  -4.166  1.00 25.71    -0.004 A 
BRANCH  17  20
HETATM   20  C20   D T1480       8.684   1.459  -6.593  1.00 20.81     0.042 A 
HETATM   21  C21   D T1480       7.631   1.447  -7.507  1.00 10.94     0.124 A 
HETATM   22  N22   D T1480       7.602   2.578  -8.241  1.00 19.16    -0.146 NA
HETATM   23  N23   D T1480       8.664   3.321  -7.814  1.00 25.24    -0.146 NA
HETATM   24  C24   D T1480       9.343   2.674  -6.832  1.00 21.20     0.124 A 
ENDBRANCH  17  20
ENDBRANCH   1  14
TORSDOF 3
ENDMDL
MODEL 5
REMARK VINA RESULT:    -6.698      4.634      7.340
REMARK INTER + INTRA:          -8.969
REMARK INTER:                  -7.884
REMARK INTRA:                  -1.085
REMARK UNBOUND:                -1.096
REMARK  3 active torsions:
REMARK  status: ('A' for Active; 'I' for Inactive)
REMARK    1  A    between atoms: C5_5  and  C8_8 
REMARK    2  A    between atoms: C8_8  and  C14_14 
REMARK    3  A    between atoms: C17_17  and  C20_20 
ROOT
HETATM    1  C8    D T1480       9.626  -5.019  -1.008  1.00 24.84     0.042 C 
HETATM    2  C9    D T1480       9.033  -4.547   0.339  1.00 24.83     0.046 C 
HETATM    3  C10   D T1480       9.863  -3.468   1.001  1.00 24.63     0.291 C 
HETATM    4  N11   D T1480      11.159  -4.126   1.304  1.00 23.69     0.339 N 
HETATM    5  C12   D T1480      11.871  -4.372   0.020  1.00 25.57     0.291 C 
HETATM    6  C13   D T1480      11.096  -5.406  -0.775  1.00 27.98     0.046 C 
ENDROOT
BRANCH   1   7
HETATM    7  C5    D T1480       8.899  -6.310  -1.389  1.00 27.86    -0.019 A 
HETATM    8  C4    D T1480       7.804  -6.759  -0.652  1.00 28.73    -0.003 A 
HETATM    9  C3    D T1480       7.171  -7.936  -0.986  1.00 37.49     0.011 A 
HETATM   10  C2    D T1480       7.628  -8.687  -2.054  1.00 34.69     0.058 A 
HETATM   11 CL1    D T1480       6.841 -10.174  -2.468  1.00 50.48    -0.082 Cl
HETATM   12  C7    D T1480       8.733  -8.259  -2.774  1.00 40.09     0.011 A 
HETATM   13  C6    D T1480       9.373  -7.084  -2.435  1.00 30.28    -0.003 A 
ENDBRANCH   1   7
BRANCH   1  14
HETATM   14  C14   D T1480       9.431  -3.934  -2.087  1.00 24.09    -0.019 A 
HETATM   15  C15   D T1480      10.409  -3.578  -3.009  1.00 24.10    -0.004 A 
HETATM   16  C16   D T1480      10.169  -2.580  -3.944  1.00 25.21    -0.000 A 
HETATM   17  C17   D T1480       8.943  -1.926  -3.976  1.00 22.67     0.003 A 
HETATM   18  C18   D T1480       7.977  -2.288  -3.063  1.00 26.22    -0.000 A 
HETATM   19  C19   D T1480       8.212  -3.275  -2.138  1.00 25.71    -0.004 A 
BRANCH  17  20
HETATM   20  C20   D T1480       8.649  -0.848  -4.930  1.00 20.81     0.042 A 
HETATM   21  C21   D T1480       9.151   0.452  -4.960  1.00 10.94     0.124 A 
HETATM   22  N22   D T1480       8.612   1.166  -5.969  1.00 19.16    -0.146 NA
HETATM   23  N23   D T1480       7.732   0.325  -6.586  1.00 25.24    -0.146 NA
HETATM   24  C24   D T1480       7.721  -0.891  -5.981  1.00 21.20     0.124 A 
ENDBRANCH  17  20
ENDBRANCH   1  14
TORSDOF 3
ENDMDL
MODEL 6
REMARK VINA RESULT:    -6.689      4.109      6.476
REMARK INTER + INTRA:          -8.958
REMARK INTER:                  -8.152
REMARK INTRA:                  -0.806
REMARK UNBOUND:                -1.096
REMARK  3 active torsions:
REMARK  status: ('A' for Active; 'I' for Inactive)
REMARK    1  A    between atoms: C5_5  and  C8_8 
REMARK    2  A    between atoms: C8_8  and  C14_14 
REMARK    3  A    between atoms: C17_17  and  C20_20 
ROOT
HETATM    1  C8    D T1480      10.471  -2.128  -1.452  1.00 24.84     0.042 C 
HETATM    2  C9    D T1480      10.741  -3.559  -1.968  1.00 24.83     0.046 C 
HETATM    3  C10   D T1480       9.471  -4.328  -2.261  1.00 24.63     0.291 C 
HETATM    4  N11   D T1480       8.802  -4.462  -0.942  1.00 23.69     0.339 N 
HETATM    5  C12   D T1480       8.307  -3.119  -0.531  1.00 25.57     0.291 C 
HETATM    6  C13   D T1480       9.501  -2.222  -0.263  1.00 27.98     0.046 C 
ENDROOT
BRANCH   1   7
HETATM    7  C5    D T1480      11.791  -1.600  -0.886  1.00 27.86    -0.019 A 
HETATM    8  C4    D T1480      12.893  -1.394  -1.715  1.00 28.73    -0.003 A 
HETATM    9  C3    D T1480      14.086  -0.942  -1.192  1.00 37.49     0.011 A 
HETATM   10  C2    D T1480      14.197  -0.698   0.164  1.00 34.69     0.058 A 
HETATM   11 CL1    D T1480      15.700  -0.143   0.824  1.00 50.48    -0.082 Cl
HETATM   12  C7    D T1480      13.112  -0.927   0.996  1.00 40.09     0.011 A 
HETATM   13  C6    D T1480      11.920  -1.387   0.476  1.00 30.28    -0.003 A 
ENDBRANCH   1   7
BRANCH   1  14
HETATM   14  C14   D T1480       9.963  -1.232  -2.601  1.00 24.09    -0.019 A 
HETATM   15  C15   D T1480       9.037  -0.209  -2.430  1.00 24.10    -0.004 A 
HETATM   16  C16   D T1480       8.612   0.547  -3.514  1.00 25.21    -0.000 A 
HETATM   17  C17   D T1480       9.111   0.296  -4.787  1.00 22.67     0.003 A 
HETATM   18  C18   D T1480      10.033  -0.716  -4.947  1.00 26.22    -0.000 A 
HETATM   19  C19   D T1480      10.455  -1.465  -3.876  1.00 25.71    -0.004 A 
BRANCH  17  20
HETATM   20  C20   D T1480       8.676   1.053  -5.968  1.00 20.81     0.042 A 
HETATM   21  C21   D T1480       7.633   0.773  -6.849  1.00 10.94     0.124 A 
HETATM   22  N22   D T1480       7.568   1.682  -7.842  1.00 19.16    -0.146 NA
HETATM   23  N23   D T1480       8.596   2.549  -7.615  1.00 25.24    -0.146 NA
HETATM   24  C24   D T1480       9.291   2.195  -6.503  1.00 21.20     0.124 A 
ENDBRANCH  17  20
ENDBRANCH   1  14
TORSDOF 3
ENDMDL
MODEL 7
REMARK VINA RESULT:    -6.547      4.496      6.793
REMARK INTER + INTRA:          -8.791
REMARK INTER:                  -7.708
REMARK INTRA:                  -1.084
REMARK UNBOUND:                -1.096
REMARK  3 active torsions:
REMARK  status: ('A' for Active; 'I' for Inactive)
REMARK    1  A    between atoms: C5_5  and  C8_8 
REMARK    2  A    between atoms: C8_8  and  C14_14 
REMARK    3  A    between atoms: C17_17  and  C20_20 
ROOT
HETATM    1  C8    D T1480      10.014  -3.028  -1.312  1.00 24.84     0.042 C 
HETATM    2  C9    D T1480       9.342  -2.422  -0.059  1.00 24.83     0.046 C 
HETATM    3  C10   D T1480       9.996  -1.134   0.393  1.00 24.63     0.291 C 
HETATM    4  N11   D T1480      11.372  -1.531   0.788  1.00 23.69     0.339 N 
HETATM    5  C12   D T1480      12.127  -1.888  -0.445  1.00 25.57     0.291 C 
HETATM    6  C13   D T1480      11.523  -3.147  -1.037  1.00 27.98     0.046 C 
ENDROOT
BRANCH   1   7
HETATM    7  C5    D T1480       9.491  -4.459  -1.452  1.00 27.86    -0.019 A 
HETATM    8  C4    D T1480       8.631  -5.003  -0.500  1.00 28.73    -0.003 A 
HETATM    9  C3    D T1480       8.185  -6.301  -0.620  1.00 37.49     0.011 A 
HETATM   10  C2    D T1480       8.598  -7.077  -1.687  1.00 34.69     0.058 A 
HETATM   11 CL1    D T1480       8.049  -8.714  -1.833  1.00 50.48    -0.082 Cl
HETATM   12  C7    D T1480       9.475  -6.550  -2.623  1.00 40.09     0.011 A 
HETATM   13  C6    D T1480       9.929  -5.253  -2.499  1.00 30.28    -0.003 A 
ENDBRANCH   1   7
BRANCH   1  14
HETATM   14  C14   D T1480       9.675  -2.189  -2.561  1.00 24.09    -0.019 A 
HETATM   15  C15   D T1480      10.630  -1.676  -3.431  1.00 24.10    -0.004 A 
HETATM   16  C16   D T1480      10.251  -0.914  -4.528  1.00 25.21    -0.000 A 
HETATM   17  C17   D T1480       8.908  -0.658  -4.777  1.00 22.67     0.003 A 
HETATM   18  C18   D T1480       7.967  -1.174  -3.913  1.00 26.22    -0.000 A 
HETATM   19  C19   D T1480       8.339  -1.928  -2.827  1.00 25.71    -0.004 A 
BRANCH  17  20
HETATM   20  C20   D T1480       8.459   0.161  -5.910  1.00 20.81     0.042 A 
HETATM   21  C21   D T1480       7.586  -0.180  -6.942  1.00 10.94     0.124 A 
HETATM   22  N22   D T1480       7.449   0.828  -7.827  1.00 19.16    -0.146 NA
HETATM   23  N23   D T1480       8.263   1.826  -7.375  1.00 25.24    -0.146 NA
HETATM   24  C24   D T1480       8.894   1.455  -6.231  1.00 21.20     0.124 A 
ENDBRANCH  17  20
ENDBRANCH   1  14
TORSDOF 3
ENDMDL
MODEL 8
REMARK VINA RESULT:    -6.513      4.230      6.896
REMARK INTER + INTRA:          -8.751
REMARK INTER:                  -7.957
REMARK INTRA:                  -0.794
REMARK UNBOUND:                -1.096
REMARK  3 active torsions:
REMARK  status: ('A' for Active; 'I' for Inactive)
REMARK    1  A    between atoms: C5_5  and  C8_8 
REMARK    2  A    between atoms: C8_8  and  C14_14 
REMARK    3  A    between atoms: C17_17  and  C20_20 
ROOT
HETATM    1  C8    D T1480       9.931  -3.950  -0.528  1.00 24.84     0.042 C 
HETATM    2  C9    D T1480      10.866  -5.110  -0.941  1.00 24.83     0.046 C 
HETATM    3  C10   D T1480      10.171  -6.151  -1.791  1.00 24.63     0.291 C 
HETATM    4  N11   D T1480       9.131  -6.728  -0.901  1.00 23.69     0.339 N 
HETATM    5  C12   D T1480       8.078  -5.698  -0.684  1.00 25.57     0.291 C 
HETATM    6  C13   D T1480       8.673  -4.555   0.116  1.00 27.98     0.046 C 
ENDROOT
BRANCH   1   7
HETATM    7  C5    D T1480      10.646  -3.171   0.577  1.00 27.86    -0.019 A 
HETATM    8  C4    D T1480      10.898  -3.758   1.817  1.00 28.73    -0.003 A 
HETATM    9  C3    D T1480      11.519  -3.040   2.816  1.00 37.49     0.011 A 
HETATM   10  C2    D T1480      11.889  -1.727   2.596  1.00 34.69     0.058 A 
HETATM   11 CL1    D T1480      12.659  -0.820   3.856  1.00 50.48    -0.082 Cl
HETATM   12  C7    D T1480      11.617  -1.131   1.374  1.00 40.09     0.011 A 
HETATM   13  C6    D T1480      10.987  -1.845   0.375  1.00 30.28    -0.003 A 
ENDBRANCH   1   7
BRANCH   1  14
HETATM   14  C14   D T1480       9.635  -3.045  -1.741  1.00 24.09    -0.019 A 
HETATM   15  C15   D T1480      10.498  -2.892  -2.820  1.00 24.10    -0.004 A 
HETATM   16  C16   D T1480      10.172  -2.046  -3.872  1.00 25.21    -0.000 A 
HETATM   17  C17   D T1480       8.972  -1.344  -3.865  1.00 22.67     0.003 A 
HETATM   18  C18   D T1480       8.120  -1.505  -2.795  1.00 26.22    -0.000 A 
HETATM   19  C19   D T1480       8.440  -2.341  -1.753  1.00 25.71    -0.004 A 
BRANCH  17  20
HETATM   20  C20   D T1480       8.593  -0.420  -4.942  1.00 20.81     0.042 A 
HETATM   21  C21   D T1480       7.782  -0.658  -6.050  1.00 10.94     0.124 A 
HETATM   22  N22   D T1480       7.700   0.429  -6.845  1.00 19.16    -0.146 NA
HETATM   23  N23   D T1480       8.487   1.375  -6.256  1.00 25.24    -0.146 NA
HETATM   24  C24   D T1480       9.049   0.895  -5.116  1.00 21.20     0.124 A 
ENDBRANCH  17  20
ENDBRANCH   1  14
TORSDOF 3
ENDMDL
MODEL 9
REMARK VINA RESULT:    -6.390      3.285      4.242
REMARK INTER + INTRA:          -8.607
REMARK INTER:                  -7.530
REMARK INTRA:                  -1.077
REMARK UNBOUND:                -1.096
REMARK  3 active torsions:
REMARK  status: ('A' for Active; 'I' for Inactive)
REMARK    1  A    between atoms: C5_5  and  C8_8 
REMARK    2  A    between atoms: C8_8  and  C14_14 
REMARK    3  A    between atoms: C17_17  and  C20_20 
ROOT
HETATM    1  C8    D T1480      10.427  -2.042  -1.299  1.00 24.84     0.042 C 
HETATM    2  C9    D T1480      11.960  -2.064  -1.494  1.00 24.83     0.046 C 
HETATM    3  C10   D T1480      12.705  -2.481  -0.244  1.00 24.63     0.291 C 
HETATM    4  N11   D T1480      12.409  -1.411   0.743  1.00 23.69     0.339 N 
HETATM    5  C12   D T1480      10.978  -1.523   1.139  1.00 25.57     0.291 C 
HETATM    6  C13   D T1480      10.114  -1.185  -0.060  1.00 27.98     0.046 C 
ENDROOT
BRANCH   1   7
HETATM    7  C5    D T1480       9.835  -1.295  -2.496  1.00 27.86    -0.019 A 
HETATM    8  C4    D T1480       8.457  -1.131  -2.627  1.00 28.73    -0.003 A 
HETATM    9  C3    D T1480       7.931  -0.480  -3.721  1.00 37.49     0.011 A 
HETATM   10  C2    D T1480       8.771   0.009  -4.704  1.00 34.69     0.058 A 
HETATM   11 CL1    D T1480       8.110   0.816  -6.087  1.00 50.48    -0.082 Cl
HETATM   12  C7    D T1480      10.141  -0.175  -4.592  1.00 40.09     0.011 A 
HETATM   13  C6    D T1480      10.669  -0.835  -3.501  1.00 30.28    -0.003 A 
ENDBRANCH   1   7
BRANCH   1  14
HETATM   14  C14   D T1480       9.877  -3.480  -1.215  1.00 24.09    -0.019 A 
HETATM   15  C15   D T1480       9.104  -3.951  -0.161  1.00 24.10    -0.004 A 
HETATM   16  C16   D T1480       8.656  -5.265  -0.144  1.00 25.21    -0.000 A 
HETATM   17  C17   D T1480       8.969  -6.129  -1.187  1.00 22.67     0.003 A 
HETATM   18  C18   D T1480       9.732  -5.653  -2.232  1.00 26.22    -0.000 A 
HETATM   19  C19   D T1480      10.176  -4.354  -2.250  1.00 25.71    -0.004 A 
BRANCH  17  20
HETATM   20  C20   D T1480       8.538  -7.533  -1.205  1.00 20.81     0.042 A 
HETATM   21  C21   D T1480       7.248  -8.051  -1.106  1.00 10.94     0.124 A 
HETATM   22  N22   D T1480       7.256  -9.400  -1.118  1.00 19.16    -0.146 NA
HETATM   23  N23   D T1480       8.569  -9.759  -1.202  1.00 25.24    -0.146 NA
HETATM   24  C24   D T1480       9.369  -8.662  -1.244  1.00 21.20     0.124 A 
ENDBRANCH  17  20
ENDBRANCH   1  14
TORSDOF 3
ENDMDL
