MODEL 1
REMARK VINA RESULT:    -7.267      0.000      0.000
REMARK INTER + INTRA:          -9.260
REMARK INTER:                  -8.542
REMARK INTRA:                  -0.719
REMARK UNBOUND:                -0.719
REMARK  3 active torsions:
REMARK  status: ('A' for Active; 'I' for Inactive)
REMARK    1  A    between atoms: C5_5  and  C8_8 
REMARK    2  A    between atoms: C8_8  and  C14_14 
REMARK    3  A    between atoms: C17_17  and  C20_20 
ROOT
HETATM    1  C8    D T1480      -5.620  -3.221  -6.303  1.00 24.84     0.042 C 
HETATM    2  C9    D T1480      -5.948  -2.386  -5.045  1.00 24.83     0.046 C 
HETATM    3  C10   D T1480      -6.704  -1.115  -5.364  1.00 24.63     0.291 C 
HETATM    4  N11   D T1480      -5.760  -0.312  -6.184  1.00 23.69     0.339 N 
HETATM    5  C12   D T1480      -5.615  -0.972  -7.511  1.00 25.57     0.291 C 
HETATM    6  C13   D T1480      -4.915  -2.305  -7.317  1.00 27.98     0.046 C 
ENDROOT
BRANCH   1   7
HETATM    7  C5    D T1480      -4.588  -4.269  -5.887  1.00 27.86    -0.019 A 
HETATM    8  C4    D T1480      -3.476  -3.917  -5.123  1.00 28.73    -0.003 A 
HETATM    9  C3    D T1480      -2.538  -4.863  -4.773  1.00 37.49     0.011 A 
HETATM   10  C2    D T1480      -2.690  -6.173  -5.188  1.00 34.69     0.058 A 
HETATM   11 CL1    D T1480      -1.504  -7.362  -4.760  1.00 50.48    -0.082 Cl
HETATM   12  C7    D T1480      -3.780  -6.524  -5.970  1.00 40.09     0.011 A 
HETATM   13  C6    D T1480      -4.716  -5.577  -6.327  1.00 30.28    -0.003 A 
ENDBRANCH   1   7
BRANCH   1  14
HETATM   14  C14   D T1480      -6.899  -3.888  -6.850  1.00 24.09    -0.019 A 
HETATM   15  C15   D T1480      -7.051  -4.300  -8.170  1.00 24.10    -0.004 A 
HETATM   16  C16   D T1480      -8.238  -4.880  -8.596  1.00 25.21    -0.000 A 
HETATM   17  C17   D T1480      -9.291  -5.064  -7.708  1.00 22.67     0.003 A 
HETATM   18  C18   D T1480      -9.131  -4.657  -6.401  1.00 26.22    -0.000 A 
HETATM   19  C19   D T1480      -7.957  -4.084  -5.976  1.00 25.71    -0.004 A 
BRANCH  17  20
HETATM   20  C20   D T1480     -10.574  -5.651  -8.116  1.00 20.81     0.042 A 
HETATM   21  C21   D T1480     -10.975  -6.985  -8.079  1.00 10.94     0.124 A 
HETATM   22  N22   D T1480     -12.216  -7.142  -8.580  1.00 19.16    -0.146 NA
HETATM   23  N23   D T1480     -12.617  -5.898  -8.969  1.00 25.24    -0.146 NA
HETATM   24  C24   D T1480     -11.649  -4.977  -8.716  1.00 21.20     0.124 A 
ENDBRANCH  17  20
ENDBRANCH   1  14
TORSDOF 3
ENDMDL
MODEL 2
REMARK VINA RESULT:    -7.235      0.181      1.391
REMARK INTER + INTRA:          -9.223
REMARK INTER:                  -8.422
REMARK INTRA:                  -0.801
REMARK UNBOUND:                -0.719
REMARK  3 active torsions:
REMARK  status: ('A' for Active; 'I' for Inactive)
REMARK    1  A    between atoms: C5_5  and  C8_8 
REMARK    2  A    between atoms: C8_8  and  C14_14 
REMARK    3  A    between atoms: C17_17  and  C20_20 
ROOT
HETATM    1  C8    D T1480      -5.649  -3.173  -6.292  1.00 24.84     0.042 C 
HETATM    2  C9    D T1480      -5.861  -2.259  -5.065  1.00 24.83     0.046 C 
HETATM    3  C10   D T1480      -6.627  -0.997  -5.398  1.00 24.63     0.291 C 
HETATM    4  N11   D T1480      -5.744  -0.261  -6.341  1.00 23.69     0.339 N 
HETATM    5  C12   D T1480      -5.719  -1.002  -7.632  1.00 25.57     0.291 C 
HETATM    6  C13   D T1480      -5.020  -2.331  -7.415  1.00 27.98     0.046 C 
ENDROOT
BRANCH   1   7
HETATM    7  C5    D T1480      -4.597  -4.212  -5.899  1.00 27.86    -0.019 A 
HETATM    8  C4    D T1480      -4.737  -5.549  -6.268  1.00 28.73    -0.003 A 
HETATM    9  C3    D T1480      -3.798  -6.482  -5.889  1.00 37.49     0.011 A 
HETATM   10  C2    D T1480      -2.710  -6.097  -5.128  1.00 34.69     0.058 A 
HETATM   11 CL1    D T1480      -1.535  -7.273  -4.639  1.00 50.48    -0.082 Cl
HETATM   12  C7    D T1480      -2.579  -4.774  -4.735  1.00 40.09     0.011 A 
HETATM   13  C6    D T1480      -3.522  -3.839  -5.108  1.00 30.28    -0.003 A 
ENDBRANCH   1   7
BRANCH   1  14
HETATM   14  C14   D T1480      -6.977  -3.851  -6.690  1.00 24.09    -0.019 A 
HETATM   15  C15   D T1480      -8.017  -4.094  -5.800  1.00 24.10    -0.004 A 
HETATM   16  C16   D T1480      -9.178  -4.722  -6.226  1.00 25.21    -0.000 A 
HETATM   17  C17   D T1480      -9.323  -5.112  -7.552  1.00 22.67     0.003 A 
HETATM   18  C18   D T1480      -8.290  -4.862  -8.430  1.00 26.22    -0.000 A 
HETATM   19  C19   D T1480      -7.139  -4.240  -8.011  1.00 25.71    -0.004 A 
BRANCH  17  20
HETATM   20  C20   D T1480     -10.523  -5.800  -8.046  1.00 20.81     0.042 A 
HETATM   21  C21   D T1480     -10.800  -7.166  -8.064  1.00 10.94     0.124 A 
HETATM   22  N22   D T1480     -11.993  -7.420  -8.638  1.00 19.16    -0.146 NA
HETATM   23  N23   D T1480     -12.486  -6.206  -9.017  1.00 25.24    -0.146 NA
HETATM   24  C24   D T1480     -11.622  -5.209  -8.687  1.00 21.20     0.124 A 
ENDBRANCH  17  20
ENDBRANCH   1  14
TORSDOF 3
ENDMDL
MODEL 3
REMARK VINA RESULT:    -7.008      3.970      5.694
REMARK INTER + INTRA:          -8.956
REMARK INTER:                  -8.177
REMARK INTRA:                  -0.779
REMARK UNBOUND:                -0.719
REMARK  3 active torsions:
REMARK  status: ('A' for Active; 'I' for Inactive)
REMARK    1  A    between atoms: C5_5  and  C8_8 
REMARK    2  A    between atoms: C8_8  and  C14_14 
REMARK    3  A    between atoms: C17_17  and  C20_20 
ROOT
HETATM    1  C8    D T1480      -5.838  -2.667  -5.939  1.00 24.84     0.042 C 
HETATM    2  C9    D T1480      -5.658  -1.917  -7.277  1.00 24.83     0.046 C 
HETATM    3  C10   D T1480      -4.210  -1.814  -7.703  1.00 24.63     0.291 C 
HETATM    4  N11   D T1480      -3.567  -0.985  -6.650  1.00 23.69     0.339 N 
HETATM    5  C12   D T1480      -3.505  -1.787  -5.397  1.00 25.57     0.291 C 
HETATM    6  C13   D T1480      -4.918  -2.014  -4.894  1.00 27.98     0.046 C 
ENDROOT
BRANCH   1   7
HETATM    7  C5    D T1480      -7.270  -2.406  -5.469  1.00 27.86    -0.019 A 
HETATM    8  C4    D T1480      -8.188  -1.757  -6.294  1.00 28.73    -0.003 A 
HETATM    9  C3    D T1480      -9.468  -1.503  -5.854  1.00 37.49     0.011 A 
HETATM   10  C2    D T1480      -9.848  -1.884  -4.580  1.00 34.69     0.058 A 
HETATM   11 CL1    D T1480     -11.454  -1.553  -4.020  1.00 50.48    -0.082 Cl
HETATM   12  C7    D T1480      -8.933  -2.505  -3.745  1.00 40.09     0.011 A 
HETATM   13  C6    D T1480      -7.648  -2.754  -4.182  1.00 30.28    -0.003 A 
ENDBRANCH   1   7
BRANCH   1  14
HETATM   14  C14   D T1480      -5.585  -4.177  -6.134  1.00 24.09    -0.019 A 
HETATM   15  C15   D T1480      -4.404  -4.815  -5.770  1.00 24.10    -0.004 A 
HETATM   16  C16   D T1480      -4.241  -6.176  -5.990  1.00 25.21    -0.000 A 
HETATM   17  C17   D T1480      -5.258  -6.923  -6.571  1.00 22.67     0.003 A 
HETATM   18  C18   D T1480      -6.428  -6.284  -6.924  1.00 26.22    -0.000 A 
HETATM   19  C19   D T1480      -6.592  -4.938  -6.707  1.00 25.71    -0.004 A 
BRANCH  17  20
HETATM   20  C20   D T1480      -5.124  -8.360  -6.845  1.00 20.81     0.042 A 
HETATM   21  C21   D T1480      -3.965  -9.103  -7.059  1.00 10.94     0.124 A 
HETATM   22  N22   D T1480      -4.248 -10.394  -7.324  1.00 19.16    -0.146 NA
HETATM   23  N23   D T1480      -5.609 -10.485  -7.304  1.00 25.24    -0.146 NA
HETATM   24  C24   D T1480      -6.170  -9.277  -7.031  1.00 21.20     0.124 A 
ENDBRANCH  17  20
ENDBRANCH   1  14
TORSDOF 3
ENDMDL
MODEL 4
REMARK VINA RESULT:    -6.908      3.421      4.735
REMARK INTER + INTRA:          -8.838
REMARK INTER:                  -7.750
REMARK INTRA:                  -1.088
REMARK UNBOUND:                -0.719
REMARK  3 active torsions:
REMARK  status: ('A' for Active; 'I' for Inactive)
REMARK    1  A    between atoms: C5_5  and  C8_8 
REMARK    2  A    between atoms: C8_8  and  C14_14 
REMARK    3  A    between atoms: C17_17  and  C20_20 
ROOT
HETATM    1  C8    D T1480      -8.019  -3.460  -5.955  1.00 24.84     0.042 C 
HETATM    2  C9    D T1480      -8.576  -3.474  -4.514  1.00 24.83     0.046 C 
HETATM    3  C10   D T1480     -10.000  -3.982  -4.440  1.00 24.63     0.291 C 
HETATM    4  N11   D T1480     -10.794  -2.985  -5.204  1.00 23.69     0.339 N 
HETATM    5  C12   D T1480     -10.452  -3.121  -6.647  1.00 25.57     0.291 C 
HETATM    6  C13   D T1480      -9.009  -2.694  -6.846  1.00 27.98     0.046 C 
ENDROOT
BRANCH   1   7
HETATM    7  C5    D T1480      -6.736  -2.628  -5.930  1.00 27.86    -0.019 A 
HETATM    8  C4    D T1480      -6.023  -2.374  -7.101  1.00 28.73    -0.003 A 
HETATM    9  C3    D T1480      -4.856  -1.643  -7.065  1.00 37.49     0.011 A 
HETATM   10  C2    D T1480      -4.378  -1.164  -5.860  1.00 34.69     0.058 A 
HETATM   11 CL1    D T1480      -2.902  -0.256  -5.812  1.00 50.48    -0.082 Cl
HETATM   12  C7    D T1480      -5.067  -1.435  -4.689  1.00 40.09     0.011 A 
HETATM   13  C6    D T1480      -6.233  -2.173  -4.721  1.00 30.28    -0.003 A 
ENDBRANCH   1   7
BRANCH   1  14
HETATM   14  C14   D T1480      -7.736  -4.900  -6.433  1.00 24.09    -0.019 A 
HETATM   15  C15   D T1480      -8.252  -5.439  -7.606  1.00 24.10    -0.004 A 
HETATM   16  C16   D T1480      -7.968  -6.750  -7.965  1.00 25.21    -0.000 A 
HETATM   17  C17   D T1480      -7.156  -7.541  -7.161  1.00 22.67     0.003 A 
HETATM   18  C18   D T1480      -6.645  -6.997  -6.002  1.00 26.22    -0.000 A 
HETATM   19  C19   D T1480      -6.924  -5.701  -5.645  1.00 25.71    -0.004 A 
BRANCH  17  20
HETATM   20  C20   D T1480      -6.846  -8.939  -7.487  1.00 20.81     0.042 A 
HETATM   21  C21   D T1480      -7.662  -9.898  -8.084  1.00 10.94     0.124 A 
HETATM   22  N22   D T1480      -7.035 -11.088  -8.180  1.00 19.16    -0.146 NA
HETATM   23  N23   D T1480      -5.806 -10.904  -7.619  1.00 25.24    -0.146 NA
HETATM   24  C24   D T1480      -5.661  -9.626  -7.179  1.00 21.20     0.124 A 
ENDBRANCH  17  20
ENDBRANCH   1  14
TORSDOF 3
ENDMDL
MODEL 5
REMARK VINA RESULT:    -6.868      3.622      5.267
REMARK INTER + INTRA:          -8.791
REMARK INTER:                  -7.781
REMARK INTRA:                  -1.010
REMARK UNBOUND:                -0.719
REMARK  3 active torsions:
REMARK  status: ('A' for Active; 'I' for Inactive)
REMARK    1  A    between atoms: C5_5  and  C8_8 
REMARK    2  A    between atoms: C8_8  and  C14_14 
REMARK    3  A    between atoms: C17_17  and  C20_20 
ROOT
HETATM    1  C8    D T1480      -6.265  -2.180  -6.159  1.00 24.84     0.042 C 
HETATM    2  C9    D T1480      -5.687  -1.404  -7.364  1.00 24.83     0.046 C 
HETATM    3  C10   D T1480      -4.264  -1.801  -7.691  1.00 24.63     0.291 C 
HETATM    4  N11   D T1480      -3.478  -1.397  -6.496  1.00 23.69     0.339 N 
HETATM    5  C12   D T1480      -3.840  -2.302  -5.370  1.00 25.57     0.291 C 
HETATM    6  C13   D T1480      -5.284  -2.041  -4.983  1.00 27.98     0.046 C 
ENDROOT
BRANCH   1   7
HETATM    7  C5    D T1480      -7.544  -1.459  -5.735  1.00 27.86    -0.019 A 
HETATM    8  C4    D T1480      -8.284  -1.898  -4.637  1.00 28.73    -0.003 A 
HETATM    9  C3    D T1480      -9.449  -1.257  -4.276  1.00 37.49     0.011 A 
HETATM   10  C2    D T1480      -9.898  -0.175  -5.010  1.00 34.69     0.058 A 
HETATM   11 CL1    D T1480     -11.370   0.624  -4.566  1.00 50.48    -0.082 Cl
HETATM   12  C7    D T1480      -9.182   0.249  -6.119  1.00 40.09     0.011 A 
HETATM   13  C6    D T1480      -8.018  -0.396  -6.486  1.00 30.28    -0.003 A 
ENDBRANCH   1   7
BRANCH   1  14
HETATM   14  C14   D T1480      -6.557  -3.642  -6.557  1.00 24.09    -0.019 A 
HETATM   15  C15   D T1480      -7.298  -4.005  -7.677  1.00 24.10    -0.004 A 
HETATM   16  C16   D T1480      -7.534  -5.342  -7.964  1.00 25.21    -0.000 A 
HETATM   17  C17   D T1480      -7.027  -6.340  -7.141  1.00 22.67     0.003 A 
HETATM   18  C18   D T1480      -6.290  -5.973  -6.036  1.00 26.22    -0.000 A 
HETATM   19  C19   D T1480      -6.054  -4.650  -5.749  1.00 25.71    -0.004 A 
BRANCH  17  20
HETATM   20  C20   D T1480      -7.269  -7.767  -7.390  1.00 20.81     0.042 A 
HETATM   21  C21   D T1480      -6.468  -8.859  -7.062  1.00 10.94     0.124 A 
HETATM   22  N22   D T1480      -7.008 -10.015  -7.495  1.00 19.16    -0.146 NA
HETATM   23  N23   D T1480      -8.163  -9.668  -8.132  1.00 25.24    -0.146 NA
HETATM   24  C24   D T1480      -8.346  -8.322  -8.099  1.00 21.20     0.124 A 
ENDBRANCH  17  20
ENDBRANCH   1  14
TORSDOF 3
ENDMDL
MODEL 6
REMARK VINA RESULT:    -6.867      4.080      7.155
REMARK INTER + INTRA:          -8.790
REMARK INTER:                  -7.795
REMARK INTRA:                  -0.995
REMARK UNBOUND:                -0.719
REMARK  3 active torsions:
REMARK  status: ('A' for Active; 'I' for Inactive)
REMARK    1  A    between atoms: C5_5  and  C8_8 
REMARK    2  A    between atoms: C8_8  and  C14_14 
REMARK    3  A    between atoms: C17_17  and  C20_20 
ROOT
HETATM    1  C8    D T1480      -8.478  -1.547  -6.985  1.00 24.84     0.042 C 
HETATM    2  C9    D T1480      -8.417  -1.792  -8.510  1.00 24.83     0.046 C 
HETATM    3  C10   D T1480      -9.769  -1.669  -9.179  1.00 24.63     0.291 C 
HETATM    4  N11   D T1480     -10.579  -2.770  -8.594  1.00 23.69     0.339 N 
HETATM    5  C12   D T1480     -10.864  -2.435  -7.171  1.00 25.57     0.291 C 
HETATM    6  C13   D T1480      -9.560  -2.465  -6.394  1.00 27.98     0.046 C 
ENDROOT
BRANCH   1   7
HETATM    7  C5    D T1480      -7.148  -2.027  -6.403  1.00 27.86    -0.019 A 
HETATM    8  C4    D T1480      -6.773  -1.693  -5.102  1.00 28.73    -0.003 A 
HETATM    9  C3    D T1480      -5.563  -2.109  -4.593  1.00 37.49     0.011 A 
HETATM   10  C2    D T1480      -4.704  -2.855  -5.378  1.00 34.69     0.058 A 
HETATM   11 CL1    D T1480      -3.174  -3.368  -4.744  1.00 50.48    -0.082 Cl
HETATM   12  C7    D T1480      -5.058  -3.168  -6.681  1.00 40.09     0.011 A 
HETATM   13  C6    D T1480      -6.268  -2.746  -7.195  1.00 30.28    -0.003 A 
ENDBRANCH   1   7
BRANCH   1  14
HETATM   14  C14   D T1480      -8.704  -0.049  -6.693  1.00 24.09    -0.019 A 
HETATM   15  C15   D T1480      -9.764   0.438  -5.935  1.00 24.10    -0.004 A 
HETATM   16  C16   D T1480      -9.913   1.802  -5.726  1.00 25.21    -0.000 A 
HETATM   17  C17   D T1480      -9.001   2.702  -6.264  1.00 22.67     0.003 A 
HETATM   18  C18   D T1480      -7.951   2.210  -7.010  1.00 26.22    -0.000 A 
HETATM   19  C19   D T1480      -7.800   0.861  -7.218  1.00 25.71    -0.004 A 
BRANCH  17  20
HETATM   20  C20   D T1480      -9.129   4.155  -6.090  1.00 20.81     0.042 A 
HETATM   21  C21   D T1480     -10.022   5.032  -6.704  1.00 10.94     0.124 A 
HETATM   22  N22   D T1480      -9.805   6.305  -6.320  1.00 19.16    -0.146 NA
HETATM   23  N23   D T1480      -8.743   6.257  -5.464  1.00 25.24    -0.146 NA
HETATM   24  C24   D T1480      -8.304   4.980  -5.312  1.00 21.20     0.124 A 
ENDBRANCH  17  20
ENDBRANCH   1  14
TORSDOF 3
ENDMDL
MODEL 7
REMARK VINA RESULT:    -6.766      3.229      4.179
REMARK INTER + INTRA:          -8.671
REMARK INTER:                  -7.761
REMARK INTRA:                  -0.909
REMARK UNBOUND:                -0.719
REMARK  3 active torsions:
REMARK  status: ('A' for Active; 'I' for Inactive)
REMARK    1  A    between atoms: C5_5  and  C8_8 
REMARK    2  A    between atoms: C8_8  and  C14_14 
REMARK    3  A    between atoms: C17_17  and  C20_20 
ROOT
HETATM    1  C8    D T1480      -5.535  -3.243  -6.256  1.00 24.84     0.042 C 
HETATM    2  C9    D T1480      -4.403  -2.896  -5.263  1.00 24.83     0.046 C 
HETATM    3  C10   D T1480      -4.017  -1.433  -5.301  1.00 24.63     0.291 C 
HETATM    4  N11   D T1480      -3.475  -1.223  -6.670  1.00 23.69     0.339 N 
HETATM    5  C12   D T1480      -4.604  -1.310  -7.638  1.00 25.57     0.291 C 
HETATM    6  C13   D T1480      -5.127  -2.734  -7.648  1.00 27.98     0.046 C 
ENDROOT
BRANCH   1   7
HETATM    7  C5    D T1480      -5.586  -4.768  -6.358  1.00 27.86    -0.019 A 
HETATM    8  C4    D T1480      -4.453  -5.542  -6.110  1.00 28.73    -0.003 A 
HETATM    9  C3    D T1480      -4.502  -6.913  -6.228  1.00 37.49     0.011 A 
HETATM   10  C2    D T1480      -5.679  -7.533  -6.605  1.00 34.69     0.058 A 
HETATM   11 CL1    D T1480      -5.738  -9.257  -6.768  1.00 50.48    -0.082 Cl
HETATM   12  C7    D T1480      -6.802  -6.767  -6.880  1.00 40.09     0.011 A 
HETATM   13  C6    D T1480      -6.753  -5.393  -6.768  1.00 30.28    -0.003 A 
ENDBRANCH   1   7
BRANCH   1  14
HETATM   14  C14   D T1480      -6.879  -2.675  -5.754  1.00 24.09    -0.019 A 
HETATM   15  C15   D T1480      -7.251  -2.642  -4.414  1.00 24.10    -0.004 A 
HETATM   16  C16   D T1480      -8.484  -2.128  -4.037  1.00 25.21    -0.000 A 
HETATM   17  C17   D T1480      -9.363  -1.632  -4.992  1.00 22.67     0.003 A 
HETATM   18  C18   D T1480      -8.984  -1.664  -6.317  1.00 26.22    -0.000 A 
HETATM   19  C19   D T1480      -7.764  -2.171  -6.693  1.00 25.71    -0.004 A 
BRANCH  17  20
HETATM   20  C20   D T1480     -10.687  -1.100  -4.645  1.00 20.81     0.042 A 
HETATM   21  C21   D T1480     -11.135   0.219  -4.682  1.00 10.94     0.124 A 
HETATM   22  N22   D T1480     -12.407   0.321  -4.247  1.00 19.16    -0.146 NA
HETATM   23  N23   D T1480     -12.781  -0.945  -3.902  1.00 25.24    -0.146 NA
HETATM   24  C24   D T1480     -11.767  -1.824  -4.117  1.00 21.20     0.124 A 
ENDBRANCH  17  20
ENDBRANCH   1  14
TORSDOF 3
ENDMDL
MODEL 8
REMARK VINA RESULT:    -6.747      3.860      5.470
REMARK INTER + INTRA:          -8.649
REMARK INTER:                  -7.632
REMARK INTRA:                  -1.017
REMARK UNBOUND:                -0.719
REMARK  3 active torsions:
REMARK  status: ('A' for Active; 'I' for Inactive)
REMARK    1  A    between atoms: C5_5  and  C8_8 
REMARK    2  A    between atoms: C8_8  and  C14_14 
REMARK    3  A    between atoms: C17_17  and  C20_20 
ROOT
HETATM    1  C8    D T1480      -6.060  -2.536  -6.633  1.00 24.84     0.042 C 
HETATM    2  C9    D T1480      -5.668  -2.615  -5.141  1.00 24.83     0.046 C 
HETATM    3  C10   D T1480      -4.745  -1.494  -4.716  1.00 24.63     0.291 C 
HETATM    4  N11   D T1480      -3.503  -1.711  -5.504  1.00 23.69     0.339 N 
HETATM    5  C12   D T1480      -3.795  -1.398  -6.931  1.00 25.57     0.291 C 
HETATM    6  C13   D T1480      -4.771  -2.430  -7.464  1.00 27.98     0.046 C 
ENDROOT
BRANCH   1   7
HETATM    7  C5    D T1480      -6.695  -3.877  -7.001  1.00 27.86    -0.019 A 
HETATM    8  C4    D T1480      -6.483  -5.010  -6.215  1.00 28.73    -0.003 A 
HETATM    9  C3    D T1480      -7.038  -6.220  -6.566  1.00 37.49     0.011 A 
HETATM   10  C2    D T1480      -7.806  -6.321  -7.712  1.00 34.69     0.058 A 
HETATM   11 CL1    D T1480      -8.494  -7.846  -8.163  1.00 50.48    -0.082 Cl
HETATM   12  C7    D T1480      -7.998  -5.205  -8.512  1.00 40.09     0.011 A 
HETATM   13  C6    D T1480      -7.437  -3.994  -8.165  1.00 30.28    -0.003 A 
ENDBRANCH   1   7
BRANCH   1  14
HETATM   14  C14   D T1480      -7.047  -1.372  -6.865  1.00 24.09    -0.019 A 
HETATM   15  C15   D T1480      -6.878  -0.399  -7.844  1.00 24.10    -0.004 A 
HETATM   16  C16   D T1480      -7.800   0.628  -7.985  1.00 25.21    -0.000 A 
HETATM   17  C17   D T1480      -8.912   0.696  -7.154  1.00 22.67     0.003 A 
HETATM   18  C18   D T1480      -9.075  -0.275  -6.190  1.00 26.22    -0.000 A 
HETATM   19  C19   D T1480      -8.165  -1.293  -6.048  1.00 25.71    -0.004 A 
BRANCH  17  20
HETATM   20  C20   D T1480      -9.903   1.776  -7.249  1.00 20.81     0.042 A 
HETATM   21  C21   D T1480      -9.710   3.108  -7.610  1.00 10.94     0.124 A 
HETATM   22  N22   D T1480     -10.858   3.810  -7.538  1.00 19.16    -0.146 NA
HETATM   23  N23   D T1480     -11.804   2.928  -7.103  1.00 25.24    -0.146 NA
HETATM   24  C24   D T1480     -11.262   1.698  -6.906  1.00 21.20     0.124 A 
ENDBRANCH  17  20
ENDBRANCH   1  14
TORSDOF 3
ENDMDL
MODEL 9
REMARK VINA RESULT:    -6.685      6.628      9.039
REMARK INTER + INTRA:          -8.576
REMARK INTER:                  -7.838
REMARK INTRA:                  -0.738
REMARK UNBOUND:                -0.719
REMARK  3 active torsions:
REMARK  status: ('A' for Active; 'I' for Inactive)
REMARK    1  A    between atoms: C5_5  and  C8_8 
REMARK    2  A    between atoms: C8_8  and  C14_14 
REMARK    3  A    between atoms: C17_17  and  C20_20 
ROOT
HETATM    1  C8    D T1480      -9.346   4.713  -6.723  1.00 24.84     0.042 C 
HETATM    2  C9    D T1480      -9.519   5.143  -5.249  1.00 24.83     0.046 C 
HETATM    3  C10   D T1480     -10.889   4.814  -4.698  1.00 24.63     0.291 C 
HETATM    4  N11   D T1480     -11.826   5.639  -5.505  1.00 23.69     0.339 N 
HETATM    5  C12   D T1480     -11.865   5.085  -6.887  1.00 25.57     0.291 C 
HETATM    6  C13   D T1480     -10.511   5.301  -7.536  1.00 27.98     0.046 C 
ENDROOT
BRANCH   1   7
HETATM    7  C5    D T1480      -8.078   5.393  -7.242  1.00 27.86    -0.019 A 
HETATM    8  C4    D T1480      -7.764   5.384  -8.600  1.00 28.73    -0.003 A 
HETATM    9  C3    D T1480      -6.608   5.978  -9.056  1.00 37.49     0.011 A 
HETATM   10  C2    D T1480      -5.743   6.582  -8.162  1.00 34.69     0.058 A 
HETATM   11 CL1    D T1480      -4.282   7.318  -8.731  1.00 50.48    -0.082 Cl
HETATM   12  C7    D T1480      -6.036   6.571  -6.807  1.00 40.09     0.011 A 
HETATM   13  C6    D T1480      -7.190   5.970  -6.348  1.00 30.28    -0.003 A 
ENDBRANCH   1   7
BRANCH   1  14
HETATM   14  C14   D T1480      -9.231   3.177  -6.821  1.00 24.09    -0.019 A 
HETATM   15  C15   D T1480     -10.274   2.349  -7.225  1.00 24.10    -0.004 A 
HETATM   16  C16   D T1480     -10.103   0.973  -7.275  1.00 25.21    -0.000 A 
HETATM   17  C17   D T1480      -8.885   0.401  -6.930  1.00 22.67     0.003 A 
HETATM   18  C18   D T1480      -7.855   1.228  -6.536  1.00 26.22    -0.000 A 
HETATM   19  C19   D T1480      -8.021   2.591  -6.486  1.00 25.71    -0.004 A 
BRANCH  17  20
HETATM   20  C20   D T1480      -8.662  -1.051  -6.944  1.00 20.81     0.042 A 
HETATM   21  C21   D T1480      -8.227  -1.857  -7.995  1.00 10.94     0.124 A 
HETATM   22  N22   D T1480      -8.186  -3.155  -7.637  1.00 19.16    -0.146 NA
HETATM   23  N23   D T1480      -8.622  -3.196  -6.344  1.00 25.24    -0.146 NA
HETATM   24  C24   D T1480      -8.929  -1.949  -5.899  1.00 21.20     0.124 A 
ENDBRANCH  17  20
ENDBRANCH   1  14
TORSDOF 3
ENDMDL
