MODEL 1
REMARK VINA RESULT:    -8.084      0.000      0.000
REMARK INTER + INTRA:         -11.745
REMARK INTER:                 -10.920
REMARK INTRA:                  -0.825
REMARK UNBOUND:                -0.825
REMARK  6 active torsions:
REMARK  status: ('A' for Active; 'I' for Inactive)
REMARK       I    between atoms: N1_1  and  C25_25 
REMARK    1  A    between atoms: C3_3  and  N5_5 
REMARK       I    between atoms: N5_5  and  C6_6 
REMARK    2  A    between atoms: C6_6  and  C7_7 
REMARK    3  A    between atoms: N17_17  and  C24_24 
REMARK    4  A    between atoms: C25_25  and  C20_32 
REMARK    5  A    between atoms: C27_27  and  C20_32 
REMARK    6  A    between atoms: C20_32  and  O34_35 
ROOT
HETATM    1  N1    D T1504       0.209   7.422   6.689  1.00 17.57    -0.308 N 
HETATM    2  N2    D T1504      -0.813   4.183   7.947  1.00 15.62    -0.149 NA
HETATM    3  C3    D T1504       1.103   4.689   8.977  1.00 16.85     0.186 A 
HETATM    4  N4    D T1504       0.181   3.718   8.851  1.00 16.47    -0.129 NA
HETATM    5  C13   D T1504      -0.451   5.426   7.568  1.00 16.13     0.104 A 
HETATM    6  C14   D T1504       0.782   5.782   8.198  1.00 16.03     0.055 A 
HETATM    7  C15   D T1504       1.225   7.142   7.756  1.00 17.80     0.136 C 
HETATM    8  C16   D T1504      -0.939   6.493   6.649  1.00 15.77     0.152 C 
HETATM    9  C25   D T1504       0.280   8.432   5.807  1.00 17.72     0.266 C 
HETATM   10  O26   D T1504      -0.585   8.616   4.952  1.00 20.29    -0.269 OA
ENDROOT
BRANCH   3  11
HETATM   11  N5    D T1504       2.196   4.484   9.790  1.00 18.99    -0.187 NA
HETATM   12  C6    D T1504       3.465   4.567   9.427  1.00 22.32     0.281 C 
HETATM   13  O8    D T1504       3.842   4.870   8.311  1.00 19.91    -0.265 OA
BRANCH  12  14
HETATM   14  C7    D T1504       4.489   4.289  10.458  1.00 23.69     0.058 A 
HETATM   15  C9    D T1504       5.817   4.455  10.099  1.00 24.20     0.006 A 
HETATM   16  C10   D T1504       6.832   4.230  11.006  1.00 24.36     0.017 A 
HETATM   17  C24   D T1504       6.495   3.822  12.277  1.00 26.38     0.060 A 
HETATM   18  C11   D T1504       5.146   3.646  12.641  1.00 25.51     0.017 A 
HETATM   19  C12   D T1504       4.128   3.883  11.735  1.00 23.62     0.006 A 
BRANCH  17  20
HETATM   20  N17   D T1504       7.526   3.595  13.205  1.00 29.22    -0.324 N 
HETATM   21  C18   D T1504       8.275   2.565  13.149  1.00 32.43     0.088 C 
HETATM   22  C19   D T1504       8.497   1.896  14.290  1.00 34.59     0.066 C 
HETATM   23  N20   D T1504       8.315   2.523  15.575  1.00 35.81    -0.247 NA
HETATM   24  C21   D T1504       7.445   3.732  15.528  1.00 34.06     0.101 C 
HETATM   25  C23   D T1504       7.729   1.580  16.548  1.00 33.95     0.094 C 
HETATM   26  C22   D T1504       7.729   4.569  14.283  1.00 31.87     0.124 C 
ENDBRANCH  17  20
ENDBRANCH  12  14
ENDBRANCH   3  11
BRANCH   9  27
HETATM   27  C20   D T1504       1.459   9.353   5.859  1.00 16.01     0.216 C 
BRANCH  27  28
HETATM   28  C27   D T1504       2.515   8.794   4.960  1.00 17.19     0.014 A 
HETATM   29  C28   D T1504       2.383   8.928   3.557  1.00 16.33    -0.001 A 
HETATM   30  C31   D T1504       3.377   8.438   2.712  1.00 15.88    -0.000 A 
HETATM   31  C35   D T1504       4.499   7.799   3.276  1.00 16.13    -0.000 A 
HETATM   32  C33   D T1504       4.633   7.656   4.662  1.00 13.90    -0.000 A 
HETATM   33  C29   D T1504       3.642   8.142   5.501  1.00 15.13    -0.001 A 
ENDBRANCH  27  28
BRANCH  27  34
HETATM   34  O34   D T1504       1.028  10.662   5.480  1.00 17.91    -0.340 OA
HETATM   35  C36   D T1504       0.270  11.356   6.491  1.00 15.51     0.175 C 
ENDBRANCH  27  34
ENDBRANCH   9  27
TORSDOF 6
ENDMDL
MODEL 2
REMARK VINA RESULT:    -7.621      1.812      2.440
REMARK INTER + INTRA:         -11.119
REMARK INTER:                 -10.756
REMARK INTRA:                  -0.363
REMARK UNBOUND:                -0.825
REMARK  6 active torsions:
REMARK  status: ('A' for Active; 'I' for Inactive)
REMARK       I    between atoms: N1_1  and  C25_25 
REMARK    1  A    between atoms: C3_3  and  N5_5 
REMARK       I    between atoms: N5_5  and  C6_6 
REMARK    2  A    between atoms: C6_6  and  C7_7 
REMARK    3  A    between atoms: N17_17  and  C24_24 
REMARK    4  A    between atoms: C25_25  and  C20_32 
REMARK    5  A    between atoms: C27_27  and  C20_32 
REMARK    6  A    between atoms: C20_32  and  O34_35 
ROOT
HETATM    1  N1    D T1504       2.511   7.479   6.899  1.00 17.57    -0.308 N 
HETATM    2  N2    D T1504       0.384   5.267   8.824  1.00 15.62    -0.149 NA
HETATM    3  C3    D T1504       2.416   5.156   9.745  1.00 16.85     0.186 A 
HETATM    4  N4    D T1504       1.176   4.638   9.822  1.00 16.47    -0.129 NA
HETATM    5  C13   D T1504       1.180   6.150   8.186  1.00 16.13     0.104 A 
HETATM    6  C14   D T1504       2.497   6.099   8.740  1.00 16.03     0.055 A 
HETATM    7  C15   D T1504       3.410   7.039   8.016  1.00 17.80     0.136 C 
HETATM    8  C16   D T1504       1.088   7.107   7.049  1.00 15.77     0.152 C 
HETATM    9  C25   D T1504       2.909   8.167   5.818  1.00 17.72     0.266 C 
HETATM   10  O26   D T1504       2.127   8.504   4.931  1.00 20.29    -0.269 OA
ENDROOT
BRANCH   3  11
HETATM   11  N5    D T1504       3.395   4.699  10.599  1.00 18.99    -0.187 NA
HETATM   12  C6    D T1504       4.413   3.920  10.273  1.00 22.32     0.281 C 
HETATM   13  O8    D T1504       4.639   3.519   9.147  1.00 19.91    -0.265 OA
BRANCH  12  14
HETATM   14  C7    D T1504       5.345   3.528  11.354  1.00 23.69     0.058 A 
HETATM   15  C9    D T1504       6.558   2.973  10.978  1.00 24.20     0.006 A 
HETATM   16  C10   D T1504       7.489   2.594  11.924  1.00 24.36     0.017 A 
HETATM   17  C24   D T1504       7.178   2.770  13.254  1.00 26.38     0.060 A 
HETATM   18  C11   D T1504       5.944   3.327  13.636  1.00 25.51     0.017 A 
HETATM   19  C12   D T1504       5.015   3.717  12.688  1.00 23.62     0.006 A 
BRANCH  17  20
HETATM   20  N17   D T1504       8.125   2.388  14.221  1.00 29.22    -0.324 N 
HETATM   21  C18   D T1504       9.221   1.816  13.910  1.00 32.43     0.088 C 
HETATM   22  C19   D T1504       9.582   0.738  14.619  1.00 34.59     0.066 C 
HETATM   23  N20   D T1504       9.050   0.495  15.937  1.00 35.81    -0.247 NA
HETATM   24  C21   D T1504       7.782   1.229  16.210  1.00 34.06     0.101 C 
HETATM   25  C23   D T1504       8.795  -0.944  16.150  1.00 33.95     0.094 C 
HETATM   26  C22   D T1504       7.828   2.642  15.634  1.00 31.87     0.124 C 
ENDBRANCH  17  20
ENDBRANCH  12  14
ENDBRANCH   3  11
BRANCH   9  27
HETATM   27  C20   D T1504       4.357   8.521   5.683  1.00 16.01     0.216 C 
BRANCH  27  28
HETATM   28  C27   D T1504       4.548   9.161   4.345  1.00 17.19     0.014 A 
HETATM   29  C28   D T1504       4.093  10.484   4.130  1.00 16.33    -0.001 A 
HETATM   30  C31   D T1504       4.293  11.100   2.896  1.00 15.88    -0.000 A 
HETATM   31  C35   D T1504       4.940  10.380   1.871  1.00 16.13    -0.000 A 
HETATM   32  C33   D T1504       5.386   9.070   2.073  1.00 13.90    -0.000 A 
HETATM   33  C29   D T1504       5.183   8.457   3.300  1.00 15.13    -0.001 A 
ENDBRANCH  27  28
BRANCH  27  34
HETATM   34  O34   D T1504       4.721   9.371   6.773  1.00 17.91    -0.340 OA
HETATM   35  C36   D T1504       6.126   9.363   7.093  1.00 15.51     0.175 C 
ENDBRANCH  27  34
ENDBRANCH   9  27
TORSDOF 6
ENDMDL
MODEL 3
REMARK VINA RESULT:    -7.484      4.990      7.782
REMARK INTER + INTRA:         -10.934
REMARK INTER:                  -9.643
REMARK INTRA:                  -1.291
REMARK UNBOUND:                -0.825
REMARK  6 active torsions:
REMARK  status: ('A' for Active; 'I' for Inactive)
REMARK       I    between atoms: N1_1  and  C25_25 
REMARK    1  A    between atoms: C3_3  and  N5_5 
REMARK       I    between atoms: N5_5  and  C6_6 
REMARK    2  A    between atoms: C6_6  and  C7_7 
REMARK    3  A    between atoms: N17_17  and  C24_24 
REMARK    4  A    between atoms: C25_25  and  C20_32 
REMARK    5  A    between atoms: C27_27  and  C20_32 
REMARK    6  A    between atoms: C20_32  and  O34_35 
ROOT
HETATM    1  N1    D T1504       6.939   7.027   8.392  1.00 17.57    -0.308 N 
HETATM    2  N2    D T1504       9.757   7.751  10.550  1.00 15.62    -0.149 NA
HETATM    3  C3    D T1504       9.870   5.574  10.064  1.00 16.85     0.186 A 
HETATM    4  N4    D T1504      10.459   6.539  10.793  1.00 16.47    -0.129 NA
HETATM    5  C13   D T1504       8.771   7.467   9.673  1.00 16.13     0.104 A 
HETATM    6  C14   D T1504       8.803   6.075   9.347  1.00 16.03     0.055 A 
HETATM    7  C15   D T1504       7.689   5.729   8.408  1.00 17.80     0.136 C 
HETATM    8  C16   D T1504       7.644   8.174   9.003  1.00 15.77     0.152 C 
HETATM    9  C25   D T1504       5.714   7.200   7.871  1.00 17.72     0.266 C 
HETATM   10  O26   D T1504       5.145   8.290   7.883  1.00 20.29    -0.269 OA
ENDROOT
BRANCH   3  11
HETATM   11  N5    D T1504      10.351   4.285  10.133  1.00 18.99    -0.187 NA
HETATM   12  C6    D T1504       9.949   3.347  10.975  1.00 22.32     0.281 C 
HETATM   13  O8    D T1504       9.063   3.493  11.795  1.00 19.91    -0.265 OA
BRANCH  12  14
HETATM   14  C7    D T1504      10.614   2.027  10.893  1.00 23.69     0.058 A 
HETATM   15  C9    D T1504      11.512   1.830   9.856  1.00 24.20     0.006 A 
HETATM   16  C10   D T1504      12.185   0.633   9.718  1.00 24.36     0.017 A 
HETATM   17  C24   D T1504      11.934  -0.368  10.630  1.00 26.38     0.060 A 
HETATM   18  C11   D T1504      11.017  -0.170  11.680  1.00 25.51     0.017 A 
HETATM   19  C12   D T1504      10.351   1.034  11.825  1.00 23.62     0.006 A 
BRANCH  17  20
HETATM   20  N17   D T1504      12.620  -1.587  10.494  1.00 29.22    -0.324 N 
HETATM   21  C18   D T1504      13.475  -1.787   9.570  1.00 32.43     0.088 C 
HETATM   22  C19   D T1504      13.393  -2.937   8.887  1.00 34.59     0.066 C 
HETATM   23  N20   D T1504      12.715  -4.086   9.431  1.00 35.81    -0.247 NA
HETATM   24  C21   D T1504      11.757  -3.749  10.521  1.00 34.06     0.101 C 
HETATM   25  C23   D T1504      11.970  -4.810   8.381  1.00 33.95     0.094 C 
HETATM   26  C22   D T1504      12.324  -2.669  11.440  1.00 31.87     0.124 C 
ENDBRANCH  17  20
ENDBRANCH  12  14
ENDBRANCH   3  11
BRANCH   9  27
HETATM   27  C20   D T1504       5.014   6.021   7.268  1.00 16.01     0.216 C 
BRANCH  27  28
HETATM   28  C27   D T1504       3.834   5.703   8.128  1.00 17.19     0.014 A 
HETATM   29  C28   D T1504       4.032   5.115   9.400  1.00 16.33    -0.001 A 
HETATM   30  C31   D T1504       2.940   4.842  10.222  1.00 15.88    -0.000 A 
HETATM   31  C35   D T1504       1.644   5.149   9.760  1.00 16.13    -0.000 A 
HETATM   32  C33   D T1504       1.439   5.724   8.501  1.00 13.90    -0.000 A 
HETATM   33  C29   D T1504       2.526   5.992   7.684  1.00 15.13    -0.001 A 
ENDBRANCH  27  28
BRANCH  27  34
HETATM   34  O34   D T1504       4.663   6.343   5.920  1.00 17.91    -0.340 OA
HETATM   35  C36   D T1504       5.788   6.525   5.039  1.00 15.51     0.175 C 
ENDBRANCH  27  34
ENDBRANCH   9  27
TORSDOF 6
ENDMDL
MODEL 4
REMARK VINA RESULT:    -7.432      4.099     10.041
REMARK INTER + INTRA:         -10.863
REMARK INTER:                 -10.081
REMARK INTRA:                  -0.783
REMARK UNBOUND:                -0.825
REMARK  6 active torsions:
REMARK  status: ('A' for Active; 'I' for Inactive)
REMARK       I    between atoms: N1_1  and  C25_25 
REMARK    1  A    between atoms: C3_3  and  N5_5 
REMARK       I    between atoms: N5_5  and  C6_6 
REMARK    2  A    between atoms: C6_6  and  C7_7 
REMARK    3  A    between atoms: N17_17  and  C24_24 
REMARK    4  A    between atoms: C25_25  and  C20_32 
REMARK    5  A    between atoms: C27_27  and  C20_32 
REMARK    6  A    between atoms: C20_32  and  O34_35 
ROOT
HETATM    1  N1    D T1504       9.935   5.542  11.119  1.00 17.57    -0.308 N 
HETATM    2  N2    D T1504       8.136   2.534  12.031  1.00 15.62    -0.149 NA
HETATM    3  C3    D T1504       6.704   3.808  10.885  1.00 16.85     0.186 A 
HETATM    4  N4    D T1504       6.797   2.654  11.569  1.00 16.47    -0.129 NA
HETATM    5  C13   D T1504       8.803   3.624  11.598  1.00 16.13     0.104 A 
HETATM    6  C14   D T1504       7.913   4.474  10.869  1.00 16.03     0.055 A 
HETATM    7  C15   D T1504       8.622   5.713  10.417  1.00 17.80     0.136 C 
HETATM    8  C16   D T1504      10.168   4.207  11.711  1.00 15.77     0.152 C 
HETATM    9  C25   D T1504      10.875   6.493  11.232  1.00 17.72     0.266 C 
HETATM   10  O26   D T1504      11.938   6.298  11.820  1.00 20.29    -0.269 OA
ENDROOT
BRANCH   3  11
HETATM   11  N5    D T1504       5.494   4.178  10.342  1.00 18.99    -0.187 NA
HETATM   12  C6    D T1504       4.319   4.128  10.948  1.00 22.32     0.281 C 
HETATM   13  O8    D T1504       4.154   3.770  12.099  1.00 19.91    -0.265 OA
BRANCH  12  14
HETATM   14  C7    D T1504       3.133   4.556  10.173  1.00 23.69     0.058 A 
HETATM   15  C9    D T1504       2.003   3.756  10.244  1.00 24.20     0.006 A 
HETATM   16  C10   D T1504       0.851   4.092   9.563  1.00 24.36     0.017 A 
HETATM   17  C24   D T1504       0.854   5.238   8.799  1.00 26.38     0.060 A 
HETATM   18  C11   D T1504       2.003   6.046   8.721  1.00 25.51     0.017 A 
HETATM   19  C12   D T1504       3.154   5.716   9.413  1.00 23.62     0.006 A 
BRANCH  17  20
HETATM   20  N17   D T1504      -0.319   5.585   8.106  1.00 29.22    -0.324 N 
HETATM   21  C18   D T1504      -0.831   4.830   7.215  1.00 32.43     0.088 C 
HETATM   22  C19   D T1504      -1.208   5.399   6.062  1.00 34.59     0.066 C 
HETATM   23  N20   D T1504      -1.472   6.813   5.973  1.00 35.81    -0.247 NA
HETATM   24  C21   D T1504      -0.851   7.603   7.073  1.00 34.06     0.101 C 
HETATM   25  C23   D T1504      -0.989   7.364   4.691  1.00 33.95     0.094 C 
HETATM   26  C22   D T1504      -0.960   6.869   8.408  1.00 31.87     0.124 C 
ENDBRANCH  17  20
ENDBRANCH  12  14
ENDBRANCH   3  11
BRANCH   9  27
HETATM   27  C20   D T1504      10.612   7.841  10.636  1.00 16.01     0.216 C 
BRANCH  27  28
HETATM   28  C27   D T1504      10.869   8.866  11.693  1.00 17.19     0.014 A 
HETATM   29  C28   D T1504      10.039   8.914  12.839  1.00 16.33    -0.001 A 
HETATM   30  C31   D T1504      10.289   9.845  13.845  1.00 15.88    -0.000 A 
HETATM   31  C35   D T1504      11.366  10.742  13.692  1.00 16.13    -0.000 A 
HETATM   32  C33   D T1504      12.186  10.706  12.560  1.00 13.90    -0.000 A 
HETATM   33  C29   D T1504      11.935   9.780  11.559  1.00 15.13    -0.001 A 
ENDBRANCH  27  28
BRANCH  27  34
HETATM   34  O34   D T1504      11.442   7.997   9.482  1.00 17.91    -0.340 OA
HETATM   35  C36   D T1504      10.723   8.065   8.235  1.00 15.51     0.175 C 
ENDBRANCH  27  34
ENDBRANCH   9  27
TORSDOF 6
ENDMDL
MODEL 5
REMARK VINA RESULT:    -7.395      2.749     10.580
REMARK INTER + INTRA:         -10.814
REMARK INTER:                 -10.526
REMARK INTRA:                  -0.288
REMARK UNBOUND:                -0.825
REMARK  6 active torsions:
REMARK  status: ('A' for Active; 'I' for Inactive)
REMARK       I    between atoms: N1_1  and  C25_25 
REMARK    1  A    between atoms: C3_3  and  N5_5 
REMARK       I    between atoms: N5_5  and  C6_6 
REMARK    2  A    between atoms: C6_6  and  C7_7 
REMARK    3  A    between atoms: N17_17  and  C24_24 
REMARK    4  A    between atoms: C25_25  and  C20_32 
REMARK    5  A    between atoms: C27_27  and  C20_32 
REMARK    6  A    between atoms: C20_32  and  O34_35 
ROOT
HETATM    1  N1    D T1504       3.797   4.122  10.546  1.00 17.57    -0.308 N 
HETATM    2  N2    D T1504       0.407   4.701   9.410  1.00 15.62    -0.149 NA
HETATM    3  C3    D T1504       1.736   5.909   8.084  1.00 16.85     0.186 A 
HETATM    4  N4    D T1504       0.444   5.639   8.343  1.00 16.47    -0.129 NA
HETATM    5  C13   D T1504       1.685   4.436   9.750  1.00 16.13     0.104 A 
HETATM    6  C14   D T1504       2.569   5.204   8.929  1.00 16.03     0.055 A 
HETATM    7  C15   D T1504       3.994   4.960   9.318  1.00 17.80     0.136 C 
HETATM    8  C16   D T1504       2.421   3.625  10.759  1.00 15.77     0.152 C 
HETATM    9  C25   D T1504       4.762   3.807  11.424  1.00 17.72     0.266 C 
HETATM   10  O26   D T1504       4.543   3.114  12.416  1.00 20.29    -0.269 OA
ENDROOT
BRANCH   3  11
HETATM   11  N5    D T1504       2.053   6.813   7.095  1.00 18.99    -0.187 NA
HETATM   12  C6    D T1504       2.841   7.868   7.226  1.00 22.32     0.281 C 
HETATM   13  O8    D T1504       3.423   8.168   8.250  1.00 19.91    -0.265 OA
BRANCH  12  14
HETATM   14  C7    D T1504       3.035   8.726   6.035  1.00 23.69     0.058 A 
HETATM   15  C9    D T1504       1.935   9.429   5.571  1.00 24.20     0.006 A 
HETATM   16  C10   D T1504       2.036  10.262   4.475  1.00 24.36     0.017 A 
HETATM   17  C24   D T1504       3.255  10.368   3.844  1.00 26.38     0.060 A 
HETATM   18  C11   D T1504       4.371   9.648   4.311  1.00 25.51     0.017 A 
HETATM   19  C12   D T1504       4.273   8.823   5.416  1.00 23.62     0.006 A 
BRANCH  17  20
HETATM   20  N17   D T1504       3.363  11.218   2.729  1.00 29.22    -0.324 N 
HETATM   21  C18   D T1504       2.410  11.983   2.363  1.00 32.43     0.088 C 
HETATM   22  C19   D T1504       2.099  12.005   1.060  1.00 34.59     0.066 C 
HETATM   23  N20   D T1504       3.042  11.583   0.056  1.00 35.81    -0.247 NA
HETATM   24  C21   D T1504       4.129  10.715   0.589  1.00 34.06     0.101 C 
HETATM   25  C23   D T1504       2.367  10.847  -1.031  1.00 33.95     0.094 C 
HETATM   26  C22   D T1504       4.607  11.206   1.954  1.00 31.87     0.124 C 
ENDBRANCH  17  20
ENDBRANCH  12  14
ENDBRANCH   3  11
BRANCH   9  27
HETATM   27  C20   D T1504       6.145   4.332  11.195  1.00 16.01     0.216 C 
BRANCH  27  28
HETATM   28  C27   D T1504       6.979   3.952  12.376  1.00 17.19     0.014 A 
HETATM   29  C28   D T1504       7.165   4.879  13.429  1.00 16.33    -0.001 A 
HETATM   30  C31   D T1504       7.915   4.524  14.549  1.00 15.88    -0.000 A 
HETATM   31  C35   D T1504       8.493   3.239  14.604  1.00 16.13    -0.000 A 
HETATM   32  C33   D T1504       8.319   2.320  13.563  1.00 13.90    -0.000 A 
HETATM   33  C29   D T1504       7.575   2.676  12.449  1.00 15.13    -0.001 A 
ENDBRANCH  27  28
BRANCH  27  34
HETATM   34  O34   D T1504       6.633   3.800   9.962  1.00 17.91    -0.340 OA
HETATM   35  C36   D T1504       7.638   4.609   9.319  1.00 15.51     0.175 C 
ENDBRANCH  27  34
ENDBRANCH   9  27
TORSDOF 6
ENDMDL
MODEL 6
REMARK VINA RESULT:    -7.269      3.120     10.306
REMARK INTER + INTRA:         -10.644
REMARK INTER:                  -9.729
REMARK INTRA:                  -0.915
REMARK UNBOUND:                -0.825
REMARK  6 active torsions:
REMARK  status: ('A' for Active; 'I' for Inactive)
REMARK       I    between atoms: N1_1  and  C25_25 
REMARK    1  A    between atoms: C3_3  and  N5_5 
REMARK       I    between atoms: N5_5  and  C6_6 
REMARK    2  A    between atoms: C6_6  and  C7_7 
REMARK    3  A    between atoms: N17_17  and  C24_24 
REMARK    4  A    between atoms: C25_25  and  C20_32 
REMARK    5  A    between atoms: C27_27  and  C20_32 
REMARK    6  A    between atoms: C20_32  and  O34_35 
ROOT
HETATM    1  N1    D T1504       6.375   3.586  11.620  1.00 17.57    -0.308 N 
HETATM    2  N2    D T1504       2.798   3.591  11.047  1.00 15.62    -0.149 NA
HETATM    3  C3    D T1504       3.716   4.713   9.348  1.00 16.85     0.186 A 
HETATM    4  N4    D T1504       2.532   4.344   9.872  1.00 16.47    -0.129 NA
HETATM    5  C13   D T1504       4.139   3.529  11.183  1.00 16.13     0.104 A 
HETATM    6  C14   D T1504       4.764   4.250  10.118  1.00 16.03     0.055 A 
HETATM    7  C15   D T1504       6.253   4.233  10.273  1.00 17.80     0.136 C 
HETATM    8  C16   D T1504       5.134   2.978  12.145  1.00 15.77     0.152 C 
HETATM    9  C25   D T1504       7.503   3.526  12.344  1.00 17.72     0.266 C 
HETATM   10  O26   D T1504       7.546   2.981  13.445  1.00 20.29    -0.269 OA
ENDROOT
BRANCH   3  11
HETATM   11  N5    D T1504       3.740   5.476   8.202  1.00 18.99    -0.187 NA
HETATM   12  C6    D T1504       3.443   6.763   8.115  1.00 22.32     0.281 C 
HETATM   13  O8    D T1504       3.130   7.461   9.061  1.00 19.91    -0.265 OA
BRANCH  12  14
HETATM   14  C7    D T1504       3.516   7.390   6.777  1.00 23.69     0.058 A 
HETATM   15  C9    D T1504       4.649   7.143   6.018  1.00 24.20     0.006 A 
HETATM   16  C10   D T1504       4.788   7.679   4.755  1.00 24.36     0.017 A 
HETATM   17  C24   D T1504       3.777   8.478   4.268  1.00 26.38     0.060 A 
HETATM   18  C11   D T1504       2.629   8.735   5.041  1.00 25.51     0.017 A 
HETATM   19  C12   D T1504       2.485   8.189   6.304  1.00 23.62     0.006 A 
BRANCH  17  20
HETATM   20  N17   D T1504       3.914   9.023   2.979  1.00 29.22    -0.324 N 
HETATM   21  C18   D T1504       5.026   9.027   2.357  1.00 32.43     0.088 C 
HETATM   22  C19   D T1504       5.401  10.168   1.764  1.00 34.59     0.066 C 
HETATM   23  N20   D T1504       4.441  11.188   1.424  1.00 35.81    -0.247 NA
HETATM   24  C21   D T1504       3.166  11.081   2.187  1.00 34.06     0.101 C 
HETATM   25  C23   D T1504       4.995  12.537   1.655  1.00 33.95     0.094 C 
HETATM   26  C22   D T1504       2.737   9.623   2.342  1.00 31.87     0.124 C 
ENDBRANCH  17  20
ENDBRANCH  12  14
ENDBRANCH   3  11
BRANCH   9  27
HETATM   27  C20   D T1504       8.745   4.160  11.798  1.00 16.01     0.216 C 
BRANCH  27  28
HETATM   28  C27   D T1504       8.740   5.598  12.204  1.00 17.19     0.014 A 
HETATM   29  C28   D T1504       8.374   5.952  13.525  1.00 16.33    -0.001 A 
HETATM   30  C31   D T1504       8.396   7.287  13.923  1.00 15.88    -0.000 A 
HETATM   31  C35   D T1504       8.775   8.272  12.988  1.00 16.13    -0.000 A 
HETATM   32  C33   D T1504       9.132   7.931  11.679  1.00 13.90    -0.000 A 
HETATM   33  C29   D T1504       9.106   6.602  11.284  1.00 15.13    -0.001 A 
ENDBRANCH  27  28
BRANCH  27  34
HETATM   34  O34   D T1504       9.876   3.437  12.288  1.00 17.91    -0.340 OA
HETATM   35  C36   D T1504      10.465   2.532  11.332  1.00 15.51     0.175 C 
ENDBRANCH  27  34
ENDBRANCH   9  27
TORSDOF 6
ENDMDL
MODEL 7
REMARK VINA RESULT:    -7.076      4.680      6.973
REMARK INTER + INTRA:         -10.382
REMARK INTER:                  -9.137
REMARK INTRA:                  -1.245
REMARK UNBOUND:                -0.825
REMARK  6 active torsions:
REMARK  status: ('A' for Active; 'I' for Inactive)
REMARK       I    between atoms: N1_1  and  C25_25 
REMARK    1  A    between atoms: C3_3  and  N5_5 
REMARK       I    between atoms: N5_5  and  C6_6 
REMARK    2  A    between atoms: C6_6  and  C7_7 
REMARK    3  A    between atoms: N17_17  and  C24_24 
REMARK    4  A    between atoms: C25_25  and  C20_32 
REMARK    5  A    between atoms: C27_27  and  C20_32 
REMARK    6  A    between atoms: C20_32  and  O34_35 
ROOT
HETATM    1  N1    D T1504       5.693  12.056   2.695  1.00 17.57    -0.308 N 
HETATM    2  N2    D T1504       2.791  10.083   1.802  1.00 15.62    -0.149 NA
HETATM    3  C3    D T1504       3.640   9.163   3.651  1.00 16.85     0.186 A 
HETATM    4  N4    D T1504       2.675   9.009   2.726  1.00 16.47    -0.129 NA
HETATM    5  C13   D T1504       3.822  10.850   2.213  1.00 16.13     0.104 A 
HETATM    6  C14   D T1504       4.402  10.284   3.391  1.00 16.03     0.055 A 
HETATM    7  C15   D T1504       5.578  11.095   3.840  1.00 17.80     0.136 C 
HETATM    8  C16   D T1504       4.548  12.069   1.761  1.00 15.77     0.152 C 
HETATM    9  C25   D T1504       6.735  12.876   2.483  1.00 17.72     0.266 C 
HETATM   10  O26   D T1504       6.777  13.647   1.526  1.00 20.29    -0.269 OA
ENDROOT
BRANCH   3  11
HETATM   11  N5    D T1504       3.761   8.236   4.662  1.00 18.99    -0.187 NA
HETATM   12  C6    D T1504       3.259   8.342   5.882  1.00 22.32     0.281 C 
HETATM   13  O8    D T1504       2.585   9.278   6.268  1.00 19.91    -0.265 OA
BRANCH  12  14
HETATM   14  C7    D T1504       3.524   7.234   6.827  1.00 23.69     0.058 A 
HETATM   15  C9    D T1504       2.460   6.782   7.592  1.00 24.20     0.006 A 
HETATM   16  C10   D T1504       2.621   5.744   8.487  1.00 24.36     0.017 A 
HETATM   17  C24   D T1504       3.868   5.174   8.611  1.00 26.38     0.060 A 
HETATM   18  C11   D T1504       4.950   5.638   7.839  1.00 25.51     0.017 A 
HETATM   19  C12   D T1504       4.787   6.671   6.934  1.00 23.62     0.006 A 
BRANCH  17  20
HETATM   20  N17   D T1504       4.035   4.114   9.520  1.00 29.22    -0.324 N 
HETATM   21  C18   D T1504       3.290   3.975  10.545  1.00 32.43     0.088 C 
HETATM   22  C19   D T1504       3.889   3.714  11.715  1.00 34.59     0.066 C 
HETATM   23  N20   D T1504       5.217   3.157  11.771  1.00 35.81    -0.247 NA
HETATM   24  C21   D T1504       5.995   3.350  10.515  1.00 34.06     0.101 C 
HETATM   25  C23   D T1504       5.994   3.744  12.880  1.00 33.95     0.094 C 
HETATM   26  C22   D T1504       5.114   3.150   9.284  1.00 31.87     0.124 C 
ENDBRANCH  17  20
ENDBRANCH  12  14
ENDBRANCH   3  11
BRANCH   9  27
HETATM   27  C20   D T1504       7.889  12.837   3.436  1.00 16.01     0.216 C 
BRANCH  27  28
HETATM   28  C27   D T1504       9.014  12.119   2.761  1.00 17.19     0.014 A 
HETATM   29  C28   D T1504      10.114  12.856   2.261  1.00 16.33    -0.001 A 
HETATM   30  C31   D T1504      11.182  12.194   1.658  1.00 15.88    -0.000 A 
HETATM   31  C35   D T1504      11.139  10.790   1.545  1.00 16.13    -0.000 A 
HETATM   32  C33   D T1504      10.051  10.055   2.031  1.00 13.90    -0.000 A 
HETATM   33  C29   D T1504       8.989  10.715   2.628  1.00 15.13    -0.001 A 
ENDBRANCH  27  28
BRANCH  27  34
HETATM   34  O34   D T1504       8.215  14.178   3.809  1.00 17.91    -0.340 OA
HETATM   35  C36   D T1504       7.626  14.611   5.050  1.00 15.51     0.175 C 
ENDBRANCH  27  34
ENDBRANCH   9  27
TORSDOF 6
ENDMDL
MODEL 8
REMARK VINA RESULT:    -7.052      6.558      9.482
REMARK INTER + INTRA:         -10.350
REMARK INTER:                  -9.154
REMARK INTRA:                  -1.197
REMARK UNBOUND:                -0.825
REMARK  6 active torsions:
REMARK  status: ('A' for Active; 'I' for Inactive)
REMARK       I    between atoms: N1_1  and  C25_25 
REMARK    1  A    between atoms: C3_3  and  N5_5 
REMARK       I    between atoms: N5_5  and  C6_6 
REMARK    2  A    between atoms: C6_6  and  C7_7 
REMARK    3  A    between atoms: N17_17  and  C24_24 
REMARK    4  A    between atoms: C25_25  and  C20_32 
REMARK    5  A    between atoms: C27_27  and  C20_32 
REMARK    6  A    between atoms: C20_32  and  O34_35 
ROOT
HETATM    1  N1    D T1504       7.137   4.984   9.285  1.00 17.57    -0.308 N 
HETATM    2  N2    D T1504       9.580   6.714   7.246  1.00 15.62    -0.149 NA
HETATM    3  C3    D T1504       9.426   7.855   9.160  1.00 16.85     0.186 A 
HETATM    4  N4    D T1504      10.017   7.868   7.951  1.00 16.47    -0.129 NA
HETATM    5  C13   D T1504       8.743   6.044   8.065  1.00 16.13     0.104 A 
HETATM    6  C14   D T1504       8.609   6.752   9.300  1.00 16.03     0.055 A 
HETATM    7  C15   D T1504       7.649   6.048  10.209  1.00 17.80     0.136 C 
HETATM    8  C16   D T1504       7.892   4.822   8.025  1.00 15.77     0.152 C 
HETATM    9  C25   D T1504       6.077   4.199   9.531  1.00 17.72     0.266 C 
HETATM   10  O26   D T1504       5.701   3.339   8.737  1.00 20.29    -0.269 OA
ENDROOT
BRANCH   3  11
HETATM   11  N5    D T1504       9.669   8.884  10.043  1.00 18.99    -0.187 NA
HETATM   12  C6    D T1504      10.581   8.889  11.002  1.00 22.32     0.281 C 
HETATM   13  O8    D T1504      11.359   7.980  11.215  1.00 19.91    -0.265 OA
BRANCH  12  14
HETATM   14  C7    D T1504      10.664  10.095  11.857  1.00 23.69     0.058 A 
HETATM   15  C9    D T1504       9.500  10.514  12.481  1.00 24.20     0.006 A 
HETATM   16  C10   D T1504       9.496  11.620  13.306  1.00 24.36     0.017 A 
HETATM   17  C24   D T1504      10.675  12.307  13.485  1.00 26.38     0.060 A 
HETATM   18  C11   D T1504      11.856  11.885  12.845  1.00 25.51     0.017 A 
HETATM   19  C12   D T1504      11.863  10.770  12.027  1.00 23.62     0.006 A 
BRANCH  17  20
HETATM   20  N17   D T1504      10.676  13.433  14.327  1.00 29.22    -0.324 N 
HETATM   21  C18   D T1504      11.622  14.287  14.319  1.00 32.43     0.088 C 
HETATM   22  C19   D T1504      12.113  14.680  15.502  1.00 34.59     0.066 C 
HETATM   23  N20   D T1504      11.349  14.539  16.716  1.00 35.81    -0.247 NA
HETATM   24  C21   D T1504      10.252  13.536  16.614  1.00 34.06     0.101 C 
HETATM   25  C23   D T1504      12.215  14.150  17.847  1.00 33.95     0.094 C 
HETATM   26  C22   D T1504       9.556  13.616  15.257  1.00 31.87     0.124 C 
ENDBRANCH  17  20
ENDBRANCH  12  14
ENDBRANCH   3  11
BRANCH   9  27
HETATM   27  C20   D T1504       5.319   4.389  10.809  1.00 16.01     0.216 C 
BRANCH  27  28
HETATM   28  C27   D T1504       3.868   4.496  10.468  1.00 17.19     0.014 A 
HETATM   29  C28   D T1504       2.978   3.468  10.862  1.00 16.33    -0.001 A 
HETATM   30  C31   D T1504       1.618   3.572  10.576  1.00 15.88    -0.000 A 
HETATM   31  C35   D T1504       1.152   4.706   9.880  1.00 16.13    -0.000 A 
HETATM   32  C33   D T1504       2.026   5.723   9.480  1.00 13.90    -0.000 A 
HETATM   33  C29   D T1504       3.379   5.616   9.763  1.00 15.13    -0.001 A 
ENDBRANCH  27  28
BRANCH  27  34
HETATM   34  O34   D T1504       5.617   3.296  11.680  1.00 17.91    -0.340 OA
HETATM   35  C36   D T1504       6.192   3.681  12.945  1.00 15.51     0.175 C 
ENDBRANCH  27  34
ENDBRANCH   9  27
TORSDOF 6
ENDMDL
MODEL 9
REMARK VINA RESULT:    -7.033      1.616      2.343
REMARK INTER + INTRA:         -10.324
REMARK INTER:                 -10.580
REMARK INTRA:                   0.257
REMARK UNBOUND:                -0.825
REMARK  6 active torsions:
REMARK  status: ('A' for Active; 'I' for Inactive)
REMARK       I    between atoms: N1_1  and  C25_25 
REMARK    1  A    between atoms: C3_3  and  N5_5 
REMARK       I    between atoms: N5_5  and  C6_6 
REMARK    2  A    between atoms: C6_6  and  C7_7 
REMARK    3  A    between atoms: N17_17  and  C24_24 
REMARK    4  A    between atoms: C25_25  and  C20_32 
REMARK    5  A    between atoms: C27_27  and  C20_32 
REMARK    6  A    between atoms: C20_32  and  O34_35 
ROOT
HETATM    1  N1    D T1504       1.893   7.468   7.197  1.00 17.57    -0.308 N 
HETATM    2  N2    D T1504       0.264   4.618   8.729  1.00 15.62    -0.149 NA
HETATM    3  C3    D T1504       2.229   4.857   9.761  1.00 16.85     0.186 A 
HETATM    4  N4    D T1504       1.141   4.068   9.702  1.00 16.47    -0.129 NA
HETATM    5  C13   D T1504       0.857   5.728   8.243  1.00 16.13     0.104 A 
HETATM    6  C14   D T1504       2.129   5.908   8.872  1.00 16.03     0.055 A 
HETATM    7  C15   D T1504       2.826   7.110   8.315  1.00 17.80     0.136 C 
HETATM    8  C16   D T1504       0.590   6.770   7.213  1.00 15.77     0.152 C 
HETATM    9  C25   D T1504       2.162   8.353   6.226  1.00 17.72     0.266 C 
HETATM   10  O26   D T1504       1.358   8.610   5.332  1.00 20.29    -0.269 OA
ENDROOT
BRANCH   3  11
HETATM   11  N5    D T1504       3.254   4.533  10.622  1.00 18.99    -0.187 NA
HETATM   12  C6    D T1504       4.455   4.097  10.277  1.00 22.32     0.281 C 
HETATM   13  O8    D T1504       4.828   3.950   9.129  1.00 19.91    -0.265 OA
BRANCH  12  14
HETATM   14  C7    D T1504       5.407   3.787  11.367  1.00 23.69     0.058 A 
HETATM   15  C9    D T1504       6.744   3.654  11.025  1.00 24.20     0.006 A 
HETATM   16  C10   D T1504       7.697   3.380  11.984  1.00 24.36     0.017 A 
HETATM   17  C24   D T1504       7.288   3.229  13.290  1.00 26.38     0.060 A 
HETATM   18  C11   D T1504       5.929   3.357  13.636  1.00 25.51     0.017 A 
HETATM   19  C12   D T1504       4.975   3.643  12.677  1.00 23.62     0.006 A 
BRANCH  17  20
HETATM   20  N17   D T1504       8.257   2.953  14.270  1.00 29.22    -0.324 N 
HETATM   21  C18   D T1504       9.350   2.357  13.996  1.00 32.43     0.088 C 
HETATM   22  C19   D T1504       9.733   1.359  14.805  1.00 34.59     0.066 C 
HETATM   23  N20   D T1504       9.229   1.249  16.151  1.00 35.81    -0.247 NA
HETATM   24  C21   D T1504       7.963   2.001  16.374  1.00 34.06     0.101 C 
HETATM   25  C23   D T1504       8.990  -0.161  16.514  1.00 33.95     0.094 C 
HETATM   26  C22   D T1504       7.987   3.349  15.656  1.00 31.87     0.124 C 
ENDBRANCH  17  20
ENDBRANCH  12  14
ENDBRANCH   3  11
BRANCH   9  27
HETATM   27  C20   D T1504       3.494   9.038   6.223  1.00 16.01     0.216 C 
BRANCH  27  28
HETATM   28  C27   D T1504       4.551   7.982   6.268  1.00 17.19     0.014 A 
HETATM   29  C28   D T1504       5.526   8.010   7.293  1.00 16.33    -0.001 A 
HETATM   30  C31   D T1504       6.497   7.013   7.362  1.00 15.88    -0.000 A 
HETATM   31  C35   D T1504       6.497   5.993   6.389  1.00 16.13    -0.000 A 
HETATM   32  C33   D T1504       5.541   5.962   5.368  1.00 13.90    -0.000 A 
HETATM   33  C29   D T1504       4.578   6.956   5.300  1.00 15.13    -0.001 A 
ENDBRANCH  27  28
BRANCH  27  34
HETATM   34  O34   D T1504       3.574   9.871   5.064  1.00 17.91    -0.340 OA
HETATM   35  C36   D T1504       4.915  10.109   4.593  1.00 15.51     0.175 C 
ENDBRANCH  27  34
ENDBRANCH   9  27
TORSDOF 6
ENDMDL
