MODEL 1
REMARK VINA RESULT:    -8.249      0.000      0.000
REMARK INTER + INTRA:         -12.059
REMARK INTER:                 -11.143
REMARK INTRA:                  -0.916
REMARK UNBOUND:                -0.916
REMARK  6 active torsions:
REMARK  status: ('A' for Active; 'I' for Inactive)
REMARK       I    between atoms: N1_1  and  C25_25 
REMARK    1  A    between atoms: C3_3  and  N5_5 
REMARK       I    between atoms: N5_5  and  C6_6 
REMARK    2  A    between atoms: C6_6  and  C7_7 
REMARK    3  A    between atoms: N17_17  and  C24_24 
REMARK    4  A    between atoms: C25_25  and  C20_32 
REMARK    5  A    between atoms: C27_27  and  C20_32 
REMARK    6  A    between atoms: C20_32  and  O34_35 
ROOT
HETATM    1  N1    D T1504      11.063  -0.429   1.630  1.00 17.57    -0.308 N 
HETATM    2  N2    D T1504      12.457   2.872   1.101  1.00 15.62    -0.149 NA
HETATM    3  C3    D T1504      11.056   2.493  -0.597  1.00 16.85     0.186 A 
HETATM    4  N4    D T1504      11.943   3.387  -0.120  1.00 16.47    -0.129 NA
HETATM    5  C13   D T1504      11.852   1.687   1.316  1.00 16.13     0.104 A 
HETATM    6  C14   D T1504      10.953   1.401   0.241  1.00 16.03     0.055 A 
HETATM    7  C15   D T1504      10.303   0.067   0.437  1.00 17.80     0.136 C 
HETATM    8  C16   D T1504      11.895   0.583   2.316  1.00 15.77     0.152 C 
HETATM    9  C25   D T1504      11.028  -1.688   2.095  1.00 17.72     0.266 C 
HETATM   10  O26   D T1504      11.672  -2.039   3.082  1.00 20.29    -0.269 OA
ENDROOT
BRANCH   3  11
HETATM   11  N5    D T1504      10.418   2.744  -1.793  1.00 18.99    -0.187 NA
HETATM   12  C6    D T1504       9.301   3.434  -1.952  1.00 22.32     0.281 C 
HETATM   13  O8    D T1504       8.693   3.975  -1.047  1.00 19.91    -0.265 OA
BRANCH  12  14
HETATM   14  C7    D T1504       8.772   3.568  -3.327  1.00 23.69     0.058 A 
HETATM   15  C9    D T1504       9.684   3.839  -4.335  1.00 24.20     0.006 A 
HETATM   16  C10   D T1504       9.275   3.966  -5.646  1.00 24.36     0.017 A 
HETATM   17  C24   D T1504       7.934   3.829  -5.930  1.00 26.38     0.060 A 
HETATM   18  C11   D T1504       7.006   3.563  -4.904  1.00 25.51     0.017 A 
HETATM   19  C12   D T1504       7.419   3.425  -3.592  1.00 23.62     0.006 A 
BRANCH  17  20
HETATM   20  N17   D T1504       7.512   3.956  -7.264  1.00 29.22    -0.324 N 
HETATM   21  C18   D T1504       7.608   5.053  -7.906  1.00 32.43     0.088 C 
HETATM   22  C19   D T1504       6.539   5.455  -8.610  1.00 34.59     0.066 C 
HETATM   23  N20   D T1504       5.519   4.524  -9.021  1.00 35.81    -0.247 NA
HETATM   24  C21   D T1504       5.509   3.265  -8.227  1.00 34.06     0.101 C 
HETATM   25  C23   D T1504       4.177   5.131  -8.926  1.00 33.95     0.094 C 
HETATM   26  C22   D T1504       6.930   2.787  -7.932  1.00 31.87     0.124 C 
ENDBRANCH  17  20
ENDBRANCH  12  14
ENDBRANCH   3  11
BRANCH   9  27
HETATM   27  C20   D T1504      10.187  -2.697   1.377  1.00 16.01     0.216 C 
BRANCH  27  28
HETATM   28  C27   D T1504      11.105  -3.722   0.792  1.00 17.19     0.014 A 
HETATM   29  C28   D T1504      11.575  -4.783   1.601  1.00 16.33    -0.001 A 
HETATM   30  C31   D T1504      12.406  -5.762   1.058  1.00 15.88    -0.000 A 
HETATM   31  C35   D T1504      12.777  -5.665  -0.299  1.00 16.13    -0.000 A 
HETATM   32  C33   D T1504      12.323  -4.616  -1.103  1.00 13.90    -0.000 A 
HETATM   33  C29   D T1504      11.498  -3.643  -0.561  1.00 15.13    -0.001 A 
ENDBRANCH  27  28
BRANCH  27  34
HETATM   34  O34   D T1504       9.246  -3.244   2.304  1.00 17.91    -0.340 OA
HETATM   35  C36   D T1504       8.048  -3.768   1.696  1.00 15.51     0.175 C 
ENDBRANCH  27  34
ENDBRANCH   9  27
TORSDOF 6
ENDMDL
MODEL 2
REMARK VINA RESULT:    -7.888      2.432     10.697
REMARK INTER + INTRA:         -11.570
REMARK INTER:                 -11.781
REMARK INTRA:                   0.211
REMARK UNBOUND:                -0.916
REMARK  6 active torsions:
REMARK  status: ('A' for Active; 'I' for Inactive)
REMARK       I    between atoms: N1_1  and  C25_25 
REMARK    1  A    between atoms: C3_3  and  N5_5 
REMARK       I    between atoms: N5_5  and  C6_6 
REMARK    2  A    between atoms: C6_6  and  C7_7 
REMARK    3  A    between atoms: N17_17  and  C24_24 
REMARK    4  A    between atoms: C25_25  and  C20_32 
REMARK    5  A    between atoms: C27_27  and  C20_32 
REMARK    6  A    between atoms: C20_32  and  O34_35 
ROOT
HETATM    1  N1    D T1504       8.387   5.106  -5.756  1.00 17.57    -0.308 N 
HETATM    2  N2    D T1504      10.552   6.550  -3.238  1.00 15.62    -0.149 NA
HETATM    3  C3    D T1504      10.248   4.413  -2.666  1.00 16.85     0.186 A 
HETATM    4  N4    D T1504      10.826   5.558  -2.258  1.00 16.47    -0.129 NA
HETATM    5  C13   D T1504       9.823   5.959  -4.206  1.00 16.13     0.104 A 
HETATM    6  C14   D T1504       9.595   4.588  -3.870  1.00 16.03     0.055 A 
HETATM    7  C15   D T1504       8.748   3.923  -4.909  1.00 17.80     0.136 C 
HETATM    8  C16   D T1504       9.152   6.341  -5.481  1.00 15.77     0.152 C 
HETATM    9  C25   D T1504       7.448   5.105  -6.716  1.00 17.72     0.266 C 
HETATM   10  O26   D T1504       7.194   6.107  -7.384  1.00 20.29    -0.269 OA
ENDROOT
BRANCH   3  11
HETATM   11  N5    D T1504      10.349   3.286  -1.879  1.00 18.99    -0.187 NA
HETATM   12  C6    D T1504       9.569   2.976  -0.857  1.00 22.32     0.281 C 
HETATM   13  O8    D T1504       8.622   3.646  -0.487  1.00 19.91    -0.265 OA
BRANCH  12  14
HETATM   14  C7    D T1504       9.863   1.720  -0.130  1.00 23.69     0.058 A 
HETATM   15  C9    D T1504      11.014   1.035  -0.486  1.00 24.20     0.006 A 
HETATM   16  C10   D T1504      11.366  -0.136   0.152  1.00 24.36     0.017 A 
HETATM   17  C24   D T1504      10.541  -0.617   1.143  1.00 26.38     0.060 A 
HETATM   18  C11   D T1504       9.367   0.076   1.499  1.00 25.51     0.017 A 
HETATM   19  C12   D T1504       9.019   1.256   0.867  1.00 23.62     0.006 A 
BRANCH  17  20
HETATM   20  N17   D T1504      10.897  -1.808   1.797  1.00 29.22    -0.324 N 
HETATM   21  C18   D T1504      12.078  -2.019   2.230  1.00 32.43     0.088 C 
HETATM   22  C19   D T1504      12.633  -3.210   1.960  1.00 34.59     0.066 C 
HETATM   23  N20   D T1504      11.825  -4.356   1.629  1.00 35.81    -0.247 NA
HETATM   24  C21   D T1504      10.456  -4.003   1.161  1.00 34.06     0.101 C 
HETATM   25  C23   D T1504      12.467  -5.173   0.580  1.00 33.95     0.094 C 
HETATM   26  C22   D T1504       9.876  -2.847   1.973  1.00 31.87     0.124 C 
ENDBRANCH  17  20
ENDBRANCH  12  14
ENDBRANCH   3  11
BRANCH   9  27
HETATM   27  C20   D T1504       6.678   3.847  -6.970  1.00 16.01     0.216 C 
BRANCH  27  28
HETATM   28  C27   D T1504       5.681   4.132  -8.047  1.00 17.19     0.014 A 
HETATM   29  C28   D T1504       4.713   5.145  -7.853  1.00 16.33    -0.001 A 
HETATM   30  C31   D T1504       3.797   5.441  -8.863  1.00 15.88    -0.000 A 
HETATM   31  C35   D T1504       3.848   4.705 -10.065  1.00 16.13    -0.000 A 
HETATM   32  C33   D T1504       4.797   3.698 -10.261  1.00 13.90    -0.000 A 
HETATM   33  C29   D T1504       5.704   3.404  -9.256  1.00 15.13    -0.001 A 
ENDBRANCH  27  28
BRANCH  27  34
HETATM   34  O34   D T1504       7.603   2.812  -7.315  1.00 17.91    -0.340 OA
HETATM   35  C36   D T1504       7.211   1.494  -6.880  1.00 15.51     0.175 C 
ENDBRANCH  27  34
ENDBRANCH   9  27
TORSDOF 6
ENDMDL
MODEL 3
REMARK VINA RESULT:    -7.815      5.632      9.880
REMARK INTER + INTRA:         -11.473
REMARK INTER:                 -10.549
REMARK INTRA:                  -0.924
REMARK UNBOUND:                -0.916
REMARK  6 active torsions:
REMARK  status: ('A' for Active; 'I' for Inactive)
REMARK       I    between atoms: N1_1  and  C25_25 
REMARK    1  A    between atoms: C3_3  and  N5_5 
REMARK       I    between atoms: N5_5  and  C6_6 
REMARK    2  A    between atoms: C6_6  and  C7_7 
REMARK    3  A    between atoms: N17_17  and  C24_24 
REMARK    4  A    between atoms: C25_25  and  C20_32 
REMARK    5  A    between atoms: C27_27  and  C20_32 
REMARK    6  A    between atoms: C20_32  and  O34_35 
ROOT
HETATM    1  N1    D T1504      10.905   9.219   0.872  1.00 17.57    -0.308 N 
HETATM    2  N2    D T1504       9.936   6.443   2.986  1.00 15.62    -0.149 NA
HETATM    3  C3    D T1504       9.596   5.786   0.879  1.00 16.85     0.186 A 
HETATM    4  N4    D T1504       9.445   5.397   2.158  1.00 16.47    -0.129 NA
HETATM    5  C13   D T1504      10.373   7.422   2.169  1.00 16.13     0.104 A 
HETATM    6  C14   D T1504      10.161   7.044   0.806  1.00 16.03     0.055 A 
HETATM    7  C15   D T1504      10.597   8.137  -0.119  1.00 17.80     0.136 C 
HETATM    8  C16   D T1504      10.956   8.789   2.286  1.00 15.77     0.152 C 
HETATM    9  C25   D T1504      11.132  10.505   0.559  1.00 17.72     0.266 C 
HETATM   10  O26   D T1504      11.382  11.352   1.415  1.00 20.29    -0.269 OA
ENDROOT
BRANCH   3  11
HETATM   11  N5    D T1504       9.178   4.953  -0.137  1.00 18.99    -0.187 NA
HETATM   12  C6    D T1504       9.954   4.364  -1.031  1.00 22.32     0.281 C 
HETATM   13  O8    D T1504      11.167   4.459  -1.058  1.00 19.91    -0.265 OA
BRANCH  12  14
HETATM   14  C7    D T1504       9.296   3.520  -2.054  1.00 23.69     0.058 A 
HETATM   15  C9    D T1504       7.959   3.212  -1.859  1.00 24.20     0.006 A 
HETATM   16  C10   D T1504       7.270   2.442  -2.772  1.00 24.36     0.017 A 
HETATM   17  C24   D T1504       7.944   1.975  -3.878  1.00 26.38     0.060 A 
HETATM   18  C11   D T1504       9.305   2.282  -4.071  1.00 25.51     0.017 A 
HETATM   19  C12   D T1504       9.993   3.063  -3.162  1.00 23.62     0.006 A 
BRANCH  17  20
HETATM   20  N17   D T1504       7.245   1.192  -4.812  1.00 29.22    -0.324 N 
HETATM   21  C18   D T1504       7.351  -0.078  -4.849  1.00 32.43     0.088 C 
HETATM   22  C19   D T1504       7.534  -0.650  -6.048  1.00 34.59     0.066 C 
HETATM   23  N20   D T1504       7.169   0.028  -7.266  1.00 35.81    -0.247 NA
HETATM   24  C21   D T1504       7.044   1.503  -7.110  1.00 34.06     0.101 C 
HETATM   25  C23   D T1504       8.153  -0.234  -8.335  1.00 33.95     0.094 C 
HETATM   26  C22   D T1504       6.376   1.864  -5.785  1.00 31.87     0.124 C 
ENDBRANCH  17  20
ENDBRANCH  12  14
ENDBRANCH   3  11
BRANCH   9  27
HETATM   27  C20   D T1504      11.064  10.920  -0.878  1.00 16.01     0.216 C 
BRANCH  27  28
HETATM   28  C27   D T1504       9.690  11.449  -1.135  1.00 17.19     0.014 A 
HETATM   29  C28   D T1504       9.202  12.531  -0.365  1.00 16.33    -0.001 A 
HETATM   30  C31   D T1504       7.933  13.054  -0.617  1.00 15.88    -0.000 A 
HETATM   31  C35   D T1504       7.150  12.477  -1.637  1.00 16.13    -0.000 A 
HETATM   32  C33   D T1504       7.622  11.403  -2.397  1.00 13.90    -0.000 A 
HETATM   33  C29   D T1504       8.881  10.884  -2.144  1.00 15.13    -0.001 A 
ENDBRANCH  27  28
BRANCH  27  34
HETATM   34  O34   D T1504      12.095  11.880  -1.121  1.00 17.91    -0.340 OA
HETATM   35  C36   D T1504      13.397  11.307  -1.363  1.00 15.51     0.175 C 
ENDBRANCH  27  34
ENDBRANCH   9  27
TORSDOF 6
ENDMDL
MODEL 4
REMARK VINA RESULT:    -7.762      7.467     11.590
REMARK INTER + INTRA:         -11.401
REMARK INTER:                 -10.372
REMARK INTRA:                  -1.029
REMARK UNBOUND:                -0.916
REMARK  6 active torsions:
REMARK  status: ('A' for Active; 'I' for Inactive)
REMARK       I    between atoms: N1_1  and  C25_25 
REMARK    1  A    between atoms: C3_3  and  N5_5 
REMARK       I    between atoms: N5_5  and  C6_6 
REMARK    2  A    between atoms: C6_6  and  C7_7 
REMARK    3  A    between atoms: N17_17  and  C24_24 
REMARK    4  A    between atoms: C25_25  and  C20_32 
REMARK    5  A    between atoms: C27_27  and  C20_32 
REMARK    6  A    between atoms: C20_32  and  O34_35 
ROOT
HETATM    1  N1    D T1504       9.896  11.916   1.948  1.00 17.57    -0.308 N 
HETATM    2  N2    D T1504       9.567   8.714   3.607  1.00 15.62    -0.149 NA
HETATM    3  C3    D T1504       9.637   8.290   1.415  1.00 16.85     0.186 A 
HETATM    4  N4    D T1504       9.480   7.700   2.615  1.00 16.47    -0.129 NA
HETATM    5  C13   D T1504       9.781   9.880   2.964  1.00 16.13     0.104 A 
HETATM    6  C14   D T1504       9.820   9.652   1.553  1.00 16.03     0.055 A 
HETATM    7  C15   D T1504      10.011  10.941   0.816  1.00 17.80     0.136 C 
HETATM    8  C16   D T1504       9.931  11.323   3.302  1.00 15.77     0.152 C 
HETATM    9  C25   D T1504       9.774  13.246   1.807  1.00 17.72     0.266 C 
HETATM   10  O26   D T1504       9.685  14.001   2.774  1.00 20.29    -0.269 OA
ENDROOT
BRANCH   3  11
HETATM   11  N5    D T1504       9.577   7.526   0.270  1.00 18.99    -0.187 NA
HETATM   12  C6    D T1504      10.610   7.082  -0.426  1.00 22.32     0.281 C 
HETATM   13  O8    D T1504      11.774   7.269  -0.124  1.00 19.91    -0.265 OA
BRANCH  12  14
HETATM   14  C7    D T1504      10.323   6.288  -1.642  1.00 23.69     0.058 A 
HETATM   15  C9    D T1504      10.121   4.927  -1.479  1.00 24.20     0.006 A 
HETATM   16  C10   D T1504       9.835   4.119  -2.560  1.00 24.36     0.017 A 
HETATM   17  C24   D T1504       9.766   4.694  -3.809  1.00 26.38     0.060 A 
HETATM   18  C11   D T1504       9.980   6.077  -3.975  1.00 25.51     0.017 A 
HETATM   19  C12   D T1504      10.255   6.888  -2.890  1.00 23.62     0.006 A 
BRANCH  17  20
HETATM   20  N17   D T1504       9.473   3.876  -4.912  1.00 29.22    -0.324 N 
HETATM   21  C18   D T1504       9.066   4.352  -6.022  1.00 32.43     0.088 C 
HETATM   22  C19   D T1504       8.016   3.754  -6.606  1.00 34.59     0.066 C 
HETATM   23  N20   D T1504       7.651   2.399  -6.283  1.00 35.81    -0.247 NA
HETATM   24  C21   D T1504       8.198   1.930  -4.981  1.00 34.06     0.101 C 
HETATM   25  C23   D T1504       6.183   2.240  -6.243  1.00 33.95     0.094 C 
HETATM   26  C22   D T1504       9.628   2.423  -4.773  1.00 31.87     0.124 C 
ENDBRANCH  17  20
ENDBRANCH  12  14
ENDBRANCH   3  11
BRANCH   9  27
HETATM   27  C20   D T1504       9.730  13.823   0.427  1.00 16.01     0.216 C 
BRANCH  27  28
HETATM   28  C27   D T1504       8.295  14.054   0.074  1.00 17.19     0.014 A 
HETATM   29  C28   D T1504       7.671  13.229  -0.892  1.00 16.33    -0.001 A 
HETATM   30  C31   D T1504       6.325  13.415  -1.206  1.00 15.88    -0.000 A 
HETATM   31  C35   D T1504       5.609  14.441  -0.556  1.00 16.13    -0.000 A 
HETATM   32  C33   D T1504       6.220  15.264   0.395  1.00 13.90    -0.000 A 
HETATM   33  C29   D T1504       7.558  15.079   0.704  1.00 15.13    -0.001 A 
ENDBRANCH  27  28
BRANCH  27  34
HETATM   34  O34   D T1504      10.515  15.017   0.409  1.00 17.91    -0.340 OA
HETATM   35  C36   D T1504      11.815  14.866  -0.197  1.00 15.51     0.175 C 
ENDBRANCH  27  34
ENDBRANCH   9  27
TORSDOF 6
ENDMDL
MODEL 5
REMARK VINA RESULT:    -7.690      5.588      9.020
REMARK INTER + INTRA:         -11.304
REMARK INTER:                 -10.221
REMARK INTRA:                  -1.083
REMARK UNBOUND:                -0.916
REMARK  6 active torsions:
REMARK  status: ('A' for Active; 'I' for Inactive)
REMARK       I    between atoms: N1_1  and  C25_25 
REMARK    1  A    between atoms: C3_3  and  N5_5 
REMARK       I    between atoms: N5_5  and  C6_6 
REMARK    2  A    between atoms: C6_6  and  C7_7 
REMARK    3  A    between atoms: N17_17  and  C24_24 
REMARK    4  A    between atoms: C25_25  and  C20_32 
REMARK    5  A    between atoms: C27_27  and  C20_32 
REMARK    6  A    between atoms: C20_32  and  O34_35 
ROOT
HETATM    1  N1    D T1504      11.193   7.784   0.723  1.00 17.57    -0.308 N 
HETATM    2  N2    D T1504       9.793   4.647   1.869  1.00 15.62    -0.149 NA
HETATM    3  C3    D T1504       9.656   4.628  -0.360  1.00 16.85     0.186 A 
HETATM    4  N4    D T1504       9.330   3.922   0.738  1.00 16.47    -0.129 NA
HETATM    5  C13   D T1504      10.389   5.764   1.405  1.00 16.13     0.104 A 
HETATM    6  C14   D T1504      10.311   5.796  -0.022  1.00 16.03     0.055 A 
HETATM    7  C15   D T1504      10.928   7.050  -0.557  1.00 17.80     0.136 C 
HETATM    8  C16   D T1504      11.048   6.981   1.956  1.00 15.77     0.152 C 
HETATM    9  C25   D T1504      11.544   9.077   0.808  1.00 17.72     0.266 C 
HETATM   10  O26   D T1504      11.752   9.629   1.888  1.00 20.29    -0.269 OA
ENDROOT
BRANCH   3  11
HETATM   11  N5    D T1504       9.301   4.150  -1.603  1.00 18.99    -0.187 NA
HETATM   12  C6    D T1504       8.124   4.293  -2.188  1.00 22.32     0.281 C 
HETATM   13  O8    D T1504       7.187   4.904  -1.707  1.00 19.91    -0.265 OA
BRANCH  12  14
HETATM   14  C7    D T1504       7.947   3.682  -3.524  1.00 23.69     0.058 A 
HETATM   15  C9    D T1504       6.650   3.555  -3.998  1.00 24.20     0.006 A 
HETATM   16  C10   D T1504       6.400   3.009  -5.239  1.00 24.36     0.017 A 
HETATM   17  C24   D T1504       7.469   2.581  -5.995  1.00 26.38     0.060 A 
HETATM   18  C11   D T1504       8.786   2.703  -5.509  1.00 25.51     0.017 A 
HETATM   19  C12   D T1504       9.037   3.261  -4.269  1.00 23.62     0.006 A 
BRANCH  17  20
HETATM   20  N17   D T1504       7.219   2.026  -7.261  1.00 29.22    -0.324 N 
HETATM   21  C18   D T1504       6.635   2.681  -8.187  1.00 32.43     0.088 C 
HETATM   22  C19   D T1504       5.654   2.061  -8.859  1.00 34.59     0.066 C 
HETATM   23  N20   D T1504       5.557   0.624  -8.890  1.00 35.81    -0.247 NA
HETATM   24  C21   D T1504       6.295  -0.045  -7.784  1.00 34.06     0.101 C 
HETATM   25  C23   D T1504       4.149   0.185  -8.828  1.00 33.95     0.094 C 
HETATM   26  C22   D T1504       7.633   0.642  -7.517  1.00 31.87     0.124 C 
ENDBRANCH  17  20
ENDBRANCH  12  14
ENDBRANCH   3  11
BRANCH   9  27
HETATM   27  C20   D T1504      11.674   9.873  -0.453  1.00 16.01     0.216 C 
BRANCH  27  28
HETATM   28  C27   D T1504      10.400  10.633  -0.646  1.00 17.19     0.014 A 
HETATM   29  C28   D T1504      10.168  11.810   0.104  1.00 16.33    -0.001 A 
HETATM   30  C31   D T1504       8.997  12.543  -0.089  1.00 15.88    -0.000 A 
HETATM   31  C35   D T1504       8.053  12.083  -1.029  1.00 16.13    -0.000 A 
HETATM   32  C33   D T1504       8.272  10.917  -1.769  1.00 13.90    -0.000 A 
HETATM   33  C29   D T1504       9.434  10.189  -1.573  1.00 15.13    -0.001 A 
ENDBRANCH  27  28
BRANCH  27  34
HETATM   34  O34   D T1504      12.823  10.715  -0.341  1.00 17.91    -0.340 OA
HETATM   35  C36   D T1504      13.882  10.404  -1.269  1.00 15.51     0.175 C 
ENDBRANCH  27  34
ENDBRANCH   9  27
TORSDOF 6
ENDMDL
MODEL 6
REMARK VINA RESULT:    -7.629      8.275     10.316
REMARK INTER + INTRA:         -11.222
REMARK INTER:                 -10.339
REMARK INTRA:                  -0.883
REMARK UNBOUND:                -0.916
REMARK  6 active torsions:
REMARK  status: ('A' for Active; 'I' for Inactive)
REMARK       I    between atoms: N1_1  and  C25_25 
REMARK    1  A    between atoms: C3_3  and  N5_5 
REMARK       I    between atoms: N5_5  and  C6_6 
REMARK    2  A    between atoms: C6_6  and  C7_7 
REMARK    3  A    between atoms: N17_17  and  C24_24 
REMARK    4  A    between atoms: C25_25  and  C20_32 
REMARK    5  A    between atoms: C27_27  and  C20_32 
REMARK    6  A    between atoms: C20_32  and  O34_35 
ROOT
HETATM    1  N1    D T1504      10.688   5.898  -1.041  1.00 17.57    -0.308 N 
HETATM    2  N2    D T1504      13.118   8.582  -0.972  1.00 15.62    -0.149 NA
HETATM    3  C3    D T1504      11.116   9.530  -0.693  1.00 16.85     0.186 A 
HETATM    4  N4    D T1504      12.424   9.814  -0.834  1.00 16.47    -0.129 NA
HETATM    5  C13   D T1504      12.198   7.599  -0.902  1.00 16.13     0.104 A 
HETATM    6  C14   D T1504      10.896   8.167  -0.736  1.00 16.03     0.055 A 
HETATM    7  C15   D T1504       9.853   7.095  -0.701  1.00 17.80     0.136 C 
HETATM    8  C16   D T1504      12.150   6.113  -1.002  1.00 15.77     0.152 C 
HETATM    9  C25   D T1504      10.202   4.688  -1.361  1.00 17.72     0.266 C 
HETATM   10  O26   D T1504      10.935   3.738  -1.630  1.00 20.29    -0.269 OA
ENDROOT
BRANCH   3  11
HETATM   11  N5    D T1504      10.210  10.560  -0.557  1.00 18.99    -0.187 NA
HETATM   12  C6    D T1504       9.246  10.868  -1.408  1.00 22.32     0.281 C 
HETATM   13  O8    D T1504       9.008  10.253  -2.431  1.00 19.91    -0.265 OA
BRANCH  12  14
HETATM   14  C7    D T1504       8.391  12.031  -1.079  1.00 23.69     0.058 A 
HETATM   15  C9    D T1504       8.877  12.933  -0.146  1.00 24.20     0.006 A 
HETATM   16  C10   D T1504       8.148  14.050   0.206  1.00 24.36     0.017 A 
HETATM   17  C24   D T1504       6.918  14.242  -0.381  1.00 26.38     0.060 A 
HETATM   18  C11   D T1504       6.420  13.320  -1.323  1.00 25.51     0.017 A 
HETATM   19  C12   D T1504       7.156  12.206  -1.684  1.00 23.62     0.006 A 
BRANCH  17  20
HETATM   20  N17   D T1504       6.173  15.379  -0.027  1.00 29.22    -0.324 N 
HETATM   21  C18   D T1504       5.152  15.757  -0.692  1.00 32.43     0.088 C 
HETATM   22  C19   D T1504       5.061  17.059  -0.999  1.00 34.59     0.066 C 
HETATM   23  N20   D T1504       5.783  18.058  -0.253  1.00 35.81    -0.247 NA
HETATM   24  C21   D T1504       6.938  17.510   0.509  1.00 34.06     0.101 C 
HETATM   25  C23   D T1504       6.290  19.122  -1.143  1.00 33.95     0.094 C 
HETATM   26  C22   D T1504       6.595  16.162   1.139  1.00 31.87     0.124 C 
ENDBRANCH  17  20
ENDBRANCH  12  14
ENDBRANCH   3  11
BRANCH   9  27
HETATM   27  C20   D T1504       8.717   4.497  -1.404  1.00 16.01     0.216 C 
BRANCH  27  28
HETATM   28  C27   D T1504       8.344   4.141  -2.808  1.00 17.19     0.014 A 
HETATM   29  C28   D T1504       9.060   4.711  -3.887  1.00 16.33    -0.001 A 
HETATM   30  C31   D T1504       8.741   4.363  -5.200  1.00 15.88    -0.000 A 
HETATM   31  C35   D T1504       7.691   3.450  -5.426  1.00 16.13    -0.000 A 
HETATM   32  C33   D T1504       6.974   2.888  -4.365  1.00 13.90    -0.000 A 
HETATM   33  C29   D T1504       7.291   3.237  -3.062  1.00 15.13    -0.001 A 
ENDBRANCH  27  28
BRANCH  27  34
HETATM   34  O34   D T1504       8.363   3.491  -0.452  1.00 17.91    -0.340 OA
HETATM   35  C36   D T1504       8.736   3.799   0.906  1.00 15.51     0.175 C 
ENDBRANCH  27  34
ENDBRANCH   9  27
TORSDOF 6
ENDMDL
MODEL 7
REMARK VINA RESULT:    -7.492      4.652     10.730
REMARK INTER + INTRA:         -11.036
REMARK INTER:                  -9.872
REMARK INTRA:                  -1.164
REMARK UNBOUND:                -0.916
REMARK  6 active torsions:
REMARK  status: ('A' for Active; 'I' for Inactive)
REMARK       I    between atoms: N1_1  and  C25_25 
REMARK    1  A    between atoms: C3_3  and  N5_5 
REMARK       I    between atoms: N5_5  and  C6_6 
REMARK    2  A    between atoms: C6_6  and  C7_7 
REMARK    3  A    between atoms: N17_17  and  C24_24 
REMARK    4  A    between atoms: C25_25  and  C20_32 
REMARK    5  A    between atoms: C27_27  and  C20_32 
REMARK    6  A    between atoms: C20_32  and  O34_35 
ROOT
HETATM    1  N1    D T1504      10.301   8.098  -0.620  1.00 17.57    -0.308 N 
HETATM    2  N2    D T1504       9.735   6.053  -3.555  1.00 15.62    -0.149 NA
HETATM    3  C3    D T1504      10.107   4.646  -1.861  1.00 16.85     0.186 A 
HETATM    4  N4    D T1504       9.889   4.689  -3.189  1.00 16.47    -0.129 NA
HETATM    5  C13   D T1504       9.860   6.782  -2.427  1.00 16.13     0.104 A 
HETATM    6  C14   D T1504      10.112   5.915  -1.318  1.00 16.03     0.055 A 
HETATM    7  C15   D T1504      10.299   6.707  -0.062  1.00 17.80     0.136 C 
HETATM    8  C16   D T1504       9.863   8.217  -2.028  1.00 15.77     0.152 C 
HETATM    9  C25   D T1504      10.659   9.199   0.060  1.00 17.72     0.266 C 
HETATM   10  O26   D T1504      10.639  10.319  -0.448  1.00 20.29    -0.269 OA
ENDROOT
BRANCH   3  11
HETATM   11  N5    D T1504      10.309   3.429  -1.247  1.00 18.99    -0.187 NA
HETATM   12  C6    D T1504      11.465   2.956  -0.813  1.00 22.32     0.281 C 
HETATM   13  O8    D T1504      12.521   3.559  -0.875  1.00 19.91    -0.265 OA
BRANCH  12  14
HETATM   14  C7    D T1504      11.464   1.611  -0.196  1.00 23.69     0.058 A 
HETATM   15  C9    D T1504      11.079   1.522   1.132  1.00 24.20     0.006 A 
HETATM   16  C10   D T1504      11.038   0.303   1.778  1.00 24.36     0.017 A 
HETATM   17  C24   D T1504      11.401  -0.824   1.075  1.00 26.38     0.060 A 
HETATM   18  C11   D T1504      11.800  -0.731  -0.273  1.00 25.51     0.017 A 
HETATM   19  C12   D T1504      11.830   0.489  -0.923  1.00 23.62     0.006 A 
BRANCH  17  20
HETATM   20  N17   D T1504      11.358  -2.067   1.727  1.00 29.22    -0.324 N 
HETATM   21  C18   D T1504      12.348  -2.520   2.391  1.00 32.43     0.088 C 
HETATM   22  C19   D T1504      12.699  -3.798   2.185  1.00 34.59     0.066 C 
HETATM   23  N20   D T1504      11.772  -4.751   1.630  1.00 35.81    -0.247 NA
HETATM   24  C21   D T1504      10.639  -4.120   0.899  1.00 34.06     0.101 C 
HETATM   25  C23   D T1504      12.452  -5.676   0.703  1.00 33.95     0.094 C 
HETATM   26  C22   D T1504      10.137  -2.874   1.627  1.00 31.87     0.124 C 
ENDBRANCH  17  20
ENDBRANCH  12  14
ENDBRANCH   3  11
BRANCH   9  27
HETATM   27  C20   D T1504      11.109   9.053   1.481  1.00 16.01     0.216 C 
BRANCH  27  28
HETATM   28  C27   D T1504      12.605   9.074   1.489  1.00 17.19     0.014 A 
HETATM   29  C28   D T1504      13.285  10.298   1.686  1.00 16.33    -0.001 A 
HETATM   30  C31   D T1504      14.679  10.325   1.727  1.00 15.88    -0.000 A 
HETATM   31  C35   D T1504      15.389   9.119   1.555  1.00 16.13    -0.000 A 
HETATM   32  C33   D T1504      14.724   7.906   1.352  1.00 13.90    -0.000 A 
HETATM   33  C29   D T1504      13.339   7.882   1.310  1.00 15.13    -0.001 A 
ENDBRANCH  27  28
BRANCH  27  34
HETATM   34  O34   D T1504      10.524  10.104   2.252  1.00 17.91    -0.340 OA
HETATM   35  C36   D T1504       9.252   9.772   2.844  1.00 15.51     0.175 C 
ENDBRANCH  27  34
ENDBRANCH   9  27
TORSDOF 6
ENDMDL
MODEL 8
REMARK VINA RESULT:    -7.286      6.309     10.011
REMARK INTER + INTRA:         -10.758
REMARK INTER:                  -9.693
REMARK INTRA:                  -1.066
REMARK UNBOUND:                -0.916
REMARK  6 active torsions:
REMARK  status: ('A' for Active; 'I' for Inactive)
REMARK       I    between atoms: N1_1  and  C25_25 
REMARK    1  A    between atoms: C3_3  and  N5_5 
REMARK       I    between atoms: N5_5  and  C6_6 
REMARK    2  A    between atoms: C6_6  and  C7_7 
REMARK    3  A    between atoms: N17_17  and  C24_24 
REMARK    4  A    between atoms: C25_25  and  C20_32 
REMARK    5  A    between atoms: C27_27  and  C20_32 
REMARK    6  A    between atoms: C20_32  and  O34_35 
ROOT
HETATM    1  N1    D T1504      12.012  10.720   0.246  1.00 17.57    -0.308 N 
HETATM    2  N2    D T1504      14.387   8.201  -0.816  1.00 15.62    -0.149 NA
HETATM    3  C3    D T1504      12.364   7.447  -1.386  1.00 16.85     0.186 A 
HETATM    4  N4    D T1504      13.667   7.112  -1.377  1.00 16.47    -0.129 NA
HETATM    5  C13   D T1504      13.486   9.158  -0.516  1.00 16.13     0.104 A 
HETATM    6  C14   D T1504      12.173   8.708  -0.855  1.00 16.03     0.055 A 
HETATM    7  C15   D T1504      11.150   9.737  -0.488  1.00 17.80     0.136 C 
HETATM    8  C16   D T1504      13.470  10.510   0.110  1.00 15.77     0.152 C 
HETATM    9  C25   D T1504      11.553  11.742   0.985  1.00 17.72     0.266 C 
HETATM   10  O26   D T1504      12.307  12.521   1.566  1.00 20.29    -0.269 OA
ENDROOT
BRANCH   3  11
HETATM   11  N5    D T1504      11.436   6.549  -1.868  1.00 18.99    -0.187 NA
HETATM   12  C6    D T1504      10.559   5.872  -1.148  1.00 22.32     0.281 C 
HETATM   13  O8    D T1504      10.432   5.977   0.059  1.00 19.91    -0.265 OA
BRANCH  12  14
HETATM   14  C7    D T1504       9.661   4.940  -1.865  1.00 23.69     0.058 A 
HETATM   15  C9    D T1504      10.209   4.202  -2.903  1.00 24.20     0.006 A 
HETATM   16  C10   D T1504       9.443   3.302  -3.614  1.00 24.36     0.017 A 
HETATM   17  C24   D T1504       8.116   3.159  -3.276  1.00 26.38     0.060 A 
HETATM   18  C11   D T1504       7.557   3.915  -2.226  1.00 25.51     0.017 A 
HETATM   19  C12   D T1504       8.328   4.810  -1.507  1.00 23.62     0.006 A 
BRANCH  17  20
HETATM   20  N17   D T1504       7.333   2.242  -3.995  1.00 29.22    -0.324 N 
HETATM   21  C18   D T1504       7.309   0.999  -3.710  1.00 32.43     0.088 C 
HETATM   22  C19   D T1504       7.421   0.129  -4.725  1.00 34.59     0.066 C 
HETATM   23  N20   D T1504       7.116   0.513  -6.080  1.00 35.81    -0.247 NA
HETATM   24  C21   D T1504       7.143   1.985  -6.301  1.00 34.06     0.101 C 
HETATM   25  C23   D T1504       8.058  -0.107  -7.033  1.00 33.95     0.094 C 
HETATM   26  C22   D T1504       6.528   2.732  -5.119  1.00 31.87     0.124 C 
ENDBRANCH  17  20
ENDBRANCH  12  14
ENDBRANCH   3  11
BRANCH   9  27
HETATM   27  C20   D T1504      10.073  11.928   1.117  1.00 16.01     0.216 C 
BRANCH  27  28
HETATM   28  C27   D T1504       9.637  11.240   2.371  1.00 17.19     0.014 A 
HETATM   29  C28   D T1504       9.113   9.928   2.302  1.00 16.33    -0.001 A 
HETATM   30  C31   D T1504       8.732   9.264   3.468  1.00 15.88    -0.000 A 
HETATM   31  C35   D T1504       8.865   9.929   4.704  1.00 16.13    -0.000 A 
HETATM   32  C33   D T1504       9.375  11.229   4.780  1.00 13.90    -0.000 A 
HETATM   33  C29   D T1504       9.751  11.887   3.620  1.00 15.13    -0.001 A 
ENDBRANCH  27  28
BRANCH  27  34
HETATM   34  O34   D T1504       9.791  13.330   1.113  1.00 17.91    -0.340 OA
HETATM   35  C36   D T1504       8.830  13.741   0.120  1.00 15.51     0.175 C 
ENDBRANCH  27  34
ENDBRANCH   9  27
TORSDOF 6
ENDMDL
MODEL 9
REMARK VINA RESULT:    -7.264      5.291     11.007
REMARK INTER + INTRA:         -10.728
REMARK INTER:                  -9.565
REMARK INTRA:                  -1.163
REMARK UNBOUND:                -0.916
REMARK  6 active torsions:
REMARK  status: ('A' for Active; 'I' for Inactive)
REMARK       I    between atoms: N1_1  and  C25_25 
REMARK    1  A    between atoms: C3_3  and  N5_5 
REMARK       I    between atoms: N5_5  and  C6_6 
REMARK    2  A    between atoms: C6_6  and  C7_7 
REMARK    3  A    between atoms: N17_17  and  C24_24 
REMARK    4  A    between atoms: C25_25  and  C20_32 
REMARK    5  A    between atoms: C27_27  and  C20_32 
REMARK    6  A    between atoms: C20_32  and  O34_35 
ROOT
HETATM    1  N1    D T1504      11.859   8.672   0.068  1.00 17.57    -0.308 N 
HETATM    2  N2    D T1504       8.687   7.236  -0.926  1.00 15.62    -0.149 NA
HETATM    3  C3    D T1504       9.833   5.607   0.083  1.00 16.85     0.186 A 
HETATM    4  N4    D T1504       8.685   5.860  -0.572  1.00 16.47    -0.129 NA
HETATM    5  C13   D T1504       9.838   7.762  -0.463  1.00 16.13     0.104 A 
HETATM    6  C14   D T1504      10.609   6.745   0.181  1.00 16.03     0.055 A 
HETATM    7  C15   D T1504      11.913   7.298   0.664  1.00 17.80     0.136 C 
HETATM    8  C16   D T1504      10.546   9.073  -0.480  1.00 15.77     0.152 C 
HETATM    9  C25   D T1504      12.893   9.526   0.011  1.00 17.72     0.266 C 
HETATM   10  O26   D T1504      12.791  10.645  -0.490  1.00 20.29    -0.269 OA
ENDROOT
BRANCH   3  11
HETATM   11  N5    D T1504      10.093   4.328   0.526  1.00 18.99    -0.187 NA
HETATM   12  C6    D T1504      10.961   3.481  -0.002  1.00 22.32     0.281 C 
HETATM   13  O8    D T1504      11.680   3.735  -0.950  1.00 19.91    -0.265 OA
BRANCH  12  14
HETATM   14  C7    D T1504      11.072   2.142   0.620  1.00 23.69     0.058 A 
HETATM   15  C9    D T1504      11.254   1.061  -0.228  1.00 24.20     0.006 A 
HETATM   16  C10   D T1504      11.380  -0.218   0.273  1.00 24.36     0.017 A 
HETATM   17  C24   D T1504      11.309  -0.399   1.636  1.00 26.38     0.060 A 
HETATM   18  C11   D T1504      11.116   0.700   2.497  1.00 25.51     0.017 A 
HETATM   19  C12   D T1504      11.001   1.983   1.995  1.00 23.62     0.006 A 
BRANCH  17  20
HETATM   20  N17   D T1504      11.440  -1.700   2.150  1.00 29.22    -0.324 N 
HETATM   21  C18   D T1504      12.569  -2.188   2.485  1.00 32.43     0.088 C 
HETATM   22  C19   D T1504      12.854  -3.431   2.069  1.00 34.59     0.066 C 
HETATM   23  N20   D T1504      11.814  -4.350   1.683  1.00 35.81    -0.247 NA
HETATM   24  C21   D T1504      10.529  -3.682   1.339  1.00 34.06     0.101 C 
HETATM   25  C23   D T1504      12.228  -5.164   0.524  1.00 33.95     0.094 C 
HETATM   26  C22   D T1504      10.235  -2.525   2.292  1.00 31.87     0.124 C 
ENDBRANCH  17  20
ENDBRANCH  12  14
ENDBRANCH   3  11
BRANCH   9  27
HETATM   27  C20   D T1504      14.216   9.093   0.562  1.00 16.01     0.216 C 
BRANCH  27  28
HETATM   28  C27   D T1504      15.212   9.138  -0.553  1.00 17.19     0.014 A 
HETATM   29  C28   D T1504      16.357   9.961  -0.435  1.00 16.33    -0.001 A 
HETATM   30  C31   D T1504      17.307   9.987  -1.455  1.00 15.88    -0.000 A 
HETATM   31  C35   D T1504      17.098   9.194  -2.601  1.00 16.13    -0.000 A 
HETATM   32  C33   D T1504      15.966   8.383  -2.728  1.00 13.90    -0.000 A 
HETATM   33  C29   D T1504      15.022   8.360  -1.714  1.00 15.13    -0.001 A 
ENDBRANCH  27  28
BRANCH  27  34
HETATM   34  O34   D T1504      14.553   9.949   1.656  1.00 17.91    -0.340 OA
HETATM   35  C36   D T1504      15.002   9.257   2.838  1.00 15.51     0.175 C 
ENDBRANCH  27  34
ENDBRANCH   9  27
TORSDOF 6
ENDMDL
