MODEL 1
REMARK VINA RESULT:    -8.561      0.000      0.000
REMARK INTER + INTRA:         -12.611
REMARK INTER:                 -11.564
REMARK INTRA:                  -1.048
REMARK UNBOUND:                -1.048
REMARK  6 active torsions:
REMARK  status: ('A' for Active; 'I' for Inactive)
REMARK       I    between atoms: N1_1  and  C25_25 
REMARK    1  A    between atoms: C3_3  and  N5_5 
REMARK       I    between atoms: N5_5  and  C6_6 
REMARK    2  A    between atoms: C6_6  and  C7_7 
REMARK    3  A    between atoms: N17_17  and  C24_24 
REMARK    4  A    between atoms: C25_25  and  C20_32 
REMARK    5  A    between atoms: C27_27  and  C20_32 
REMARK    6  A    between atoms: C20_32  and  O34_35 
ROOT
HETATM    1  N1    D T1504     -17.096   6.141  -0.407  1.00 17.57    -0.308 N 
HETATM    2  N2    D T1504     -13.482   6.316  -0.238  1.00 15.62    -0.149 NA
HETATM    3  C3    D T1504     -13.973   4.898  -1.890  1.00 16.85     0.186 A 
HETATM    4  N4    D T1504     -12.943   5.424  -1.203  1.00 16.47    -0.129 NA
HETATM    5  C13   D T1504     -14.822   6.298  -0.387  1.00 16.13     0.104 A 
HETATM    6  C14   D T1504     -15.178   5.388  -1.430  1.00 16.03     0.055 A 
HETATM    7  C15   D T1504     -16.666   5.317  -1.583  1.00 17.80     0.136 C 
HETATM    8  C16   D T1504     -16.020   6.908   0.256  1.00 15.77     0.152 C 
HETATM    9  C25   D T1504     -18.352   6.220   0.057  1.00 17.72     0.266 C 
HETATM   10  O26   D T1504     -18.650   6.914   1.029  1.00 20.29    -0.269 OA
ENDROOT
BRANCH   3  11
HETATM   11  N5    D T1504     -13.723   3.977  -2.885  1.00 18.99    -0.187 NA
HETATM   12  C6    D T1504     -13.850   4.180  -4.185  1.00 22.32     0.281 C 
HETATM   13  O8    D T1504     -14.183   5.238  -4.686  1.00 19.91    -0.265 OA
BRANCH  12  14
HETATM   14  C7    D T1504     -13.547   3.046  -5.086  1.00 23.69     0.058 A 
HETATM   15  C9    D T1504     -13.895   1.777  -4.650  1.00 24.20     0.006 A 
HETATM   16  C10   D T1504     -13.657   0.668  -5.435  1.00 24.36     0.017 A 
HETATM   17  C24   D T1504     -13.056   0.850  -6.661  1.00 26.38     0.060 A 
HETATM   18  C11   D T1504     -12.696   2.137  -7.100  1.00 25.51     0.017 A 
HETATM   19  C12   D T1504     -12.943   3.250  -6.318  1.00 23.62     0.006 A 
BRANCH  17  20
HETATM   20  N17   D T1504     -12.816  -0.277  -7.465  1.00 29.22    -0.324 N 
HETATM   21  C18   D T1504     -12.206  -0.199  -8.582  1.00 32.43     0.088 C 
HETATM   22  C19   D T1504     -12.742  -0.845  -9.627  1.00 34.59     0.066 C 
HETATM   23  N20   D T1504     -13.665  -1.937  -9.443  1.00 35.81    -0.247 NA
HETATM   24  C21   D T1504     -14.302  -1.954  -8.097  1.00 34.06     0.101 C 
HETATM   25  C23   D T1504     -14.739  -1.901 -10.454  1.00 33.95     0.094 C 
HETATM   26  C22   D T1504     -13.299  -1.584  -7.006  1.00 31.87     0.124 C 
ENDBRANCH  17  20
ENDBRANCH  12  14
ENDBRANCH   3  11
BRANCH   9  27
HETATM   27  C20   D T1504     -19.424   5.425  -0.623  1.00 16.01     0.216 C 
BRANCH  27  28
HETATM   28  C27   D T1504     -19.589   4.143   0.130  1.00 17.19     0.014 A 
HETATM   29  C28   D T1504     -20.109   4.167   1.445  1.00 16.33    -0.001 A 
HETATM   30  C31   D T1504     -20.296   2.976   2.145  1.00 15.88    -0.000 A 
HETATM   31  C35   D T1504     -19.945   1.760   1.526  1.00 16.13    -0.000 A 
HETATM   32  C33   D T1504     -19.424   1.728   0.228  1.00 13.90    -0.000 A 
HETATM   33  C29   D T1504     -19.236   2.913  -0.465  1.00 15.13    -0.001 A 
ENDBRANCH  27  28
BRANCH  27  34
HETATM   34  O34   D T1504     -20.616   6.212  -0.666  1.00 17.91    -0.340 OA
HETATM   35  C36   D T1504     -21.150   6.414  -1.990  1.00 15.51     0.175 C 
ENDBRANCH  27  34
ENDBRANCH   9  27
TORSDOF 6
ENDMDL
MODEL 2
REMARK VINA RESULT:    -8.141      2.707      4.029
REMARK INTER + INTRA:         -12.044
REMARK INTER:                 -11.790
REMARK INTRA:                  -0.254
REMARK UNBOUND:                -1.048
REMARK  6 active torsions:
REMARK  status: ('A' for Active; 'I' for Inactive)
REMARK       I    between atoms: N1_1  and  C25_25 
REMARK    1  A    between atoms: C3_3  and  N5_5 
REMARK       I    between atoms: N5_5  and  C6_6 
REMARK    2  A    between atoms: C6_6  and  C7_7 
REMARK    3  A    between atoms: N17_17  and  C24_24 
REMARK    4  A    between atoms: C25_25  and  C20_32 
REMARK    5  A    between atoms: C27_27  and  C20_32 
REMARK    6  A    between atoms: C20_32  and  O34_35 
ROOT
HETATM    1  N1    D T1504     -13.181   5.488  -2.577  1.00 17.57    -0.308 N 
HETATM    2  N2    D T1504      -9.912   5.557  -4.134  1.00 15.62    -0.149 NA
HETATM    3  C3    D T1504     -11.057   3.920  -5.131  1.00 16.85     0.186 A 
HETATM    4  N4    D T1504      -9.847   4.508  -5.090  1.00 16.47    -0.129 NA
HETATM    5  C13   D T1504     -11.166   5.564  -3.639  1.00 16.13     0.104 A 
HETATM    6  C14   D T1504     -11.929   4.518  -4.245  1.00 16.03     0.055 A 
HETATM    7  C15   D T1504     -13.314   4.478  -3.677  1.00 17.80     0.136 C 
HETATM    8  C16   D T1504     -11.952   6.309  -2.615  1.00 15.77     0.152 C 
HETATM    9  C25   D T1504     -14.081   5.683  -1.601  1.00 17.72     0.266 C 
HETATM   10  O26   D T1504     -13.921   6.528  -0.721  1.00 20.29    -0.269 OA
ENDROOT
BRANCH   3  11
HETATM   11  N5    D T1504     -11.260   2.849  -5.974  1.00 18.99    -0.187 NA
HETATM   12  C6    D T1504     -12.288   2.684  -6.791  1.00 22.32     0.281 C 
HETATM   13  O8    D T1504     -13.192   3.487  -6.929  1.00 19.91    -0.265 OA
BRANCH  12  14
HETATM   14  C7    D T1504     -12.323   1.447  -7.601  1.00 23.69     0.058 A 
HETATM   15  C9    D T1504     -13.545   0.805  -7.729  1.00 24.20     0.006 A 
HETATM   16  C10   D T1504     -13.666  -0.348  -8.478  1.00 24.36     0.017 A 
HETATM   17  C24   D T1504     -12.539  -0.853  -9.088  1.00 26.38     0.060 A 
HETATM   18  C11   D T1504     -11.297  -0.205  -8.952  1.00 25.51     0.017 A 
HETATM   19  C12   D T1504     -11.178   0.956  -8.210  1.00 23.62     0.006 A 
BRANCH  17  20
HETATM   20  N17   D T1504     -12.659  -2.025  -9.854  1.00 29.22    -0.324 N 
HETATM   21  C18   D T1504     -12.007  -2.200 -10.936  1.00 32.43     0.088 C 
HETATM   22  C19   D T1504     -12.681  -2.666 -11.997  1.00 34.59     0.066 C 
HETATM   23  N20   D T1504     -13.928  -3.373 -11.844  1.00 35.81    -0.247 NA
HETATM   24  C21   D T1504     -14.596  -3.122 -10.537  1.00 34.06     0.101 C 
HETATM   25  C23   D T1504     -14.877  -3.015 -12.915  1.00 33.95     0.094 C 
HETATM   26  C22   D T1504     -13.578  -3.072  -9.398  1.00 31.87     0.124 C 
ENDBRANCH  17  20
ENDBRANCH  12  14
ENDBRANCH   3  11
BRANCH   9  27
HETATM   27  C20   D T1504     -15.314   4.832  -1.576  1.00 16.01     0.216 C 
BRANCH  27  28
HETATM   28  C27   D T1504     -16.023   5.094  -0.285  1.00 17.19     0.014 A 
HETATM   29  C28   D T1504     -15.842   4.211   0.804  1.00 16.33    -0.001 A 
HETATM   30  C31   D T1504     -16.473   4.462   2.022  1.00 15.88    -0.000 A 
HETATM   31  C35   D T1504     -17.300   5.598   2.138  1.00 16.13    -0.000 A 
HETATM   32  C33   D T1504     -17.489   6.473   1.063  1.00 13.90    -0.000 A 
HETATM   33  C29   D T1504     -16.863   6.219  -0.147  1.00 15.13    -0.001 A 
ENDBRANCH  27  28
BRANCH  27  34
HETATM   34  O34   D T1504     -16.102   5.141  -2.727  1.00 17.91    -0.340 OA
HETATM   35  C36   D T1504     -16.969   4.073  -3.160  1.00 15.51     0.175 C 
ENDBRANCH  27  34
ENDBRANCH   9  27
TORSDOF 6
ENDMDL
MODEL 3
REMARK VINA RESULT:    -7.937      4.860     12.153
REMARK INTER + INTRA:         -11.769
REMARK INTER:                 -10.482
REMARK INTRA:                  -1.287
REMARK UNBOUND:                -1.048
REMARK  6 active torsions:
REMARK  status: ('A' for Active; 'I' for Inactive)
REMARK       I    between atoms: N1_1  and  C25_25 
REMARK    1  A    between atoms: C3_3  and  N5_5 
REMARK       I    between atoms: N5_5  and  C6_6 
REMARK    2  A    between atoms: C6_6  and  C7_7 
REMARK    3  A    between atoms: N17_17  and  C24_24 
REMARK    4  A    between atoms: C25_25  and  C20_32 
REMARK    5  A    between atoms: C27_27  and  C20_32 
REMARK    6  A    between atoms: C20_32  and  O34_35 
ROOT
HETATM    1  N1    D T1504     -15.030  -3.382 -10.746  1.00 17.57    -0.308 N 
HETATM    2  N2    D T1504     -15.303  -4.306  -7.255  1.00 15.62    -0.149 NA
HETATM    3  C3    D T1504     -14.880  -2.115  -7.301  1.00 16.85     0.186 A 
HETATM    4  N4    D T1504     -15.048  -3.154  -6.463  1.00 16.47    -0.129 NA
HETATM    5  C13   D T1504     -15.286  -3.912  -8.544  1.00 16.13     0.104 A 
HETATM    6  C14   D T1504     -15.003  -2.513  -8.617  1.00 16.03     0.055 A 
HETATM    7  C15   D T1504     -14.933  -2.062 -10.042  1.00 17.80     0.136 C 
HETATM    8  C16   D T1504     -15.421  -4.526  -9.895  1.00 15.77     0.152 C 
HETATM    9  C25   D T1504     -14.793  -3.575 -12.053  1.00 17.72     0.266 C 
HETATM   10  O26   D T1504     -14.888  -4.683 -12.579  1.00 20.29    -0.269 OA
ENDROOT
BRANCH   3  11
HETATM   11  N5    D T1504     -14.598  -0.868  -6.785  1.00 18.99    -0.187 NA
HETATM   12  C6    D T1504     -13.446  -0.226  -6.883  1.00 22.32     0.281 C 
HETATM   13  O8    D T1504     -12.472  -0.648  -7.479  1.00 19.91    -0.265 OA
BRANCH  12  14
HETATM   14  C7    D T1504     -13.348   1.102  -6.238  1.00 23.69     0.058 A 
HETATM   15  C9    D T1504     -13.501   1.153  -4.861  1.00 24.20     0.006 A 
HETATM   16  C10   D T1504     -13.412   2.351  -4.181  1.00 24.36     0.017 A 
HETATM   17  C24   D T1504     -13.177   3.499  -4.906  1.00 26.38     0.060 A 
HETATM   18  C11   D T1504     -13.029   3.447  -6.304  1.00 25.51     0.017 A 
HETATM   19  C12   D T1504     -13.108   2.246  -6.984  1.00 23.62     0.006 A 
BRANCH  17  20
HETATM   20  N17   D T1504     -13.082   4.719  -4.217  1.00 29.22    -0.324 N 
HETATM   21  C18   D T1504     -11.997   5.111  -3.674  1.00 32.43     0.088 C 
HETATM   22  C19   D T1504     -12.068   5.591  -2.424  1.00 34.59     0.066 C 
HETATM   23  N20   D T1504     -13.306   6.084  -1.877  1.00 35.81    -0.247 NA
HETATM   24  C21   D T1504     -14.512   5.589  -2.599  1.00 34.06     0.101 C 
HETATM   25  C23   D T1504     -13.445   5.714  -0.455  1.00 33.95     0.094 C 
HETATM   26  C22   D T1504     -14.278   5.560  -4.108  1.00 31.87     0.124 C 
ENDBRANCH  17  20
ENDBRANCH  12  14
ENDBRANCH   3  11
BRANCH   9  27
HETATM   27  C20   D T1504     -14.387  -2.403 -12.893  1.00 16.01     0.216 C 
BRANCH  27  28
HETATM   28  C27   D T1504     -12.962  -2.606 -13.299  1.00 17.19     0.014 A 
HETATM   29  C28   D T1504     -12.655  -2.898 -14.649  1.00 16.33    -0.001 A 
HETATM   30  C31   D T1504     -11.328  -3.058 -15.045  1.00 15.88    -0.000 A 
HETATM   31  C35   D T1504     -10.309  -2.938 -14.078  1.00 16.13    -0.000 A 
HETATM   32  C33   D T1504     -10.605  -2.656 -12.741  1.00 13.90    -0.000 A 
HETATM   33  C29   D T1504     -11.925  -2.500 -12.348  1.00 15.13    -0.001 A 
ENDBRANCH  27  28
BRANCH  27  34
HETATM   34  O34   D T1504     -15.283  -2.308 -14.002  1.00 17.91    -0.340 OA
HETATM   35  C36   D T1504     -16.480  -1.549 -13.738  1.00 15.51     0.175 C 
ENDBRANCH  27  34
ENDBRANCH   9  27
TORSDOF 6
ENDMDL
MODEL 4
REMARK VINA RESULT:    -7.711      2.971     10.594
REMARK INTER + INTRA:         -11.464
REMARK INTER:                 -10.603
REMARK INTRA:                  -0.861
REMARK UNBOUND:                -1.048
REMARK  6 active torsions:
REMARK  status: ('A' for Active; 'I' for Inactive)
REMARK       I    between atoms: N1_1  and  C25_25 
REMARK    1  A    between atoms: C3_3  and  N5_5 
REMARK       I    between atoms: N5_5  and  C6_6 
REMARK    2  A    between atoms: C6_6  and  C7_7 
REMARK    3  A    between atoms: N17_17  and  C24_24 
REMARK    4  A    between atoms: C25_25  and  C20_32 
REMARK    5  A    between atoms: C27_27  and  C20_32 
REMARK    6  A    between atoms: C20_32  and  O34_35 
ROOT
HETATM    1  N1    D T1504     -12.448   0.009  -8.128  1.00 17.57    -0.308 N 
HETATM    2  N2    D T1504     -10.657   2.913  -6.915  1.00 15.62    -0.149 NA
HETATM    3  C3    D T1504     -12.466   2.698  -5.625  1.00 16.85     0.186 A 
HETATM    4  N4    D T1504     -11.402   3.491  -5.852  1.00 16.47    -0.129 NA
HETATM    5  C13   D T1504     -11.299   1.786  -7.283  1.00 16.13     0.104 A 
HETATM    6  C14   D T1504     -12.474   1.620  -6.486  1.00 16.03     0.055 A 
HETATM    7  C15   D T1504     -13.229   0.397  -6.908  1.00 17.80     0.136 C 
HETATM    8  C16   D T1504     -11.161   0.713  -8.307  1.00 15.77     0.152 C 
HETATM    9  C25   D T1504     -12.836  -0.908  -9.028  1.00 17.72     0.266 C 
HETATM   10  O26   D T1504     -12.154  -1.189 -10.013  1.00 20.29    -0.269 OA
ENDROOT
BRANCH   3  11
HETATM   11  N5    D T1504     -13.371   3.044  -4.644  1.00 18.99    -0.187 NA
HETATM   12  C6    D T1504     -13.800   2.262  -3.668  1.00 22.32     0.281 C 
HETATM   13  O8    D T1504     -13.423   1.119  -3.486  1.00 19.91    -0.265 OA
BRANCH  12  14
HETATM   14  C7    D T1504     -14.792   2.828  -2.727  1.00 23.69     0.058 A 
HETATM   15  C9    D T1504     -14.454   2.847  -1.383  1.00 24.20     0.006 A 
HETATM   16  C10   D T1504     -15.318   3.369  -0.442  1.00 24.36     0.017 A 
HETATM   17  C24   D T1504     -16.531   3.862  -0.869  1.00 26.38     0.060 A 
HETATM   18  C11   D T1504     -16.877   3.836  -2.233  1.00 25.51     0.017 A 
HETATM   19  C12   D T1504     -16.007   3.322  -3.177  1.00 23.62     0.006 A 
BRANCH  17  20
HETATM   20  N17   D T1504     -17.412   4.398   0.086  1.00 29.22    -0.324 N 
HETATM   21  C18   D T1504     -17.125   4.440   1.327  1.00 32.43     0.088 C 
HETATM   22  C19   D T1504     -18.065   4.037   2.194  1.00 34.59     0.066 C 
HETATM   23  N20   D T1504     -19.459   4.002   1.830  1.00 35.81    -0.247 NA
HETATM   24  C21   D T1504     -19.687   3.982   0.358  1.00 34.06     0.101 C 
HETATM   25  C23   D T1504     -20.130   2.823   2.410  1.00 33.95     0.094 C 
HETATM   26  C22   D T1504     -18.711   4.908  -0.364  1.00 31.87     0.124 C 
ENDBRANCH  17  20
ENDBRANCH  12  14
ENDBRANCH   3  11
BRANCH   9  27
HETATM   27  C20   D T1504     -14.150  -1.600  -8.832  1.00 16.01     0.216 C 
BRANCH  27  28
HETATM   28  C27   D T1504     -14.793  -1.747 -10.174  1.00 17.19     0.014 A 
HETATM   29  C28   D T1504     -14.582  -2.928 -10.925  1.00 16.33    -0.001 A 
HETATM   30  C31   D T1504     -15.201  -3.089 -12.163  1.00 15.88    -0.000 A 
HETATM   31  C35   D T1504     -16.022  -2.054 -12.654  1.00 16.13    -0.000 A 
HETATM   32  C33   D T1504     -16.230  -0.881 -11.922  1.00 13.90    -0.000 A 
HETATM   33  C29   D T1504     -15.612  -0.721 -10.692  1.00 15.13    -0.001 A 
ENDBRANCH  27  28
BRANCH  27  34
HETATM   34  O34   D T1504     -13.912  -2.849  -8.179  1.00 17.91    -0.340 OA
HETATM   35  C36   D T1504     -14.704  -3.061  -6.993  1.00 15.51     0.175 C 
ENDBRANCH  27  34
ENDBRANCH   9  27
TORSDOF 6
ENDMDL
MODEL 5
REMARK VINA RESULT:    -7.700      1.529      2.217
REMARK INTER + INTRA:         -11.448
REMARK INTER:                 -11.008
REMARK INTRA:                  -0.441
REMARK UNBOUND:                -1.048
REMARK  6 active torsions:
REMARK  status: ('A' for Active; 'I' for Inactive)
REMARK       I    between atoms: N1_1  and  C25_25 
REMARK    1  A    between atoms: C3_3  and  N5_5 
REMARK       I    between atoms: N5_5  and  C6_6 
REMARK    2  A    between atoms: C6_6  and  C7_7 
REMARK    3  A    between atoms: N17_17  and  C24_24 
REMARK    4  A    between atoms: C25_25  and  C20_32 
REMARK    5  A    between atoms: C27_27  and  C20_32 
REMARK    6  A    between atoms: C20_32  and  O34_35 
ROOT
HETATM    1  N1    D T1504     -16.189   5.421  -1.211  1.00 17.57    -0.308 N 
HETATM    2  N2    D T1504     -12.760   5.663  -2.352  1.00 15.62    -0.149 NA
HETATM    3  C3    D T1504     -13.633   3.861  -3.339  1.00 16.85     0.186 A 
HETATM    4  N4    D T1504     -12.489   4.555  -3.200  1.00 16.47    -0.129 NA
HETATM    5  C13   D T1504     -14.065   5.596  -2.019  1.00 16.13     0.104 A 
HETATM    6  C14   D T1504     -14.658   4.444  -2.622  1.00 16.03     0.055 A 
HETATM    7  C15   D T1504     -16.097   4.323  -2.228  1.00 17.80     0.136 C 
HETATM    8  C16   D T1504     -15.033   6.342  -1.167  1.00 15.77     0.152 C 
HETATM    9  C25   D T1504     -17.221   5.608  -0.374  1.00 17.72     0.266 C 
HETATM   10  O26   D T1504     -17.244   6.528   0.443  1.00 20.29    -0.269 OA
ENDROOT
BRANCH   3  11
HETATM   11  N5    D T1504     -13.640   2.715  -4.106  1.00 18.99    -0.187 NA
HETATM   12  C6    D T1504     -13.447   2.651  -5.413  1.00 22.32     0.281 C 
HETATM   13  O8    D T1504     -13.204   3.611  -6.120  1.00 19.91    -0.265 OA
BRANCH  12  14
HETATM   14  C7    D T1504     -13.514   1.316  -6.047  1.00 23.69     0.058 A 
HETATM   15  C9    D T1504     -12.797   1.132  -7.219  1.00 24.20     0.006 A 
HETATM   16  C10   D T1504     -12.797  -0.086  -7.867  1.00 24.36     0.017 A 
HETATM   17  C24   D T1504     -13.536  -1.115  -7.326  1.00 26.38     0.060 A 
HETATM   18  C11   D T1504     -14.270  -0.926  -6.140  1.00 25.51     0.017 A 
HETATM   19  C12   D T1504     -14.262   0.292  -5.486  1.00 23.62     0.006 A 
BRANCH  17  20
HETATM   20  N17   D T1504     -13.535  -2.358  -7.981  1.00 29.22    -0.324 N 
HETATM   21  C18   D T1504     -12.744  -2.619  -8.946  1.00 32.43     0.088 C 
HETATM   22  C19   D T1504     -13.264  -3.204 -10.034  1.00 34.59     0.066 C 
HETATM   23  N20   D T1504     -14.509  -3.928  -9.975  1.00 35.81    -0.247 NA
HETATM   24  C21   D T1504     -15.348  -3.571  -8.797  1.00 34.06     0.101 C 
HETATM   25  C23   D T1504     -15.314  -3.702 -11.191  1.00 33.95     0.094 C 
HETATM   26  C22   D T1504     -14.491  -3.382  -7.546  1.00 31.87     0.124 C 
ENDBRANCH  17  20
ENDBRANCH  12  14
ENDBRANCH   3  11
BRANCH   9  27
HETATM   27  C20   D T1504     -18.376   4.655  -0.428  1.00 16.01     0.216 C 
BRANCH  27  28
HETATM   28  C27   D T1504     -18.650   4.191   0.967  1.00 17.19     0.014 A 
HETATM   29  C28   D T1504     -17.630   4.270   1.943  1.00 16.33    -0.001 A 
HETATM   30  C31   D T1504     -17.884   3.870   3.254  1.00 15.88    -0.000 A 
HETATM   31  C35   D T1504     -19.163   3.376   3.580  1.00 16.13    -0.000 A 
HETATM   32  C33   D T1504     -20.175   3.288   2.618  1.00 13.90    -0.000 A 
HETATM   33  C29   D T1504     -19.920   3.684   1.315  1.00 15.13    -0.001 A 
ENDBRANCH  27  28
BRANCH  27  34
HETATM   34  O34   D T1504     -19.486   5.322  -1.031  1.00 17.91    -0.340 OA
HETATM   35  C36   D T1504     -19.895   4.772  -2.300  1.00 15.51     0.175 C 
ENDBRANCH  27  34
ENDBRANCH   9  27
TORSDOF 6
ENDMDL
MODEL 6
REMARK VINA RESULT:    -7.494      2.367      3.934
REMARK INTER + INTRA:         -11.170
REMARK INTER:                 -10.250
REMARK INTRA:                  -0.920
REMARK UNBOUND:                -1.048
REMARK  6 active torsions:
REMARK  status: ('A' for Active; 'I' for Inactive)
REMARK       I    between atoms: N1_1  and  C25_25 
REMARK    1  A    between atoms: C3_3  and  N5_5 
REMARK       I    between atoms: N5_5  and  C6_6 
REMARK    2  A    between atoms: C6_6  and  C7_7 
REMARK    3  A    between atoms: N17_17  and  C24_24 
REMARK    4  A    between atoms: C25_25  and  C20_32 
REMARK    5  A    between atoms: C27_27  and  C20_32 
REMARK    6  A    between atoms: C20_32  and  O34_35 
ROOT
HETATM    1  N1    D T1504     -19.677   4.446  -0.969  1.00 17.57    -0.308 N 
HETATM    2  N2    D T1504     -20.356   5.273  -4.429  1.00 15.62    -0.149 NA
HETATM    3  C3    D T1504     -18.659   3.823  -4.444  1.00 16.85     0.186 A 
HETATM    4  N4    D T1504     -19.413   4.596  -5.247  1.00 16.47    -0.129 NA
HETATM    5  C13   D T1504     -20.137   4.875  -3.159  1.00 16.13     0.104 A 
HETATM    6  C14   D T1504     -19.045   3.954  -3.125  1.00 16.03     0.055 A 
HETATM    7  C15   D T1504     -18.755   3.532  -1.718  1.00 17.80     0.136 C 
HETATM    8  C16   D T1504     -20.669   5.163  -1.798  1.00 15.77     0.152 C 
HETATM    9  C25   D T1504     -19.654   4.640   0.359  1.00 17.72     0.266 C 
HETATM   10  O26   D T1504     -20.437   5.403   0.923  1.00 20.29    -0.269 OA
ENDROOT
BRANCH   3  11
HETATM   11  N5    D T1504     -17.644   3.067  -4.990  1.00 18.99    -0.187 NA
HETATM   12  C6    D T1504     -16.348   3.244  -4.794  1.00 22.32     0.281 C 
HETATM   13  O8    D T1504     -15.873   4.097  -4.068  1.00 19.91    -0.265 OA
BRANCH  12  14
HETATM   14  C7    D T1504     -15.421   2.326  -5.493  1.00 23.69     0.058 A 
HETATM   15  C9    D T1504     -15.921   1.093  -5.883  1.00 24.20     0.006 A 
HETATM   16  C10   D T1504     -15.125   0.184  -6.550  1.00 24.36     0.017 A 
HETATM   17  C24   D T1504     -13.817   0.528  -6.812  1.00 26.38     0.060 A 
HETATM   18  C11   D T1504     -13.309   1.777  -6.410  1.00 25.51     0.017 A 
HETATM   19  C12   D T1504     -14.109   2.692  -5.750  1.00 23.62     0.006 A 
BRANCH  17  20
HETATM   20  N17   D T1504     -13.005  -0.393  -7.495  1.00 29.22    -0.324 N 
HETATM   21  C18   D T1504     -12.284  -0.056  -8.491  1.00 32.43     0.088 C 
HETATM   22  C19   D T1504     -12.317  -0.845  -9.575  1.00 34.59     0.066 C 
HETATM   23  N20   D T1504     -12.745  -2.218  -9.492  1.00 35.81    -0.247 NA
HETATM   24  C21   D T1504     -13.558  -2.515  -8.280  1.00 34.06     0.101 C 
HETATM   25  C23   D T1504     -13.539  -2.599 -10.676  1.00 33.95     0.094 C 
HETATM   26  C22   D T1504     -13.004  -1.791  -7.054  1.00 31.87     0.124 C 
ENDBRANCH  17  20
ENDBRANCH  12  14
ENDBRANCH   3  11
BRANCH   9  27
HETATM   27  C20   D T1504     -18.632   3.911   1.177  1.00 16.01     0.216 C 
BRANCH  27  28
HETATM   28  C27   D T1504     -17.451   4.815   1.340  1.00 17.19     0.014 A 
HETATM   29  C28   D T1504     -16.215   4.463   0.748  1.00 16.33    -0.001 A 
HETATM   30  C31   D T1504     -15.116   5.312   0.868  1.00 15.88    -0.000 A 
HETATM   31  C35   D T1504     -15.257   6.511   1.596  1.00 16.13    -0.000 A 
HETATM   32  C33   D T1504     -16.474   6.862   2.189  1.00 13.90    -0.000 A 
HETATM   33  C29   D T1504     -17.565   6.016   2.072  1.00 15.13    -0.001 A 
ENDBRANCH  27  28
BRANCH  27  34
HETATM   34  O34   D T1504     -19.230   3.533   2.418  1.00 17.91    -0.340 OA
HETATM   35  C36   D T1504     -20.127   2.408   2.329  1.00 15.51     0.175 C 
ENDBRANCH  27  34
ENDBRANCH   9  27
TORSDOF 6
ENDMDL
MODEL 7
REMARK VINA RESULT:    -7.380      3.213      5.569
REMARK INTER + INTRA:         -11.016
REMARK INTER:                 -10.775
REMARK INTRA:                  -0.241
REMARK UNBOUND:                -1.048
REMARK  6 active torsions:
REMARK  status: ('A' for Active; 'I' for Inactive)
REMARK       I    between atoms: N1_1  and  C25_25 
REMARK    1  A    between atoms: C3_3  and  N5_5 
REMARK       I    between atoms: N5_5  and  C6_6 
REMARK    2  A    between atoms: C6_6  and  C7_7 
REMARK    3  A    between atoms: N17_17  and  C24_24 
REMARK    4  A    between atoms: C25_25  and  C20_32 
REMARK    5  A    between atoms: C27_27  and  C20_32 
REMARK    6  A    between atoms: C20_32  and  O34_35 
ROOT
HETATM    1  N1    D T1504     -12.477   4.427  -3.971  1.00 17.57    -0.308 N 
HETATM    2  N2    D T1504      -9.478   3.671  -5.856  1.00 15.62    -0.149 NA
HETATM    3  C3    D T1504     -11.136   2.518  -6.809  1.00 16.85     0.186 A 
HETATM    4  N4    D T1504      -9.808   2.726  -6.866  1.00 16.47    -0.129 NA
HETATM    5  C13   D T1504     -10.628   4.001  -5.233  1.00 16.13     0.104 A 
HETATM    6  C14   D T1504     -11.714   3.271  -5.807  1.00 16.03     0.055 A 
HETATM    7  C15   D T1504     -12.995   3.589  -5.100  1.00 17.80     0.136 C 
HETATM    8  C16   D T1504     -11.068   4.858  -4.097  1.00 15.77     0.152 C 
HETATM    9  C25   D T1504     -13.192   4.797  -2.898  1.00 17.72     0.266 C 
HETATM   10  O26   D T1504     -12.715   5.488  -1.999  1.00 20.29    -0.269 OA
ENDROOT
BRANCH   3  11
HETATM   11  N5    D T1504     -11.718   1.621  -7.679  1.00 18.99    -0.187 NA
HETATM   12  C6    D T1504     -12.588   0.677  -7.358  1.00 22.32     0.281 C 
HETATM   13  O8    D T1504     -13.018   0.491  -6.235  1.00 19.91    -0.265 OA
BRANCH  12  14
HETATM   14  C7    D T1504     -13.079  -0.196  -8.448  1.00 23.69     0.058 A 
HETATM   15  C9    D T1504     -14.450  -0.367  -8.556  1.00 24.20     0.006 A 
HETATM   16  C10   D T1504     -14.990  -1.155  -9.552  1.00 24.36     0.017 A 
HETATM   17  C24   D T1504     -14.132  -1.778 -10.431  1.00 26.38     0.060 A 
HETATM   18  C11   D T1504     -12.740  -1.610 -10.317  1.00 25.51     0.017 A 
HETATM   19  C12   D T1504     -12.199  -0.812  -9.325  1.00 23.62     0.006 A 
BRANCH  17  20
HETATM   20  N17   D T1504     -14.678  -2.578 -11.449  1.00 29.22    -0.324 N 
HETATM   21  C18   D T1504     -15.925  -2.839 -11.513  1.00 32.43     0.088 C 
HETATM   22  C19   D T1504     -16.280  -4.113 -11.736  1.00 34.59     0.066 C 
HETATM   23  N20   D T1504     -15.367  -5.055 -12.331  1.00 35.81    -0.247 NA
HETATM   24  C21   D T1504     -13.939  -4.644 -12.227  1.00 34.06     0.101 C 
HETATM   25  C23   D T1504     -15.502  -6.389 -11.715  1.00 33.95     0.094 C 
HETATM   26  C22   D T1504     -13.778  -3.143 -12.459  1.00 31.87     0.124 C 
ENDBRANCH  17  20
ENDBRANCH  12  14
ENDBRANCH   3  11
BRANCH   9  27
HETATM   27  C20   D T1504     -14.614   4.339  -2.786  1.00 16.01     0.216 C 
BRANCH  27  28
HETATM   28  C27   D T1504     -15.104   4.702  -1.421  1.00 17.19     0.014 A 
HETATM   29  C28   D T1504     -14.971   3.775  -0.361  1.00 16.33    -0.001 A 
HETATM   30  C31   D T1504     -15.397   4.115   0.923  1.00 15.88    -0.000 A 
HETATM   31  C35   D T1504     -15.969   5.385   1.137  1.00 16.13    -0.000 A 
HETATM   32  C33   D T1504     -16.110   6.304   0.093  1.00 13.90    -0.000 A 
HETATM   33  C29   D T1504     -15.690   5.964  -1.183  1.00 15.13    -0.001 A 
ENDBRANCH  27  28
BRANCH  27  34
HETATM   34  O34   D T1504     -15.369   4.945  -3.837  1.00 17.91    -0.340 OA
HETATM   35  C36   D T1504     -16.495   4.165  -4.287  1.00 15.51     0.175 C 
ENDBRANCH  27  34
ENDBRANCH   9  27
TORSDOF 6
ENDMDL
MODEL 8
REMARK VINA RESULT:    -7.011      9.086     14.025
REMARK INTER + INTRA:         -10.518
REMARK INTER:                  -9.509
REMARK INTRA:                  -1.009
REMARK UNBOUND:                -1.048
REMARK  6 active torsions:
REMARK  status: ('A' for Active; 'I' for Inactive)
REMARK       I    between atoms: N1_1  and  C25_25 
REMARK    1  A    between atoms: C3_3  and  N5_5 
REMARK       I    between atoms: N5_5  and  C6_6 
REMARK    2  A    between atoms: C6_6  and  C7_7 
REMARK    3  A    between atoms: N17_17  and  C24_24 
REMARK    4  A    between atoms: C25_25  and  C20_32 
REMARK    5  A    between atoms: C27_27  and  C20_32 
REMARK    6  A    between atoms: C20_32  and  O34_35 
ROOT
HETATM    1  N1    D T1504     -13.553  -3.459 -11.877  1.00 17.57    -0.308 N 
HETATM    2  N2    D T1504     -12.728  -3.077 -15.383  1.00 15.62    -0.149 NA
HETATM    3  C3    D T1504     -10.812  -3.506 -14.322  1.00 16.85     0.186 A 
HETATM    4  N4    D T1504     -11.321  -3.205 -15.531  1.00 16.47    -0.129 NA
HETATM    5  C13   D T1504     -13.013  -3.315 -14.086  1.00 16.13     0.104 A 
HETATM    6  C14   D T1504     -11.807  -3.581 -13.369  1.00 16.03     0.055 A 
HETATM    7  C15   D T1504     -12.095  -3.804 -11.917  1.00 17.80     0.136 C 
HETATM    8  C16   D T1504     -14.208  -3.323 -13.196  1.00 15.77     0.152 C 
HETATM    9  C25   D T1504     -14.269  -3.278 -10.757  1.00 17.72     0.266 C 
HETATM   10  O26   D T1504     -15.467  -2.996 -10.783  1.00 20.29    -0.269 OA
ENDROOT
BRANCH   3  11
HETATM   11  N5    D T1504      -9.449  -3.668 -14.183  1.00 18.99    -0.187 NA
HETATM   12  C6    D T1504      -8.710  -4.592 -14.773  1.00 22.32     0.281 C 
HETATM   13  O8    D T1504      -9.139  -5.420 -15.554  1.00 19.91    -0.265 OA
BRANCH  12  14
HETATM   14  C7    D T1504      -7.261  -4.601 -14.471  1.00 23.69     0.058 A 
HETATM   15  C9    D T1504      -6.858  -4.036 -13.271  1.00 24.20     0.006 A 
HETATM   16  C10   D T1504      -5.527  -4.015 -12.909  1.00 24.36     0.017 A 
HETATM   17  C24   D T1504      -4.604  -4.561 -13.774  1.00 26.38     0.060 A 
HETATM   18  C11   D T1504      -5.013  -5.128 -14.996  1.00 25.51     0.017 A 
HETATM   19  C12   D T1504      -6.349  -5.158 -15.354  1.00 23.62     0.006 A 
BRANCH  17  20
HETATM   20  N17   D T1504      -3.248  -4.545 -13.407  1.00 29.22    -0.324 N 
HETATM   21  C18   D T1504      -2.835  -5.041 -12.308  1.00 32.43     0.088 C 
HETATM   22  C19   D T1504      -1.979  -4.308 -11.581  1.00 34.59     0.066 C 
HETATM   23  N20   D T1504      -1.195  -3.256 -12.178  1.00 35.81    -0.247 NA
HETATM   24  C21   D T1504      -1.747  -2.767 -13.472  1.00 34.06     0.101 C 
HETATM   25  C23   D T1504      -1.075  -2.101 -11.269  1.00 33.95     0.094 C 
HETATM   26  C22   D T1504      -2.281  -3.922 -14.317  1.00 31.87     0.124 C 
ENDBRANCH  17  20
ENDBRANCH  12  14
ENDBRANCH   3  11
BRANCH   9  27
HETATM   27  C20   D T1504     -13.582  -3.409  -9.432  1.00 16.01     0.216 C 
BRANCH  27  28
HETATM   28  C27   D T1504     -13.351  -2.031  -8.900  1.00 17.19     0.014 A 
HETATM   29  C28   D T1504     -14.197  -1.522  -7.887  1.00 16.33    -0.001 A 
HETATM   30  C31   D T1504     -13.971  -0.250  -7.361  1.00 15.88    -0.000 A 
HETATM   31  C35   D T1504     -12.902   0.516  -7.866  1.00 16.13    -0.000 A 
HETATM   32  C33   D T1504     -12.065   0.022  -8.872  1.00 13.90    -0.000 A 
HETATM   33  C29   D T1504     -12.292  -1.240  -9.396  1.00 15.13    -0.001 A 
ENDBRANCH  27  28
BRANCH  27  34
HETATM   34  O34   D T1504     -14.395  -4.216  -8.578  1.00 17.91    -0.340 OA
HETATM   35  C36   D T1504     -14.380  -5.622  -8.896  1.00 15.51     0.175 C 
ENDBRANCH  27  34
ENDBRANCH   9  27
TORSDOF 6
ENDMDL
MODEL 9
REMARK VINA RESULT:    -6.858      4.414      7.892
REMARK INTER + INTRA:         -10.311
REMARK INTER:                  -9.355
REMARK INTRA:                  -0.956
REMARK UNBOUND:                -1.048
REMARK  6 active torsions:
REMARK  status: ('A' for Active; 'I' for Inactive)
REMARK       I    between atoms: N1_1  and  C25_25 
REMARK    1  A    between atoms: C3_3  and  N5_5 
REMARK       I    between atoms: N5_5  and  C6_6 
REMARK    2  A    between atoms: C6_6  and  C7_7 
REMARK    3  A    between atoms: N17_17  and  C24_24 
REMARK    4  A    between atoms: C25_25  and  C20_32 
REMARK    5  A    between atoms: C27_27  and  C20_32 
REMARK    6  A    between atoms: C20_32  and  O34_35 
ROOT
HETATM    1  N1    D T1504     -13.727   2.581  -5.996  1.00 17.57    -0.308 N 
HETATM    2  N2    D T1504     -11.805   0.596  -8.338  1.00 15.62    -0.149 NA
HETATM    3  C3    D T1504     -13.600  -0.618  -7.799  1.00 16.85     0.186 A 
HETATM    4  N4    D T1504     -12.457  -0.656  -8.508  1.00 16.47    -0.129 NA
HETATM    5  C13   D T1504     -12.589   1.344  -7.536  1.00 16.13     0.104 A 
HETATM    6  C14   D T1504     -13.746   0.595  -7.157  1.00 16.03     0.055 A 
HETATM    7  C15   D T1504     -14.609   1.391  -6.228  1.00 17.80     0.136 C 
HETATM    8  C16   D T1504     -12.562   2.692  -6.900  1.00 15.77     0.152 C 
HETATM    9  C25   D T1504     -13.928   3.514  -5.053  1.00 17.72     0.266 C 
HETATM   10  O26   D T1504     -13.170   4.472  -4.907  1.00 20.29    -0.269 OA
ENDROOT
BRANCH   3  11
HETATM   11  N5    D T1504     -14.420  -1.726  -7.778  1.00 18.99    -0.187 NA
HETATM   12  C6    D T1504     -14.487  -2.628  -6.813  1.00 22.32     0.281 C 
HETATM   13  O8    D T1504     -13.840  -2.582  -5.783  1.00 19.91    -0.265 OA
BRANCH  12  14
HETATM   14  C7    D T1504     -15.427  -3.755  -6.997  1.00 23.69     0.058 A 
HETATM   15  C9    D T1504     -16.485  -3.854  -6.106  1.00 24.20     0.006 A 
HETATM   16  C10   D T1504     -17.412  -4.869  -6.217  1.00 24.36     0.017 A 
HETATM   17  C24   D T1504     -17.257  -5.791  -7.229  1.00 26.38     0.060 A 
HETATM   18  C11   D T1504     -16.179  -5.694  -8.129  1.00 25.51     0.017 A 
HETATM   19  C12   D T1504     -15.255  -4.671  -8.024  1.00 23.62     0.006 A 
BRANCH  17  20
HETATM   20  N17   D T1504     -18.202  -6.824  -7.347  1.00 29.22    -0.324 N 
HETATM   21  C18   D T1504     -19.368  -6.628  -7.823  1.00 32.43     0.088 C 
HETATM   22  C19   D T1504     -20.407  -7.148  -7.153  1.00 34.59     0.066 C 
HETATM   23  N20   D T1504     -20.234  -8.244  -6.233  1.00 35.81    -0.247 NA
HETATM   24  C21   D T1504     -18.832  -8.405  -5.758  1.00 34.06     0.101 C 
HETATM   25  C23   D T1504     -21.100  -8.085  -5.049  1.00 33.95     0.094 C 
HETATM   26  C22   D T1504     -17.835  -8.168  -6.890  1.00 31.87     0.124 C 
ENDBRANCH  17  20
ENDBRANCH  12  14
ENDBRANCH   3  11
BRANCH   9  27
HETATM   27  C20   D T1504     -15.108   3.375  -4.141  1.00 16.01     0.216 C 
BRANCH  27  28
HETATM   28  C27   D T1504     -14.739   3.977  -2.823  1.00 17.19     0.014 A 
HETATM   29  C28   D T1504     -13.922   3.249  -1.927  1.00 16.33    -0.001 A 
HETATM   30  C31   D T1504     -13.546   3.812  -0.708  1.00 15.88    -0.000 A 
HETATM   31  C35   D T1504     -14.005   5.105  -0.385  1.00 16.13    -0.000 A 
HETATM   32  C33   D T1504     -14.819   5.828  -1.263  1.00 13.90    -0.000 A 
HETATM   33  C29   D T1504     -15.194   5.266  -2.472  1.00 15.13    -0.001 A 
ENDBRANCH  27  28
BRANCH  27  34
HETATM   34  O34   D T1504     -16.234   4.007  -4.756  1.00 17.91    -0.340 OA
HETATM   35  C36   D T1504     -17.462   3.258  -4.661  1.00 15.51     0.175 C 
ENDBRANCH  27  34
ENDBRANCH   9  27
TORSDOF 6
ENDMDL
