MODEL 1
REMARK VINA RESULT:    -7.551      0.000      0.000
REMARK INTER + INTRA:         -10.519
REMARK INTER:                 -10.200
REMARK INTRA:                  -0.319
REMARK UNBOUND:                -0.319
REMARK  6 active torsions:
REMARK  status: ('A' for Active; 'I' for Inactive)
REMARK       I    between atoms: N1_1  and  C25_25 
REMARK    1  A    between atoms: C3_3  and  N5_5 
REMARK       I    between atoms: N5_5  and  C6_6 
REMARK    2  A    between atoms: C6_6  and  C7_7 
REMARK    3  A    between atoms: N17_17  and  C24_24 
REMARK    4  A    between atoms: C25_25  and  C20_32 
REMARK    5  A    between atoms: C27_27  and  C20_32 
REMARK    6  A    between atoms: C20_32  and  O34_35 
ROOT
HETATM    1  N1    D T1504       9.052  -1.704  -2.060  1.00 17.57    -0.308 N 
HETATM    2  N2    D T1504      10.180  -3.740   0.714  1.00 15.62    -0.149 NA
HETATM    3  C3    D T1504      11.971  -2.634  -0.031  1.00 16.85     0.186 A 
HETATM    4  N4    D T1504      11.582  -3.562   0.862  1.00 16.47    -0.129 NA
HETATM    5  C13   D T1504       9.776  -2.903  -0.262  1.00 16.13     0.104 A 
HETATM    6  C14   D T1504      10.899  -2.184  -0.777  1.00 16.03     0.055 A 
HETATM    7  C15   D T1504      10.481  -1.279  -1.894  1.00 17.80     0.136 C 
HETATM    8  C16   D T1504       8.517  -2.562  -0.982  1.00 15.77     0.152 C 
HETATM    9  C25   D T1504       8.263  -1.357  -3.089  1.00 17.72     0.266 C 
HETATM   10  O26   D T1504       7.095  -1.734  -3.174  1.00 20.29    -0.269 OA
ENDROOT
BRANCH   3  11
HETATM   11  N5    D T1504      13.302  -2.286  -0.110  1.00 18.99    -0.187 NA
HETATM   12  C6    D T1504      13.863  -1.224   0.443  1.00 22.32     0.281 C 
HETATM   13  O8    D T1504      13.272  -0.414   1.132  1.00 19.91    -0.265 OA
BRANCH  12  14
HETATM   14  C7    D T1504      15.313  -1.024   0.219  1.00 23.69     0.058 A 
HETATM   15  C9    D T1504      15.718   0.215  -0.255  1.00 24.20     0.006 A 
HETATM   16  C10   D T1504      17.052   0.485  -0.478  1.00 24.36     0.017 A 
HETATM   17  C24   D T1504      17.973  -0.507  -0.229  1.00 26.38     0.060 A 
HETATM   18  C11   D T1504      17.561  -1.767   0.246  1.00 25.51     0.017 A 
HETATM   19  C12   D T1504      16.225  -2.036   0.479  1.00 23.62     0.006 A 
BRANCH  17  20
HETATM   20  N17   D T1504      19.333  -0.234  -0.452  1.00 29.22    -0.324 N 
HETATM   21  C18   D T1504      20.051  -0.944  -1.230  1.00 32.43     0.088 C 
HETATM   22  C19   D T1504      21.258  -1.323  -0.788  1.00 34.59     0.066 C 
HETATM   23  N20   D T1504      21.925  -0.615   0.275  1.00 35.81    -0.247 NA
HETATM   24  C21   D T1504      21.003   0.205   1.110  1.00 34.06     0.101 C 
HETATM   25  C23   D T1504      22.638  -1.547   1.170  1.00 33.95     0.094 C 
HETATM   26  C22   D T1504      19.948   0.898   0.249  1.00 31.87     0.124 C 
ENDBRANCH  17  20
ENDBRANCH  12  14
ENDBRANCH   3  11
BRANCH   9  27
HETATM   27  C20   D T1504       8.831  -0.496  -4.175  1.00 16.01     0.216 C 
BRANCH  27  28
HETATM   28  C27   D T1504       8.168  -0.886  -5.459  1.00 17.19     0.014 A 
HETATM   29  C28   D T1504       7.917   0.099  -6.443  1.00 16.33    -0.001 A 
HETATM   30  C31   D T1504       7.327  -0.258  -7.655  1.00 15.88    -0.000 A 
HETATM   31  C35   D T1504       6.978  -1.607  -7.872  1.00 16.13    -0.000 A 
HETATM   32  C33   D T1504       7.216  -2.584  -6.900  1.00 13.90    -0.000 A 
HETATM   33  C29   D T1504       7.799  -2.226  -5.695  1.00 15.13    -0.001 A 
ENDBRANCH  27  28
BRANCH  27  34
HETATM   34  O34   D T1504       8.623   0.873  -3.824  1.00 17.91    -0.340 OA
HETATM   35  C36   D T1504       9.795   1.704  -3.945  1.00 15.51     0.175 C 
ENDBRANCH  27  34
ENDBRANCH   9  27
TORSDOF 6
ENDMDL
MODEL 2
REMARK VINA RESULT:    -7.416      1.425      2.047
REMARK INTER + INTRA:         -10.337
REMARK INTER:                  -9.747
REMARK INTRA:                  -0.589
REMARK UNBOUND:                -0.319
REMARK  6 active torsions:
REMARK  status: ('A' for Active; 'I' for Inactive)
REMARK       I    between atoms: N1_1  and  C25_25 
REMARK    1  A    between atoms: C3_3  and  N5_5 
REMARK       I    between atoms: N5_5  and  C6_6 
REMARK    2  A    between atoms: C6_6  and  C7_7 
REMARK    3  A    between atoms: N17_17  and  C24_24 
REMARK    4  A    between atoms: C25_25  and  C20_32 
REMARK    5  A    between atoms: C27_27  and  C20_32 
REMARK    6  A    between atoms: C20_32  and  O34_35 
ROOT
HETATM    1  N1    D T1504       9.442  -1.639  -1.824  1.00 17.57    -0.308 N 
HETATM    2  N2    D T1504      10.303  -3.560   1.123  1.00 15.62    -0.149 NA
HETATM    3  C3    D T1504      12.231  -2.926   0.193  1.00 16.85     0.186 A 
HETATM    4  N4    D T1504      11.719  -3.657   1.199  1.00 16.47    -0.129 NA
HETATM    5  C13   D T1504      10.017  -2.766   0.073  1.00 16.13     0.104 A 
HETATM    6  C14   D T1504      11.228  -2.348  -0.561  1.00 16.03     0.055 A 
HETATM    7  C15   D T1504      10.933  -1.499  -1.758  1.00 17.80     0.136 C 
HETATM    8  C16   D T1504       8.810  -2.253  -0.637  1.00 15.77     0.152 C 
HETATM    9  C25   D T1504       8.679  -1.249  -2.856  1.00 17.72     0.266 C 
HETATM   10  O26   D T1504       7.457  -1.388  -2.857  1.00 20.29    -0.269 OA
ENDROOT
BRANCH   3  11
HETATM   11  N5    D T1504      13.598  -2.865   0.027  1.00 18.99    -0.187 NA
HETATM   12  C6    D T1504      14.363  -1.809   0.246  1.00 22.32     0.281 C 
HETATM   13  O8    D T1504      13.956  -0.738   0.657  1.00 19.91    -0.265 OA
BRANCH  12  14
HETATM   14  C7    D T1504      15.814  -1.952  -0.013  1.00 23.69     0.058 A 
HETATM   15  C9    D T1504      16.482  -2.966   0.657  1.00 24.20     0.006 A 
HETATM   16  C10   D T1504      17.831  -3.175   0.461  1.00 24.36     0.017 A 
HETATM   17  C24   D T1504      18.503  -2.347  -0.410  1.00 26.38     0.060 A 
HETATM   18  C11   D T1504      17.825  -1.314  -1.086  1.00 25.51     0.017 A 
HETATM   19  C12   D T1504      16.470  -1.110  -0.897  1.00 23.62     0.006 A 
BRANCH  17  20
HETATM   20  N17   D T1504      19.876  -2.559  -0.615  1.00 29.22    -0.324 N 
HETATM   21  C18   D T1504      20.639  -1.657  -1.095  1.00 32.43     0.088 C 
HETATM   22  C19   D T1504      21.487  -2.016  -2.069  1.00 34.59     0.066 C 
HETATM   23  N20   D T1504      21.874  -3.390  -2.259  1.00 35.81    -0.247 NA
HETATM   24  C21   D T1504      20.932  -4.363  -1.639  1.00 34.06     0.101 C 
HETATM   25  C23   D T1504      21.985  -3.719  -3.694  1.00 33.95     0.094 C 
HETATM   26  C22   D T1504      20.445  -3.868  -0.278  1.00 31.87     0.124 C 
ENDBRANCH  17  20
ENDBRANCH  12  14
ENDBRANCH   3  11
BRANCH   9  27
HETATM   27  C20   D T1504       9.342  -0.641  -4.053  1.00 16.01     0.216 C 
BRANCH  27  28
HETATM   28  C27   D T1504       8.519  -0.985  -5.255  1.00 17.19     0.014 A 
HETATM   29  C28   D T1504       8.144   0.034  -6.161  1.00 16.33    -0.001 A 
HETATM   30  C31   D T1504       7.404  -0.280  -7.300  1.00 15.88    -0.000 A 
HETATM   31  C35   D T1504       7.029  -1.622  -7.520  1.00 16.13    -0.000 A 
HETATM   32  C33   D T1504       7.390  -2.633  -6.625  1.00 13.90    -0.000 A 
HETATM   33  C29   D T1504       8.123  -2.318  -5.492  1.00 15.13    -0.001 A 
ENDBRANCH  27  28
BRANCH  27  34
HETATM   34  O34   D T1504       9.466   0.767  -3.837  1.00 17.91    -0.340 OA
HETATM   35  C36   D T1504      10.745   1.316  -4.207  1.00 15.51     0.175 C 
ENDBRANCH  27  34
ENDBRANCH   9  27
TORSDOF 6
ENDMDL
MODEL 3
REMARK VINA RESULT:    -7.288      3.242     10.583
REMARK INTER + INTRA:         -10.163
REMARK INTER:                  -8.966
REMARK INTRA:                  -1.197
REMARK UNBOUND:                -0.319
REMARK  6 active torsions:
REMARK  status: ('A' for Active; 'I' for Inactive)
REMARK       I    between atoms: N1_1  and  C25_25 
REMARK    1  A    between atoms: C3_3  and  N5_5 
REMARK       I    between atoms: N5_5  and  C6_6 
REMARK    2  A    between atoms: C6_6  and  C7_7 
REMARK    3  A    between atoms: N17_17  and  C24_24 
REMARK    4  A    between atoms: C25_25  and  C20_32 
REMARK    5  A    between atoms: C27_27  and  C20_32 
REMARK    6  A    between atoms: C20_32  and  O34_35 
ROOT
HETATM    1  N1    D T1504      12.529  -3.378   1.061  1.00 17.57    -0.308 N 
HETATM    2  N2    D T1504       9.306  -4.879   0.376  1.00 15.62    -0.149 NA
HETATM    3  C3    D T1504       9.678  -3.404  -1.257  1.00 16.85     0.186 A 
HETATM    4  N4    D T1504       8.760  -4.265  -0.783  1.00 16.47    -0.129 NA
HETATM    5  C13   D T1504      10.540  -4.368   0.552  1.00 16.13     0.104 A 
HETATM    6  C14   D T1504      10.812  -3.405  -0.469  1.00 16.03     0.055 A 
HETATM    7  C15   D T1504      12.162  -2.790  -0.269  1.00 17.80     0.136 C 
HETATM    8  C16   D T1504      11.660  -4.479   1.528  1.00 15.77     0.152 C 
HETATM    9  C25   D T1504      13.562  -2.979   1.818  1.00 17.72     0.266 C 
HETATM   10  O26   D T1504      13.818  -3.498   2.903  1.00 20.29    -0.269 OA
ENDROOT
BRANCH   3  11
HETATM   11  N5    D T1504       9.390  -2.656  -2.378  1.00 18.99    -0.187 NA
HETATM   12  C6    D T1504       9.160  -1.354  -2.408  1.00 22.32     0.281 C 
HETATM   13  O8    D T1504       9.201  -0.626  -1.434  1.00 19.91    -0.265 OA
BRANCH  12  14
HETATM   14  C7    D T1504       8.849  -0.747  -3.722  1.00 23.69     0.058 A 
HETATM   15  C9    D T1504       9.258   0.562  -3.930  1.00 24.20     0.006 A 
HETATM   16  C10   D T1504       9.019   1.196  -5.131  1.00 24.36     0.017 A 
HETATM   17  C24   D T1504       8.356   0.502  -6.118  1.00 26.38     0.060 A 
HETATM   18  C11   D T1504       7.935  -0.825  -5.904  1.00 25.51     0.017 A 
HETATM   19  C12   D T1504       8.183  -1.465  -4.703  1.00 23.62     0.006 A 
BRANCH  17  20
HETATM   20  N17   D T1504       8.113   1.143  -7.344  1.00 29.22    -0.324 N 
HETATM   21  C18   D T1504       8.487   2.341  -7.571  1.00 32.43     0.088 C 
HETATM   22  C19   D T1504       7.599   3.172  -8.135  1.00 34.59     0.066 C 
HETATM   23  N20   D T1504       6.468   2.672  -8.876  1.00 35.81    -0.247 NA
HETATM   24  C21   D T1504       6.130   1.257  -8.558  1.00 34.06     0.101 C 
HETATM   25  C23   D T1504       5.266   3.492  -8.629  1.00 33.95     0.094 C 
HETATM   26  C22   D T1504       7.391   0.411  -8.391  1.00 31.87     0.124 C 
ENDBRANCH  17  20
ENDBRANCH  12  14
ENDBRANCH   3  11
BRANCH   9  27
HETATM   27  C20   D T1504      14.421  -1.853   1.331  1.00 16.01     0.216 C 
BRANCH  27  28
HETATM   28  C27   D T1504      14.415  -0.787   2.381  1.00 17.19     0.014 A 
HETATM   29  C28   D T1504      15.568  -0.581   3.174  1.00 16.33    -0.001 A 
HETATM   30  C31   D T1504      15.585   0.430   4.135  1.00 15.88    -0.000 A 
HETATM   31  C35   D T1504      14.434   1.225   4.307  1.00 16.13    -0.000 A 
HETATM   32  C33   D T1504      13.288   1.023   3.531  1.00 13.90    -0.000 A 
HETATM   33  C29   D T1504      13.273   0.016   2.580  1.00 15.13    -0.001 A 
ENDBRANCH  27  28
BRANCH  27  34
HETATM   34  O34   D T1504      15.726  -2.365   1.051  1.00 17.91    -0.340 OA
HETATM   35  C36   D T1504      16.286  -1.919  -0.199  1.00 15.51     0.175 C 
ENDBRANCH  27  34
ENDBRANCH   9  27
TORSDOF 6
ENDMDL
MODEL 4
REMARK VINA RESULT:    -7.182      1.805      2.827
REMARK INTER + INTRA:         -10.020
REMARK INTER:                  -9.961
REMARK INTRA:                  -0.059
REMARK UNBOUND:                -0.319
REMARK  6 active torsions:
REMARK  status: ('A' for Active; 'I' for Inactive)
REMARK       I    between atoms: N1_1  and  C25_25 
REMARK    1  A    between atoms: C3_3  and  N5_5 
REMARK       I    between atoms: N5_5  and  C6_6 
REMARK    2  A    between atoms: C6_6  and  C7_7 
REMARK    3  A    between atoms: N17_17  and  C24_24 
REMARK    4  A    between atoms: C25_25  and  C20_32 
REMARK    5  A    between atoms: C27_27  and  C20_32 
REMARK    6  A    between atoms: C20_32  and  O34_35 
ROOT
HETATM    1  N1    D T1504       9.418  -2.291  -2.231  1.00 17.57    -0.308 N 
HETATM    2  N2    D T1504      10.259  -2.950   1.228  1.00 15.62    -0.149 NA
HETATM    3  C3    D T1504      12.192  -2.667   0.148  1.00 16.85     0.186 A 
HETATM    4  N4    D T1504      11.675  -2.979   1.350  1.00 16.47    -0.129 NA
HETATM    5  C13   D T1504       9.978  -2.613  -0.046  1.00 16.13     0.104 A 
HETATM    6  C14   D T1504      11.194  -2.435  -0.777  1.00 16.03     0.055 A 
HETATM    7  C15   D T1504      10.905  -2.103  -2.208  1.00 17.80     0.136 C 
HETATM    8  C16   D T1504       8.776  -2.431  -0.908  1.00 15.77     0.152 C 
HETATM    9  C25   D T1504       8.667  -2.334  -3.343  1.00 17.72     0.266 C 
HETATM   10  O26   D T1504       7.447  -2.490  -3.304  1.00 20.29    -0.269 OA
ENDROOT
BRANCH   3  11
HETATM   11  N5    D T1504      13.560  -2.642  -0.014  1.00 18.99    -0.187 NA
HETATM   12  C6    D T1504      14.343  -1.584   0.129  1.00 22.32     0.281 C 
HETATM   13  O8    D T1504      13.953  -0.480   0.457  1.00 19.91    -0.265 OA
BRANCH  12  14
HETATM   14  C7    D T1504      15.792  -1.772  -0.111  1.00 23.69     0.058 A 
HETATM   15  C9    D T1504      16.478  -2.604   0.761  1.00 24.20     0.006 A 
HETATM   16  C10   D T1504      17.827  -2.841   0.598  1.00 24.36     0.017 A 
HETATM   17  C24   D T1504      18.480  -2.224  -0.445  1.00 26.38     0.060 A 
HETATM   18  C11   D T1504      17.784  -1.374  -1.326  1.00 25.51     0.017 A 
HETATM   19  C12   D T1504      16.430  -1.143  -1.170  1.00 23.62     0.006 A 
BRANCH  17  20
HETATM   20  N17   D T1504      19.854  -2.466  -0.616  1.00 29.22    -0.324 N 
HETATM   21  C18   D T1504      20.648  -1.580  -1.073  1.00 32.43     0.088 C 
HETATM   22  C19   D T1504      21.512  -1.955  -2.027  1.00 34.59     0.066 C 
HETATM   23  N20   D T1504      21.874  -3.337  -2.212  1.00 35.81    -0.247 NA
HETATM   24  C21   D T1504      20.895  -4.290  -1.619  1.00 34.06     0.101 C 
HETATM   25  C23   D T1504      22.014  -3.664  -3.644  1.00 33.95     0.094 C 
HETATM   26  C22   D T1504      20.384  -3.789  -0.269  1.00 31.87     0.124 C 
ENDBRANCH  17  20
ENDBRANCH  12  14
ENDBRANCH   3  11
BRANCH   9  27
HETATM   27  C20   D T1504       9.341  -2.202  -4.674  1.00 16.01     0.216 C 
BRANCH  27  28
HETATM   28  C27   D T1504       9.456  -0.743  -4.985  1.00 17.19     0.014 A 
HETATM   29  C28   D T1504      10.725  -0.119  -4.952  1.00 16.33    -0.001 A 
HETATM   30  C31   D T1504      10.848   1.233  -5.270  1.00 15.88    -0.000 A 
HETATM   31  C35   D T1504       9.689   1.962  -5.608  1.00 16.13    -0.000 A 
HETATM   32  C33   D T1504       8.430   1.353  -5.635  1.00 13.90    -0.000 A 
HETATM   33  C29   D T1504       8.310   0.011  -5.315  1.00 15.13    -0.001 A 
ENDBRANCH  27  28
BRANCH  27  34
HETATM   34  O34   D T1504      10.603  -2.869  -4.612  1.00 17.91    -0.340 OA
HETATM   35  C36   D T1504      10.648  -4.128  -5.312  1.00 15.51     0.175 C 
ENDBRANCH  27  34
ENDBRANCH   9  27
TORSDOF 6
ENDMDL
MODEL 5
REMARK VINA RESULT:    -7.092      6.440     10.756
REMARK INTER + INTRA:          -9.899
REMARK INTER:                  -8.721
REMARK INTRA:                  -1.178
REMARK UNBOUND:                -0.319
REMARK  6 active torsions:
REMARK  status: ('A' for Active; 'I' for Inactive)
REMARK       I    between atoms: N1_1  and  C25_25 
REMARK    1  A    between atoms: C3_3  and  N5_5 
REMARK       I    between atoms: N5_5  and  C6_6 
REMARK    2  A    between atoms: C6_6  and  C7_7 
REMARK    3  A    between atoms: N17_17  and  C24_24 
REMARK    4  A    between atoms: C25_25  and  C20_32 
REMARK    5  A    between atoms: C27_27  and  C20_32 
REMARK    6  A    between atoms: C20_32  and  O34_35 
ROOT
HETATM    1  N1    D T1504      10.182  -7.400   3.313  1.00 17.57    -0.308 N 
HETATM    2  N2    D T1504       8.336  -8.807   0.533  1.00 15.62    -0.149 NA
HETATM    3  C3    D T1504       8.758  -6.680   0.003  1.00 16.85     0.186 A 
HETATM    4  N4    D T1504       8.122  -7.784  -0.429  1.00 16.47    -0.129 NA
HETATM    5  C13   D T1504       9.102  -8.280   1.509  1.00 16.13     0.104 A 
HETATM    6  C14   D T1504       9.383  -6.910   1.213  1.00 16.03     0.055 A 
HETATM    7  C15   D T1504      10.197  -6.289   2.306  1.00 17.80     0.136 C 
HETATM    8  C16   D T1504       9.682  -8.699   2.816  1.00 15.77     0.152 C 
HETATM    9  C25   D T1504      10.587  -7.286   4.587  1.00 17.72     0.266 C 
HETATM   10  O26   D T1504      10.554  -8.233   5.372  1.00 20.29    -0.269 OA
ENDROOT
BRANCH   3  11
HETATM   11  N5    D T1504       8.693  -5.525  -0.745  1.00 18.99    -0.187 NA
HETATM   12  C6    D T1504       9.457  -5.224  -1.782  1.00 22.32     0.281 C 
HETATM   13  O8    D T1504      10.315  -5.955  -2.239  1.00 19.91    -0.265 OA
BRANCH  12  14
HETATM   14  C7    D T1504       9.233  -3.915  -2.437  1.00 23.69     0.058 A 
HETATM   15  C9    D T1504       8.054  -3.248  -2.137  1.00 24.20     0.006 A 
HETATM   16  C10   D T1504       7.776  -2.017  -2.694  1.00 24.36     0.017 A 
HETATM   17  C24   D T1504       8.693  -1.469  -3.564  1.00 26.38     0.060 A 
HETATM   18  C11   D T1504       9.886  -2.150  -3.873  1.00 25.51     0.017 A 
HETATM   19  C12   D T1504      10.170  -3.379  -3.307  1.00 23.62     0.006 A 
BRANCH  17  20
HETATM   20  N17   D T1504       8.414  -0.214  -4.131  1.00 29.22    -0.324 N 
HETATM   21  C18   D T1504       7.885  -0.092  -5.285  1.00 32.43     0.088 C 
HETATM   22  C19   D T1504       8.432   0.797  -6.127  1.00 34.59     0.066 C 
HETATM   23  N20   D T1504       9.249   1.882  -5.647  1.00 35.81    -0.247 NA
HETATM   24  C21   D T1504       9.797   1.652  -4.281  1.00 34.06     0.101 C 
HETATM   25  C23   D T1504      10.385   2.134  -6.554  1.00 33.95     0.094 C 
HETATM   26  C22   D T1504       8.760   0.993  -3.373  1.00 31.87     0.124 C 
ENDBRANCH  17  20
ENDBRANCH  12  14
ENDBRANCH   3  11
BRANCH   9  27
HETATM   27  C20   D T1504      11.079  -5.958   5.072  1.00 16.01     0.216 C 
BRANCH  27  28
HETATM   28  C27   D T1504      10.249  -5.568   6.254  1.00 17.19     0.014 A 
HETATM   29  C28   D T1504       8.879  -5.265   6.078  1.00 16.33    -0.001 A 
HETATM   30  C31   D T1504       8.089  -4.930   7.177  1.00 15.88    -0.000 A 
HETATM   31  C35   D T1504       8.684  -4.886   8.455  1.00 16.13    -0.000 A 
HETATM   32  C33   D T1504      10.040  -5.178   8.636  1.00 13.90    -0.000 A 
HETATM   33  C29   D T1504      10.823  -5.507   7.542  1.00 15.13    -0.001 A 
ENDBRANCH  27  28
BRANCH  27  34
HETATM   34  O34   D T1504      12.472  -6.071   5.370  1.00 17.91    -0.340 OA
HETATM   35  C36   D T1504      13.305  -5.100   4.705  1.00 15.51     0.175 C 
ENDBRANCH  27  34
ENDBRANCH   9  27
TORSDOF 6
ENDMDL
MODEL 6
REMARK VINA RESULT:    -7.090      3.004      5.913
REMARK INTER + INTRA:          -9.896
REMARK INTER:                  -8.655
REMARK INTRA:                  -1.241
REMARK UNBOUND:                -0.319
REMARK  6 active torsions:
REMARK  status: ('A' for Active; 'I' for Inactive)
REMARK       I    between atoms: N1_1  and  C25_25 
REMARK    1  A    between atoms: C3_3  and  N5_5 
REMARK       I    between atoms: N5_5  and  C6_6 
REMARK    2  A    between atoms: C6_6  and  C7_7 
REMARK    3  A    between atoms: N17_17  and  C24_24 
REMARK    4  A    between atoms: C25_25  and  C20_32 
REMARK    5  A    between atoms: C27_27  and  C20_32 
REMARK    6  A    between atoms: C20_32  and  O34_35 
ROOT
HETATM    1  N1    D T1504       9.401  -4.700  -0.974  1.00 17.57    -0.308 N 
HETATM    2  N2    D T1504       9.370  -1.522  -2.708  1.00 15.62    -0.149 NA
HETATM    3  C3    D T1504      11.466  -1.845  -2.013  1.00 16.85     0.186 A 
HETATM    4  N4    D T1504      10.670  -0.954  -2.631  1.00 16.47    -0.129 NA
HETATM    5  C13   D T1504       9.435  -2.740  -2.137  1.00 16.13     0.104 A 
HETATM    6  C14   D T1504      10.763  -2.981  -1.665  1.00 16.03     0.055 A 
HETATM    7  C15   D T1504      10.849  -4.313  -0.986  1.00 17.80     0.136 C 
HETATM    8  C16   D T1504       8.515  -3.867  -1.814  1.00 15.77     0.152 C 
HETATM    9  C25   D T1504       8.886  -5.724  -0.275  1.00 17.72     0.266 C 
HETATM   10  O26   D T1504       7.687  -5.999  -0.303  1.00 20.29    -0.269 OA
ENDROOT
BRANCH   3  11
HETATM   11  N5    D T1504      12.790  -1.531  -1.792  1.00 18.99    -0.187 NA
HETATM   12  C6    D T1504      13.328  -1.197  -0.631  1.00 22.32     0.281 C 
HETATM   13  O8    D T1504      12.719  -1.149   0.421  1.00 19.91    -0.265 OA
BRANCH  12  14
HETATM   14  C7    D T1504      14.774  -0.878  -0.616  1.00 23.69     0.058 A 
HETATM   15  C9    D T1504      15.657  -1.936  -0.455  1.00 24.20     0.006 A 
HETATM   16  C10   D T1504      17.019  -1.725  -0.444  1.00 24.36     0.017 A 
HETATM   17  C24   D T1504      17.485  -0.437  -0.588  1.00 26.38     0.060 A 
HETATM   18  C11   D T1504      16.588   0.637  -0.744  1.00 25.51     0.017 A 
HETATM   19  C12   D T1504      15.222   0.426  -0.766  1.00 23.62     0.006 A 
BRANCH  17  20
HETATM   20  N17   D T1504      18.873  -0.219  -0.580  1.00 29.22    -0.324 N 
HETATM   21  C18   D T1504      19.702  -1.101  -0.980  1.00 32.43     0.088 C 
HETATM   22  C19   D T1504      20.773  -1.340  -0.210  1.00 34.59     0.066 C 
HETATM   23  N20   D T1504      21.237  -0.373   0.753  1.00 35.81    -0.247 NA
HETATM   24  C21   D T1504      20.202   0.628   1.133  1.00 34.06     0.101 C 
HETATM   25  C23   D T1504      21.705  -1.033   1.987  1.00 33.95     0.094 C 
HETATM   26  C22   D T1504      19.381   1.063  -0.080  1.00 31.87     0.124 C 
ENDBRANCH  17  20
ENDBRANCH  12  14
ENDBRANCH   3  11
BRANCH   9  27
HETATM   27  C20   D T1504       9.801  -6.547   0.577  1.00 16.01     0.216 C 
BRANCH  27  28
HETATM   28  C27   D T1504       9.542  -6.185   2.006  1.00 17.19     0.014 A 
HETATM   29  C28   D T1504       9.207  -7.198   2.935  1.00 16.33    -0.001 A 
HETATM   30  C31   D T1504       8.993  -6.876   4.274  1.00 15.88    -0.000 A 
HETATM   31  C35   D T1504       9.104  -5.529   4.677  1.00 16.13    -0.000 A 
HETATM   32  C33   D T1504       9.429  -4.521   3.763  1.00 13.90    -0.000 A 
HETATM   33  C29   D T1504       9.637  -4.844   2.432  1.00 15.13    -0.001 A 
ENDBRANCH  27  28
BRANCH  27  34
HETATM   34  O34   D T1504       9.567  -7.928   0.293  1.00 17.91    -0.340 OA
HETATM   35  C36   D T1504      10.273  -8.427  -0.860  1.00 15.51     0.175 C 
ENDBRANCH  27  34
ENDBRANCH   9  27
TORSDOF 6
ENDMDL
MODEL 7
REMARK VINA RESULT:    -6.719      3.669      4.516
REMARK INTER + INTRA:          -9.395
REMARK INTER:                 -11.337
REMARK INTRA:                   1.943
REMARK UNBOUND:                -0.319
REMARK  6 active torsions:
REMARK  status: ('A' for Active; 'I' for Inactive)
REMARK       I    between atoms: N1_1  and  C25_25 
REMARK    1  A    between atoms: C3_3  and  N5_5 
REMARK       I    between atoms: N5_5  and  C6_6 
REMARK    2  A    between atoms: C6_6  and  C7_7 
REMARK    3  A    between atoms: N17_17  and  C24_24 
REMARK    4  A    between atoms: C25_25  and  C20_32 
REMARK    5  A    between atoms: C27_27  and  C20_32 
REMARK    6  A    between atoms: C20_32  and  O34_35 
ROOT
HETATM    1  N1    D T1504       8.647  -1.352  -3.986  1.00 17.57    -0.308 N 
HETATM    2  N2    D T1504       8.359  -4.112  -1.661  1.00 15.62    -0.149 NA
HETATM    3  C3    D T1504       9.671  -2.594  -0.683  1.00 16.85     0.186 A 
HETATM    4  N4    D T1504       9.160  -3.828  -0.522  1.00 16.47    -0.129 NA
HETATM    5  C13   D T1504       8.413  -3.031  -2.463  1.00 16.13     0.104 A 
HETATM    6  C14   D T1504       9.257  -2.038  -1.878  1.00 16.03     0.055 A 
HETATM    7  C15   D T1504       9.368  -0.844  -2.774  1.00 17.80     0.136 C 
HETATM    8  C16   D T1504       7.893  -2.609  -3.795  1.00 15.77     0.152 C 
HETATM    9  C25   D T1504       8.644  -0.751  -5.186  1.00 17.72     0.266 C 
HETATM   10  O26   D T1504       8.032  -1.213  -6.149  1.00 20.29    -0.269 OA
ENDROOT
BRANCH   3  11
HETATM   11  N5    D T1504      10.509  -2.076   0.280  1.00 18.99    -0.187 NA
HETATM   12  C6    D T1504      11.786  -1.768   0.119  1.00 22.32     0.281 C 
HETATM   13  O8    D T1504      12.392  -1.877  -0.930  1.00 19.91    -0.265 OA
BRANCH  12  14
HETATM   14  C7    D T1504      12.513  -1.240   1.296  1.00 23.69     0.058 A 
HETATM   15  C9    D T1504      11.752  -0.812   2.374  1.00 24.20     0.006 A 
HETATM   16  C10   D T1504      12.353  -0.319   3.513  1.00 24.36     0.017 A 
HETATM   17  C24   D T1504      13.728  -0.252   3.552  1.00 26.38     0.060 A 
HETATM   18  C11   D T1504      14.499  -0.681   2.455  1.00 25.51     0.017 A 
HETATM   19  C12   D T1504      13.898  -1.184   1.316  1.00 23.62     0.006 A 
BRANCH  17  20
HETATM   20  N17   D T1504      14.344   0.247   4.712  1.00 29.22    -0.324 N 
HETATM   21  C18   D T1504      14.863   1.411   4.760  1.00 32.43     0.088 C 
HETATM   22  C19   D T1504      16.082   1.525   5.305  1.00 34.59     0.066 C 
HETATM   23  N20   D T1504      16.599   0.524   6.204  1.00 35.81    -0.247 NA
HETATM   24  C21   D T1504      15.909  -0.791   6.088  1.00 34.06     0.101 C 
HETATM   25  C23   D T1504      18.040   0.301   5.979  1.00 33.95     0.094 C 
HETATM   26  C22   D T1504      14.403  -0.609   5.902  1.00 31.87     0.124 C 
ENDBRANCH  17  20
ENDBRANCH  12  14
ENDBRANCH   3  11
BRANCH   9  27
HETATM   27  C20   D T1504       9.424   0.515  -5.360  1.00 16.01     0.216 C 
BRANCH  27  28
HETATM   28  C27   D T1504       8.752   1.322  -6.426  1.00 17.19     0.014 A 
HETATM   29  C28   D T1504       9.300   2.568  -6.810  1.00 16.33    -0.001 A 
HETATM   30  C31   D T1504       8.700   3.315  -7.823  1.00 15.88    -0.000 A 
HETATM   31  C35   D T1504       7.537   2.812  -8.442  1.00 16.13    -0.000 A 
HETATM   32  C33   D T1504       6.985   1.584  -8.063  1.00 13.90    -0.000 A 
HETATM   33  C29   D T1504       7.581   0.846  -7.053  1.00 15.13    -0.001 A 
ENDBRANCH  27  28
BRANCH  27  34
HETATM   34  O34   D T1504       9.489   1.185  -4.100  1.00 17.91    -0.340 OA
HETATM   35  C36   D T1504      10.714   1.911  -3.873  1.00 15.51     0.175 C 
ENDBRANCH  27  34
ENDBRANCH   9  27
TORSDOF 6
ENDMDL
MODEL 8
REMARK VINA RESULT:    -6.679      5.013      5.851
REMARK INTER + INTRA:          -9.342
REMARK INTER:                  -9.458
REMARK INTRA:                   0.117
REMARK UNBOUND:                -0.319
REMARK  6 active torsions:
REMARK  status: ('A' for Active; 'I' for Inactive)
REMARK       I    between atoms: N1_1  and  C25_25 
REMARK    1  A    between atoms: C3_3  and  N5_5 
REMARK       I    between atoms: N5_5  and  C6_6 
REMARK    2  A    between atoms: C6_6  and  C7_7 
REMARK    3  A    between atoms: N17_17  and  C24_24 
REMARK    4  A    between atoms: C25_25  and  C20_32 
REMARK    5  A    between atoms: C27_27  and  C20_32 
REMARK    6  A    between atoms: C20_32  and  O34_35 
ROOT
HETATM    1  N1    D T1504       9.017  -2.403  -3.765  1.00 17.57    -0.308 N 
HETATM    2  N2    D T1504      10.005  -5.637  -2.469  1.00 15.62    -0.149 NA
HETATM    3  C3    D T1504      10.323  -4.168  -0.818  1.00 16.85     0.186 A 
HETATM    4  N4    D T1504      10.487  -5.463  -1.144  1.00 16.47    -0.129 NA
HETATM    5  C13   D T1504       9.561  -4.436  -2.890  1.00 16.13     0.104 A 
HETATM    6  C14   D T1504       9.760  -3.462  -1.863  1.00 16.03     0.055 A 
HETATM    7  C15   D T1504       9.314  -2.110  -2.324  1.00 17.80     0.136 C 
HETATM    8  C16   D T1504       8.981  -3.836  -4.125  1.00 15.77     0.152 C 
HETATM    9  C25   D T1504       8.787  -1.475  -4.706  1.00 17.72     0.266 C 
HETATM   10  O26   D T1504       8.547  -1.773  -5.875  1.00 20.29    -0.269 OA
ENDROOT
BRANCH   3  11
HETATM   11  N5    D T1504      10.731  -3.724   0.421  1.00 18.99    -0.187 NA
HETATM   12  C6    D T1504      11.720  -2.879   0.659  1.00 22.32     0.281 C 
HETATM   13  O8    D T1504      12.395  -2.351  -0.204  1.00 19.91    -0.265 OA
BRANCH  12  14
HETATM   14  C7    D T1504      12.007  -2.547   2.073  1.00 23.69     0.058 A 
HETATM   15  C9    D T1504      12.232  -3.604   2.942  1.00 24.20     0.006 A 
HETATM   16  C10   D T1504      12.519  -3.379   4.271  1.00 24.36     0.017 A 
HETATM   17  C24   D T1504      12.567  -2.078   4.721  1.00 26.38     0.060 A 
HETATM   18  C11   D T1504      12.332  -1.005   3.840  1.00 25.51     0.017 A 
HETATM   19  C12   D T1504      12.054  -1.229   2.504  1.00 23.62     0.006 A 
BRANCH  17  20
HETATM   20  N17   D T1504      12.862  -1.845   6.074  1.00 29.22    -0.324 N 
HETATM   21  C18   D T1504      13.901  -1.203   6.443  1.00 32.43     0.088 C 
HETATM   22  C19   D T1504      14.632  -1.726   7.438  1.00 34.59     0.066 C 
HETATM   23  N20   D T1504      14.071  -2.679   8.361  1.00 35.81    -0.247 NA
HETATM   24  C21   D T1504      12.846  -3.353   7.847  1.00 34.06     0.101 C 
HETATM   25  C23   D T1504      15.052  -3.725   8.709  1.00 33.95     0.094 C 
HETATM   26  C22   D T1504      11.950  -2.372   7.095  1.00 31.87     0.124 C 
ENDBRANCH  17  20
ENDBRANCH  12  14
ENDBRANCH   3  11
BRANCH   9  27
HETATM   27  C20   D T1504       8.841  -0.029  -4.321  1.00 16.01     0.216 C 
BRANCH  27  28
HETATM   28  C27   D T1504       8.716   0.782  -5.572  1.00 17.19     0.014 A 
HETATM   29  C28   D T1504       7.586   0.612  -6.406  1.00 16.33    -0.001 A 
HETATM   30  C31   D T1504       7.444   1.383  -7.559  1.00 15.88    -0.000 A 
HETATM   31  C35   D T1504       8.449   2.319  -7.880  1.00 16.13    -0.000 A 
HETATM   32  C33   D T1504       9.572   2.488  -7.064  1.00 13.90    -0.000 A 
HETATM   33  C29   D T1504       9.712   1.717  -5.921  1.00 15.13    -0.001 A 
ENDBRANCH  27  28
BRANCH  27  34
HETATM   34  O34   D T1504       7.801   0.228  -3.374  1.00 17.91    -0.340 OA
HETATM   35  C36   D T1504       8.116   1.245  -2.403  1.00 15.51     0.175 C 
ENDBRANCH  27  34
ENDBRANCH   9  27
TORSDOF 6
ENDMDL
MODEL 9
REMARK VINA RESULT:    -6.607      4.121      5.062
REMARK INTER + INTRA:          -9.244
REMARK INTER:                 -10.896
REMARK INTRA:                   1.652
REMARK UNBOUND:                -0.319
REMARK  6 active torsions:
REMARK  status: ('A' for Active; 'I' for Inactive)
REMARK       I    between atoms: N1_1  and  C25_25 
REMARK    1  A    between atoms: C3_3  and  N5_5 
REMARK       I    between atoms: N5_5  and  C6_6 
REMARK    2  A    between atoms: C6_6  and  C7_7 
REMARK    3  A    between atoms: N17_17  and  C24_24 
REMARK    4  A    between atoms: C25_25  and  C20_32 
REMARK    5  A    between atoms: C27_27  and  C20_32 
REMARK    6  A    between atoms: C20_32  and  O34_35 
ROOT
HETATM    1  N1    D T1504       9.604  -1.976  -3.375  1.00 17.57    -0.308 N 
HETATM    2  N2    D T1504      10.342  -5.056  -1.619  1.00 15.62    -0.149 NA
HETATM    3  C3    D T1504      11.134  -3.397  -0.351  1.00 16.85     0.186 A 
HETATM    4  N4    D T1504      11.061  -4.738  -0.435  1.00 16.47    -0.129 NA
HETATM    5  C13   D T1504      10.002  -3.889  -2.201  1.00 16.13     0.104 A 
HETATM    6  C14   D T1504      10.505  -2.798  -1.425  1.00 16.03     0.055 A 
HETATM    7  C15   D T1504      10.177  -1.491  -2.077  1.00 17.80     0.136 C 
HETATM    8  C16   D T1504       9.310  -3.423  -3.436  1.00 15.77     0.152 C 
HETATM    9  C25   D T1504       9.348  -1.199  -4.439  1.00 17.72     0.266 C 
HETATM   10  O26   D T1504       8.875  -1.651  -5.480  1.00 20.29    -0.269 OA
ENDROOT
BRANCH   3  11
HETATM   11  N5    D T1504      11.802  -2.820   0.706  1.00 18.99    -0.187 NA
HETATM   12  C6    D T1504      11.445  -1.718   1.346  1.00 22.32     0.281 C 
HETATM   13  O8    D T1504      10.445  -1.073   1.098  1.00 19.91    -0.265 OA
BRANCH  12  14
HETATM   14  C7    D T1504      12.320  -1.257   2.448  1.00 23.69     0.058 A 
HETATM   15  C9    D T1504      13.281  -0.305   2.141  1.00 24.20     0.006 A 
HETATM   16  C10   D T1504      14.126   0.187   3.114  1.00 24.36     0.017 A 
HETATM   17  C24   D T1504      14.000  -0.297   4.397  1.00 26.38     0.060 A 
HETATM   18  C11   D T1504      13.029  -1.268   4.707  1.00 25.51     0.017 A 
HETATM   19  C12   D T1504      12.175  -1.755   3.734  1.00 23.62     0.006 A 
BRANCH  17  20
HETATM   20  N17   D T1504      14.858   0.204   5.391  1.00 29.22    -0.324 N 
HETATM   21  C18   D T1504      14.956  -0.339   6.541  1.00 32.43     0.088 C 
HETATM   22  C19   D T1504      14.924   0.466   7.612  1.00 34.59     0.066 C 
HETATM   23  N20   D T1504      15.232   1.870   7.506  1.00 35.81    -0.247 NA
HETATM   24  C21   D T1504      15.113   2.400   6.119  1.00 34.06     0.101 C 
HETATM   25  C23   D T1504      14.354   2.675   8.376  1.00 33.95     0.094 C 
HETATM   26  C22   D T1504      15.653   1.401   5.097  1.00 31.87     0.124 C 
ENDBRANCH  17  20
ENDBRANCH  12  14
ENDBRANCH   3  11
BRANCH   9  27
HETATM   27  C20   D T1504       9.664   0.262  -4.357  1.00 16.01     0.216 C 
BRANCH  27  28
HETATM   28  C27   D T1504       9.132   0.913  -5.595  1.00 17.19     0.014 A 
HETATM   29  C28   D T1504       7.958   0.409  -6.201  1.00 16.33    -0.001 A 
HETATM   30  C31   D T1504       7.436   1.027  -7.337  1.00 15.88    -0.000 A 
HETATM   31  C35   D T1504       8.107   2.146  -7.872  1.00 16.13    -0.000 A 
HETATM   32  C33   D T1504       9.272   2.646  -7.283  1.00 13.90    -0.000 A 
HETATM   33  C29   D T1504       9.790   2.028  -6.156  1.00 15.13    -0.001 A 
ENDBRANCH  27  28
BRANCH  27  34
HETATM   34  O34   D T1504       9.095   0.784  -3.155  1.00 17.91    -0.340 OA
HETATM   35  C36   D T1504       7.654   0.764  -3.119  1.00 15.51     0.175 C 
ENDBRANCH  27  34
ENDBRANCH   9  27
TORSDOF 6
ENDMDL
