MODEL 1
REMARK VINA RESULT:    -8.725      0.000      0.000
REMARK INTER + INTRA:         -13.432
REMARK INTER:                 -11.786
REMARK INTRA:                  -1.647
REMARK UNBOUND:                -1.647
REMARK  6 active torsions:
REMARK  status: ('A' for Active; 'I' for Inactive)
REMARK    1  A    between atoms: N24_6  and  C23_7 
REMARK    2  A    between atoms: C23_7  and  C20_8 
REMARK    3  A    between atoms: C7_13  and  C3_14 
REMARK    4  A    between atoms: C2_15  and  C8_16 
REMARK       I    between atoms: C8_16  and  N10_18 
REMARK    5  A    between atoms: N10_18  and  C11_19 
REMARK    6  A    between atoms: C14_26  and  C30_27 
ROOT
HETATM    1  C3    D T1225      27.887  -0.255 -28.250  1.00 60.49     0.050 A 
HETATM    2  C2    D T1225      29.062   0.402 -28.550  1.00 56.94     0.167 A 
HETATM    3  N1    D T1225      28.808   1.299 -29.518  1.00 55.74    -0.121 NA
HETATM    4  O5    D T1225      27.413   1.238 -29.904  1.00 52.53    -0.211 OA
HETATM    5  C4    D T1225      26.879   0.275 -29.100  1.00 50.46     0.129 A 
HETATM    6  C6    D T1225      25.540  -0.121 -29.082  1.00 48.66     0.050 A 
HETATM    7  C13   D T1225      25.361  -1.484 -29.070  1.00 44.51     0.002 A 
HETATM    8  C14   D T1225      24.103  -2.043 -29.032  1.00 44.70     0.003 A 
HETATM    9  C15   D T1225      22.987  -1.214 -29.036  1.00 45.62     0.129 A 
HETATM   10  O34   D T1225      21.748  -1.762 -28.998  1.00 46.39    -0.190 OA
HETATM   11  C16   D T1225      23.165   0.174 -29.045  1.00 45.91     0.054 A 
HETATM   12  C17   D T1225      24.427   0.741 -29.059  1.00 43.24     0.135 A 
HETATM   13  O33   D T1225      24.522   2.094 -29.074  1.00 42.89    -0.190 OA
ENDROOT
BRANCH   1  14
HETATM   14  C7    D T1225      27.673  -1.271 -27.287  1.00 63.18     0.004 A 
HETATM   15  C22   D T1225      28.183  -2.558 -27.561  1.00 62.88    -0.000 A 
HETATM   16  C21   D T1225      28.043  -3.561 -26.605  1.00 64.62    -0.002 A 
HETATM   17  C20   D T1225      27.394  -3.270 -25.389  1.00 65.93     0.011 A 
HETATM   18  C19   D T1225      26.880  -1.992 -25.115  1.00 64.88    -0.002 A 
HETATM   19  C18   D T1225      27.017  -0.987 -26.069  1.00 63.15    -0.000 A 
BRANCH  17  20
HETATM   20  C23   D T1225      27.231  -4.370 -24.350  1.00 67.22     0.277 C 
BRANCH  20  21
HETATM   21  N24   D T1225      25.825  -4.574 -23.980  1.00 73.24     0.147 N 
HETATM   22  C25   D T1225      25.390  -5.726 -24.827  1.00 75.32     0.283 C 
HETATM   23  C26   D T1225      24.228  -6.523 -24.208  1.00 77.70     0.178 C 
HETATM   24  O27   D T1225      24.577  -6.825 -22.829  1.00 78.67    -0.350 OA
HETATM   25  C28   D T1225      24.704  -5.628 -21.992  1.00 77.39     0.178 C 
HETATM   26  C29   D T1225      25.857  -4.751 -22.501  1.00 74.72     0.283 C 
ENDBRANCH  20  21
ENDBRANCH  17  20
ENDBRANCH   1  14
BRANCH   2  27
HETATM   27  C8    D T1225      30.414   0.109 -27.899  1.00 56.27     0.295 C 
HETATM   28  O9    D T1225      30.882  -1.031 -27.991  1.00 60.50    -0.264 OA
HETATM   29  N10   D T1225      30.983   1.209 -27.317  1.00 57.38    -0.233 NA
BRANCH  29  30
HETATM   30  C11   D T1225      32.276   1.338 -26.606  1.00 54.04     0.129 C 
HETATM   31  C12   D T1225      32.974   2.646 -26.971  1.00 54.74     0.029 C 
ENDBRANCH  29  30
ENDBRANCH   2  27
BRANCH   8  32
HETATM   32  C30   D T1225      23.960  -3.542 -29.106  1.00 42.80     0.024 C 
HETATM   33  C32   D T1225      24.249  -3.739 -30.609  1.00 33.52     0.005 C 
HETATM   34  C31   D T1225      24.953  -4.324 -28.229  1.00 39.45     0.005 C 
ENDBRANCH   8  32
TORSDOF 6
ENDMDL
MODEL 2
REMARK VINA RESULT:    -6.476      2.204      7.037
REMARK INTER + INTRA:         -10.395
REMARK INTER:                  -8.402
REMARK INTRA:                  -1.993
REMARK UNBOUND:                -1.647
REMARK  6 active torsions:
REMARK  status: ('A' for Active; 'I' for Inactive)
REMARK    1  A    between atoms: N24_6  and  C23_7 
REMARK    2  A    between atoms: C23_7  and  C20_8 
REMARK    3  A    between atoms: C7_13  and  C3_14 
REMARK    4  A    between atoms: C2_15  and  C8_16 
REMARK       I    between atoms: C8_16  and  N10_18 
REMARK    5  A    between atoms: N10_18  and  C11_19 
REMARK    6  A    between atoms: C14_26  and  C30_27 
ROOT
HETATM    1  C3    D T1225      26.096  -3.944 -27.205  1.00 60.49     0.050 A 
HETATM    2  C2    D T1225      25.573  -5.129 -26.729  1.00 56.94     0.167 A 
HETATM    3  N1    D T1225      24.283  -5.199 -27.101  1.00 55.74    -0.121 NA
HETATM    4  O5    D T1225      23.910  -4.012 -27.842  1.00 52.53    -0.211 OA
HETATM    5  C4    D T1225      25.051  -3.267 -27.889  1.00 50.46     0.129 A 
HETATM    6  C6    D T1225      25.196  -2.036 -28.534  1.00 48.66     0.050 A 
HETATM    7  C13   D T1225      25.849  -1.087 -27.784  1.00 44.51     0.002 A 
HETATM    8  C14   D T1225      26.092   0.175 -28.278  1.00 44.70     0.003 A 
HETATM    9  C15   D T1225      25.641   0.510 -29.550  1.00 45.62     0.129 A 
HETATM   10  O34   D T1225      25.880   1.752 -30.038  1.00 46.39    -0.190 OA
HETATM   11  C16   D T1225      24.978  -0.455 -30.317  1.00 45.91     0.054 A 
HETATM   12  C17   D T1225      24.753  -1.732 -29.834  1.00 43.24     0.135 A 
HETATM   13  O33   D T1225      24.097  -2.612 -30.632  1.00 42.89    -0.190 OA
ENDROOT
BRANCH   1  14
HETATM   14  C7    D T1225      27.416  -3.452 -27.066  1.00 63.18     0.004 A 
HETATM   15  C22   D T1225      28.321  -3.679 -28.126  1.00 62.88    -0.000 A 
HETATM   16  C21   D T1225      29.607  -3.152 -28.045  1.00 64.62    -0.002 A 
HETATM   17  C20   D T1225      29.977  -2.407 -26.908  1.00 65.93     0.011 A 
HETATM   18  C19   D T1225      29.082  -2.183 -25.849  1.00 64.88    -0.002 A 
HETATM   19  C18   D T1225      27.796  -2.710 -25.926  1.00 63.15    -0.000 A 
BRANCH  17  20
HETATM   20  C23   D T1225      31.387  -1.842 -26.815  1.00 67.22     0.277 C 
BRANCH  20  21
HETATM   21  N24   D T1225      31.418  -0.395 -27.064  1.00 73.24     0.147 N 
HETATM   22  C25   D T1225      32.460   0.114 -26.122  1.00 75.32     0.283 C 
HETATM   23  C26   D T1225      33.122   1.417 -26.603  1.00 77.70     0.178 C 
HETATM   24  O27   D T1225      33.533   1.226 -27.985  1.00 78.67    -0.350 OA
HETATM   25  C28   D T1225      32.405   1.015 -28.896  1.00 77.39     0.178 C 
HETATM   26  C29   D T1225      31.667  -0.280 -28.528  1.00 74.72     0.283 C 
ENDBRANCH  20  21
ENDBRANCH  17  20
ENDBRANCH   1  14
BRANCH   2  27
HETATM   27  C8    D T1225      26.346  -6.148 -25.891  1.00 56.27     0.295 C 
HETATM   28  O9    D T1225      26.642  -5.856 -24.727  1.00 60.50    -0.264 OA
HETATM   29  N10   D T1225      26.574  -7.325 -26.550  1.00 57.38    -0.233 NA
BRANCH  29  30
HETATM   30  C11   D T1225      27.268  -8.548 -26.083  1.00 54.04     0.129 C 
HETATM   31  C12   D T1225      27.282  -9.620 -27.170  1.00 54.74     0.029 C 
ENDBRANCH  29  30
ENDBRANCH   2  27
BRANCH   8  32
HETATM   32  C30   D T1225      26.737   1.205 -27.385  1.00 42.80     0.024 C 
HETATM   33  C32   D T1225      26.447   0.554 -26.016  1.00 33.52     0.005 C 
HETATM   34  C31   D T1225      28.246   1.395 -27.615  1.00 39.45     0.005 C 
ENDBRANCH   8  32
TORSDOF 6
ENDMDL
MODEL 3
REMARK VINA RESULT:    -6.336      5.334     11.088
REMARK INTER + INTRA:         -10.205
REMARK INTER:                  -8.871
REMARK INTRA:                  -1.335
REMARK UNBOUND:                -1.647
REMARK  6 active torsions:
REMARK  status: ('A' for Active; 'I' for Inactive)
REMARK    1  A    between atoms: N24_6  and  C23_7 
REMARK    2  A    between atoms: C23_7  and  C20_8 
REMARK    3  A    between atoms: C7_13  and  C3_14 
REMARK    4  A    between atoms: C2_15  and  C8_16 
REMARK       I    between atoms: C8_16  and  N10_18 
REMARK    5  A    between atoms: N10_18  and  C11_19 
REMARK    6  A    between atoms: C14_26  and  C30_27 
ROOT
HETATM    1  C3    D T1225      36.751  -0.383 -25.295  1.00 60.49     0.050 A 
HETATM    2  C2    D T1225      37.256  -1.666 -25.358  1.00 56.94     0.167 A 
HETATM    3  N1    D T1225      38.473  -1.669 -24.789  1.00 55.74    -0.121 NA
HETATM    4  O5    D T1225      38.818  -0.336 -24.338  1.00 52.53    -0.211 OA
HETATM    5  C4    D T1225      37.734   0.425 -24.662  1.00 50.46     0.129 A 
HETATM    6  C6    D T1225      37.584   1.787 -24.392  1.00 48.66     0.050 A 
HETATM    7  C13   D T1225      37.106   2.517 -25.455  1.00 44.51     0.002 A 
HETATM    8  C14   D T1225      36.881   3.871 -25.353  1.00 44.70     0.003 A 
HETATM    9  C15   D T1225      37.173   4.524 -24.159  1.00 45.62     0.129 A 
HETATM   10  O34   D T1225      36.951   5.857 -24.056  1.00 46.39    -0.190 OA
HETATM   11  C16   D T1225      37.656   3.783 -23.074  1.00 45.91     0.054 A 
HETATM   12  C17   D T1225      37.861   2.418 -23.165  1.00 43.24     0.135 A 
HETATM   13  O33   D T1225      38.339   1.769 -22.075  1.00 42.89    -0.190 OA
ENDROOT
BRANCH   1  14
HETATM   14  C7    D T1225      35.499   0.089 -25.757  1.00 63.18     0.004 A 
HETATM   15  C22   D T1225      35.288   0.146 -27.151  1.00 62.88    -0.000 A 
HETATM   16  C21   D T1225      34.045   0.545 -27.634  1.00 64.62    -0.002 A 
HETATM   17  C20   D T1225      33.028   0.887 -26.721  1.00 65.93     0.011 A 
HETATM   18  C19   D T1225      33.235   0.837 -25.333  1.00 64.88    -0.002 A 
HETATM   19  C18   D T1225      34.477   0.439 -24.846  1.00 63.15    -0.000 A 
BRANCH  17  20
HETATM   20  C23   D T1225      31.673   1.336 -27.250  1.00 67.22     0.277 C 
BRANCH  20  21
HETATM   21  N24   D T1225      30.943   0.237 -27.896  1.00 73.24     0.147 N 
HETATM   22  C25   D T1225      31.116  -0.914 -26.959  1.00 75.32     0.283 C 
HETATM   23  C26   D T1225      29.977  -1.945 -27.056  1.00 77.70     0.178 C 
HETATM   24  O27   D T1225      28.716  -1.226 -26.976  1.00 78.67    -0.350 OA
HETATM   25  C28   D T1225      28.500  -0.316 -28.104  1.00 77.39     0.178 C 
HETATM   26  C29   D T1225      29.572   0.782 -28.106  1.00 74.72     0.283 C 
ENDBRANCH  20  21
ENDBRANCH  17  20
ENDBRANCH   1  14
BRANCH   2  27
HETATM   27  C8    D T1225      36.540  -2.852 -26.007  1.00 56.27     0.295 C 
HETATM   28  O9    D T1225      35.526  -3.302 -25.464  1.00 60.50    -0.264 OA
HETATM   29  N10   D T1225      37.112  -3.246 -27.186  1.00 57.38    -0.233 NA
BRANCH  29  30
HETATM   30  C11   D T1225      36.712  -4.333 -28.110  1.00 54.04     0.129 C 
HETATM   31  C12   D T1225      37.542  -4.296 -29.392  1.00 54.74     0.029 C 
ENDBRANCH  29  30
ENDBRANCH   2  27
BRANCH   8  32
HETATM   32  C30   D T1225      36.437   4.639 -26.571  1.00 42.80     0.024 C 
HETATM   33  C32   D T1225      37.795   4.745 -27.299  1.00 33.52     0.005 C 
HETATM   34  C31   D T1225      35.385   3.919 -27.433  1.00 39.45     0.005 C 
ENDBRANCH   8  32
TORSDOF 6
ENDMDL
MODEL 4
REMARK VINA RESULT:    -6.131      9.256     13.178
REMARK INTER + INTRA:          -9.928
REMARK INTER:                  -8.321
REMARK INTRA:                  -1.607
REMARK UNBOUND:                -1.647
REMARK  6 active torsions:
REMARK  status: ('A' for Active; 'I' for Inactive)
REMARK    1  A    between atoms: N24_6  and  C23_7 
REMARK    2  A    between atoms: C23_7  and  C20_8 
REMARK    3  A    between atoms: C7_13  and  C3_14 
REMARK    4  A    between atoms: C2_15  and  C8_16 
REMARK       I    between atoms: C8_16  and  N10_18 
REMARK    5  A    between atoms: N10_18  and  C11_19 
REMARK    6  A    between atoms: C14_26  and  C30_27 
ROOT
HETATM    1  C3    D T1225      37.349   4.016 -24.493  1.00 60.49     0.050 A 
HETATM    2  C2    D T1225      37.739   5.148 -23.809  1.00 56.94     0.167 A 
HETATM    3  N1    D T1225      37.697   4.882 -22.492  1.00 55.74    -0.121 NA
HETATM    4  O5    D T1225      37.245   3.523 -22.271  1.00 52.53    -0.211 OA
HETATM    5  C4    D T1225      37.045   3.022 -23.524  1.00 50.46     0.129 A 
HETATM    6  C6    D T1225      36.634   1.722 -23.826  1.00 48.66     0.050 A 
HETATM    7  C13   D T1225      35.641   1.657 -24.773  1.00 44.51     0.002 A 
HETATM    8  C14   D T1225      35.134   0.450 -25.201  1.00 44.70     0.003 A 
HETATM    9  C15   D T1225      35.615  -0.729 -24.641  1.00 45.62     0.129 A 
HETATM   10  O34   D T1225      35.118  -1.919 -25.062  1.00 46.39    -0.190 OA
HETATM   11  C16   D T1225      36.628  -0.667 -23.678  1.00 45.91     0.054 A 
HETATM   12  C17   D T1225      37.157   0.542 -23.264  1.00 43.24     0.135 A 
HETATM   13  O33   D T1225      38.133   0.525 -22.321  1.00 42.89    -0.190 OA
ENDROOT
BRANCH   1  14
HETATM   14  C7    D T1225      37.253   3.828 -25.893  1.00 63.18     0.004 A 
HETATM   15  C22   D T1225      38.323   3.179 -26.547  1.00 62.88    -0.000 A 
HETATM   16  C21   D T1225      38.229   2.924 -27.912  1.00 64.62    -0.002 A 
HETATM   17  C20   D T1225      37.071   3.320 -28.610  1.00 65.93     0.011 A 
HETATM   18  C19   D T1225      36.007   3.970 -27.964  1.00 64.88    -0.002 A 
HETATM   19  C18   D T1225      36.098   4.228 -26.600  1.00 63.15    -0.000 A 
BRANCH  17  20
HETATM   20  C23   D T1225      36.974   3.051 -30.105  1.00 67.22     0.277 C 
BRANCH  20  21
HETATM   21  N24   D T1225      38.256   2.606 -30.669  1.00 73.24     0.147 N 
HETATM   22  C25   D T1225      38.075   1.136 -30.865  1.00 75.32     0.283 C 
HETATM   23  C26   D T1225      38.967   0.562 -31.981  1.00 77.70     0.178 C 
HETATM   24  O27   D T1225      38.803   1.400 -33.158  1.00 78.67    -0.350 OA
HETATM   25  C28   D T1225      39.279   2.772 -32.958  1.00 77.39     0.178 C 
HETATM   26  C29   D T1225      38.446   3.465 -31.871  1.00 74.72     0.283 C 
ENDBRANCH  20  21
ENDBRANCH  17  20
ENDBRANCH   1  14
BRANCH   2  27
HETATM   27  C8    D T1225      38.113   6.478 -24.467  1.00 56.27     0.295 C 
HETATM   28  O9    D T1225      38.795   6.459 -25.497  1.00 60.50    -0.264 OA
HETATM   29  N10   D T1225      37.575   7.563 -23.831  1.00 57.38    -0.233 NA
BRANCH  29  30
HETATM   30  C11   D T1225      37.690   9.003 -24.163  1.00 54.04     0.129 C 
HETATM   31  C12   D T1225      37.380   9.872 -22.946  1.00 54.74     0.029 C 
ENDBRANCH  29  30
ENDBRANCH   2  27
BRANCH   8  32
HETATM   32  C30   D T1225      33.987   0.437 -26.179  1.00 42.80     0.024 C 
HETATM   33  C32   D T1225      33.082   1.489 -25.505  1.00 33.52     0.005 C 
HETATM   34  C31   D T1225      34.365   0.847 -27.613  1.00 39.45     0.005 C 
ENDBRANCH   8  32
TORSDOF 6
ENDMDL
MODEL 5
REMARK VINA RESULT:    -5.955      5.465     11.375
REMARK INTER + INTRA:          -9.691
REMARK INTER:                  -7.910
REMARK INTRA:                  -1.781
REMARK UNBOUND:                -1.647
REMARK  6 active torsions:
REMARK  status: ('A' for Active; 'I' for Inactive)
REMARK    1  A    between atoms: N24_6  and  C23_7 
REMARK    2  A    between atoms: C23_7  and  C20_8 
REMARK    3  A    between atoms: C7_13  and  C3_14 
REMARK    4  A    between atoms: C2_15  and  C8_16 
REMARK       I    between atoms: C8_16  and  N10_18 
REMARK    5  A    between atoms: N10_18  and  C11_19 
REMARK    6  A    between atoms: C14_26  and  C30_27 
ROOT
HETATM    1  C3    D T1225      37.215   1.661 -25.523  1.00 60.49     0.050 A 
HETATM    2  C2    D T1225      37.721   0.677 -24.698  1.00 56.94     0.167 A 
HETATM    3  N1    D T1225      38.936   1.065 -24.275  1.00 55.74    -0.121 NA
HETATM    4  O5    D T1225      39.278   2.352 -24.846  1.00 52.53    -0.211 OA
HETATM    5  C4    D T1225      38.195   2.687 -25.604  1.00 50.46     0.129 A 
HETATM    6  C6    D T1225      38.042   3.870 -26.330  1.00 48.66     0.050 A 
HETATM    7  C13   D T1225      37.569   3.684 -27.607  1.00 44.51     0.002 A 
HETATM    8  C14   D T1225      37.342   4.748 -28.452  1.00 44.70     0.003 A 
HETATM    9  C15   D T1225      37.628   6.038 -28.016  1.00 45.62     0.129 A 
HETATM   10  O34   D T1225      37.404   7.087 -28.846  1.00 46.39    -0.190 OA
HETATM   11  C16   D T1225      38.107   6.231 -26.716  1.00 45.91     0.054 A 
HETATM   12  C17   D T1225      38.313   5.167 -25.856  1.00 43.24     0.135 A 
HETATM   13  O33   D T1225      38.787   5.432 -24.613  1.00 42.89    -0.190 OA
ENDROOT
BRANCH   1  14
HETATM   14  C7    D T1225      35.965   1.690 -26.186  1.00 63.18     0.004 A 
HETATM   15  C22   D T1225      35.825   0.928 -27.366  1.00 62.88    -0.000 A 
HETATM   16  C21   D T1225      34.589   0.887 -28.005  1.00 64.62    -0.002 A 
HETATM   17  C20   D T1225      33.507   1.607 -27.462  1.00 65.93     0.011 A 
HETATM   18  C19   D T1225      33.643   2.371 -26.291  1.00 64.88    -0.002 A 
HETATM   19  C18   D T1225      34.878   2.416 -25.650  1.00 63.15    -0.000 A 
BRANCH  17  20
HETATM   20  C23   D T1225      32.159   1.571 -28.168  1.00 67.22     0.277 C 
BRANCH  20  21
HETATM   21  N24   D T1225      31.123   0.934 -27.344  1.00 73.24     0.147 N 
HETATM   22  C25   D T1225      29.850   1.234 -28.067  1.00 75.32     0.283 C 
HETATM   23  C26   D T1225      28.746   0.195 -27.798  1.00 77.70     0.178 C 
HETATM   24  O27   D T1225      29.316  -1.126 -28.005  1.00 78.67    -0.350 OA
HETATM   25  C28   D T1225      30.382  -1.449 -27.052  1.00 77.39     0.178 C 
HETATM   26  C29   D T1225      31.562  -0.485 -27.236  1.00 74.72     0.283 C 
ENDBRANCH  20  21
ENDBRANCH  17  20
ENDBRANCH   1  14
BRANCH   2  27
HETATM   27  C8    D T1225      37.010  -0.637 -24.372  1.00 56.27     0.295 C 
HETATM   28  O9    D T1225      35.992  -0.603 -23.673  1.00 60.50    -0.264 OA
HETATM   29  N10   D T1225      37.588  -1.725 -24.967  1.00 57.38    -0.233 NA
BRANCH  29  30
HETATM   30  C11   D T1225      37.194  -3.152 -24.910  1.00 54.04     0.129 C 
HETATM   31  C12   D T1225      36.671  -3.632 -26.262  1.00 54.74     0.029 C 
ENDBRANCH  29  30
ENDBRANCH   2  27
BRANCH   8  32
HETATM   32  C30   D T1225      36.903   4.484 -29.869  1.00 42.80     0.024 C 
HETATM   33  C32   D T1225      38.176   3.784 -30.391  1.00 33.52     0.005 C 
HETATM   34  C31   D T1225      35.664   3.580 -29.997  1.00 39.45     0.005 C 
ENDBRANCH   8  32
TORSDOF 6
ENDMDL
