MODEL 1
REMARK VINA RESULT:    -8.451      0.000      0.000
REMARK INTER + INTRA:         -13.145
REMARK INTER:                 -11.415
REMARK INTRA:                  -1.730
REMARK UNBOUND:                -1.730
REMARK  6 active torsions:
REMARK  status: ('A' for Active; 'I' for Inactive)
REMARK    1  A    between atoms: N24_6  and  C23_7 
REMARK    2  A    between atoms: C23_7  and  C20_8 
REMARK    3  A    between atoms: C7_13  and  C3_14 
REMARK    4  A    between atoms: C2_15  and  C8_16 
REMARK       I    between atoms: C8_16  and  N10_18 
REMARK    5  A    between atoms: N10_18  and  C11_19 
REMARK    6  A    between atoms: C14_26  and  C30_27 
ROOT
HETATM    1  C3    D T1225      28.080   0.271 -28.443  1.00 60.49     0.050 A 
HETATM    2  C2    D T1225      29.146   1.062 -28.820  1.00 56.94     0.167 A 
HETATM    3  N1    D T1225      28.751   1.844 -29.838  1.00 55.74    -0.121 NA
HETATM    4  O5    D T1225      27.372   1.563 -30.179  1.00 52.53    -0.211 OA
HETATM    5  C4    D T1225      26.992   0.595 -29.298  1.00 50.46     0.129 A 
HETATM    6  C6    D T1225      25.722   0.020 -29.214  1.00 48.66     0.050 A 
HETATM    7  C13   D T1225      25.736  -1.350 -29.105  1.00 44.51     0.002 A 
HETATM    8  C14   D T1225      24.570  -2.074 -28.994  1.00 44.70     0.003 A 
HETATM    9  C15   D T1225      23.348  -1.409 -29.022  1.00 45.62     0.129 A 
HETATM   10  O34   D T1225      22.199  -2.118 -28.911  1.00 46.39    -0.190 OA
HETATM   11  C16   D T1225      23.331  -0.013 -29.130  1.00 45.91     0.054 A 
HETATM   12  C17   D T1225      24.501   0.719 -29.218  1.00 43.24     0.135 A 
HETATM   13  O33   D T1225      24.405   2.069 -29.329  1.00 42.89    -0.190 OA
ENDROOT
BRANCH   1  14
HETATM   14  C7    D T1225      28.028  -0.693 -27.408  1.00 63.18     0.004 A 
HETATM   15  C22   D T1225      27.277  -0.384 -26.254  1.00 62.88    -0.000 A 
HETATM   16  C21   D T1225      27.156  -1.339 -25.246  1.00 64.62    -0.002 A 
HETATM   17  C20   D T1225      27.787  -2.588 -25.402  1.00 65.93     0.011 A 
HETATM   18  C19   D T1225      28.539  -2.898 -26.545  1.00 64.88    -0.002 A 
HETATM   19  C18   D T1225      28.664  -1.946 -27.553  1.00 63.15    -0.000 A 
BRANCH  17  20
HETATM   20  C23   D T1225      27.663  -3.626 -24.294  1.00 67.22     0.277 C 
BRANCH  20  21
HETATM   21  N24   D T1225      26.274  -4.059 -24.095  1.00 73.24     0.147 N 
HETATM   22  C25   D T1225      26.250  -5.454 -24.624  1.00 75.32     0.283 C 
HETATM   23  C26   D T1225      25.153  -6.323 -23.982  1.00 77.70     0.178 C 
HETATM   24  O27   D T1225      25.255  -6.176 -22.539  1.00 78.67    -0.350 OA
HETATM   25  C28   D T1225      24.978  -4.812 -22.078  1.00 77.39     0.178 C 
HETATM   26  C29   D T1225      26.028  -3.844 -22.641  1.00 74.72     0.283 C 
ENDBRANCH  20  21
ENDBRANCH  17  20
ENDBRANCH   1  14
BRANCH   2  27
HETATM   27  C8    D T1225      30.539   1.004 -28.188  1.00 56.27     0.295 C 
HETATM   28  O9    D T1225      31.192  -0.040 -28.288  1.00 60.50    -0.264 OA
HETATM   29  N10   D T1225      30.919   2.186 -27.615  1.00 57.38    -0.233 NA
BRANCH  29  30
HETATM   30  C11   D T1225      32.180   2.535 -26.921  1.00 54.04     0.129 C 
HETATM   31  C12   D T1225      33.096   3.356 -27.828  1.00 54.74     0.029 C 
ENDBRANCH  29  30
ENDBRANCH   2  27
BRANCH   8  32
HETATM   32  C30   D T1225      24.636  -3.578 -28.962  1.00 42.80     0.024 C 
HETATM   33  C32   D T1225      25.116  -3.831 -30.406  1.00 33.52     0.005 C 
HETATM   34  C31   D T1225      25.619  -4.154 -27.927  1.00 39.45     0.005 C 
ENDBRANCH   8  32
TORSDOF 6
ENDMDL
MODEL 2
REMARK VINA RESULT:    -7.063      2.125      7.088
REMARK INTER + INTRA:         -11.271
REMARK INTER:                  -9.242
REMARK INTRA:                  -2.029
REMARK UNBOUND:                -1.730
REMARK  6 active torsions:
REMARK  status: ('A' for Active; 'I' for Inactive)
REMARK    1  A    between atoms: N24_6  and  C23_7 
REMARK    2  A    between atoms: C23_7  and  C20_8 
REMARK    3  A    between atoms: C7_13  and  C3_14 
REMARK    4  A    between atoms: C2_15  and  C8_16 
REMARK       I    between atoms: C8_16  and  N10_18 
REMARK    5  A    between atoms: N10_18  and  C11_19 
REMARK    6  A    between atoms: C14_26  and  C30_27 
ROOT
HETATM    1  C3    D T1225      26.567  -3.485 -27.096  1.00 60.49     0.050 A 
HETATM    2  C2    D T1225      26.119  -4.659 -26.527  1.00 56.94     0.167 A 
HETATM    3  N1    D T1225      24.844  -4.852 -26.906  1.00 55.74    -0.121 NA
HETATM    4  O5    D T1225      24.403  -3.760 -27.749  1.00 52.53    -0.211 OA
HETATM    5  C4    D T1225      25.489  -2.943 -27.847  1.00 50.46     0.129 A 
HETATM    6  C6    D T1225      25.560  -1.763 -28.592  1.00 48.66     0.050 A 
HETATM    7  C13   D T1225      26.133  -0.711 -27.919  1.00 44.51     0.002 A 
HETATM    8  C14   D T1225      26.296   0.519 -28.515  1.00 44.70     0.003 A 
HETATM    9  C15   D T1225      25.845   0.713 -29.817  1.00 45.62     0.129 A 
HETATM   10  O34   D T1225      26.006   1.923 -30.406  1.00 46.39    -0.190 OA
HETATM   11  C16   D T1225      25.263  -0.358 -30.506  1.00 45.91     0.054 A 
HETATM   12  C17   D T1225      25.119  -1.602 -29.919  1.00 43.24     0.135 A 
HETATM   13  O33   D T1225      24.538  -2.590 -30.646  1.00 42.89    -0.190 OA
ENDROOT
BRANCH   1  14
HETATM   14  C7    D T1225      27.847  -2.891 -26.986  1.00 63.18     0.004 A 
HETATM   15  C22   D T1225      28.776  -3.125 -28.022  1.00 62.88    -0.000 A 
HETATM   16  C21   D T1225      30.021  -2.502 -27.971  1.00 64.62    -0.002 A 
HETATM   17  C20   D T1225      30.325  -1.657 -26.887  1.00 65.93     0.011 A 
HETATM   18  C19   D T1225      29.407  -1.427 -25.850  1.00 64.88    -0.002 A 
HETATM   19  C18   D T1225      28.162  -2.048 -25.897  1.00 63.15    -0.000 A 
BRANCH  17  20
HETATM   20  C23   D T1225      31.692  -0.988 -26.827  1.00 67.22     0.277 C 
BRANCH  20  21
HETATM   21  N24   D T1225      31.620   0.442 -27.153  1.00 73.24     0.147 N 
HETATM   22  C25   D T1225      32.609   1.075 -26.231  1.00 75.32     0.283 C 
HETATM   23  C26   D T1225      33.180   2.397 -26.775  1.00 77.70     0.178 C 
HETATM   24  O27   D T1225      33.622   2.164 -28.140  1.00 78.67    -0.350 OA
HETATM   25  C28   D T1225      32.525   1.821 -29.050  1.00 77.39     0.178 C 
HETATM   26  C29   D T1225      31.880   0.496 -28.620  1.00 74.72     0.283 C 
ENDBRANCH  20  21
ENDBRANCH  17  20
ENDBRANCH   1  14
BRANCH   2  27
HETATM   27  C8    D T1225      26.947  -5.547 -25.596  1.00 56.27     0.295 C 
HETATM   28  O9    D T1225      27.009  -5.254 -24.398  1.00 60.50    -0.264 OA
HETATM   29  N10   D T1225      27.494  -6.629 -26.230  1.00 57.38    -0.233 NA
BRANCH  29  30
HETATM   30  C11   D T1225      28.340  -7.715 -25.683  1.00 54.04     0.129 C 
HETATM   31  C12   D T1225      28.112  -9.022 -26.440  1.00 54.74     0.029 C 
ENDBRANCH  29  30
ENDBRANCH   2  27
BRANCH   8  32
HETATM   32  C30   D T1225      26.853   1.662 -27.707  1.00 42.80     0.024 C 
HETATM   33  C32   D T1225      26.599   1.104 -26.291  1.00 33.52     0.005 C 
HETATM   34  C31   D T1225      28.346   1.948 -27.947  1.00 39.45     0.005 C 
ENDBRANCH   8  32
TORSDOF 6
ENDMDL
MODEL 3
REMARK VINA RESULT:    -6.238      9.492     13.340
REMARK INTER + INTRA:         -10.156
REMARK INTER:                  -8.349
REMARK INTRA:                  -1.807
REMARK UNBOUND:                -1.730
REMARK  6 active torsions:
REMARK  status: ('A' for Active; 'I' for Inactive)
REMARK    1  A    between atoms: N24_6  and  C23_7 
REMARK    2  A    between atoms: C23_7  and  C20_8 
REMARK    3  A    between atoms: C7_13  and  C3_14 
REMARK    4  A    between atoms: C2_15  and  C8_16 
REMARK       I    between atoms: C8_16  and  N10_18 
REMARK    5  A    between atoms: N10_18  and  C11_19 
REMARK    6  A    between atoms: C14_26  and  C30_27 
ROOT
HETATM    1  C3    D T1225      37.332   5.931 -25.353  1.00 60.49     0.050 A 
HETATM    2  C2    D T1225      37.710   7.161 -24.853  1.00 56.94     0.167 A 
HETATM    3  N1    D T1225      37.593   7.126 -23.515  1.00 55.74    -0.121 NA
HETATM    4  O5    D T1225      37.101   5.831 -23.089  1.00 52.53    -0.211 OA
HETATM    5  C4    D T1225      36.956   5.124 -24.245  1.00 50.46     0.129 A 
HETATM    6  C6    D T1225      36.534   3.796 -24.343  1.00 48.66     0.050 A 
HETATM    7  C13   D T1225      35.591   3.580 -25.318  1.00 44.51     0.002 A 
HETATM    8  C14   D T1225      35.081   2.324 -25.560  1.00 44.70     0.003 A 
HETATM    9  C15   D T1225      35.506   1.253 -24.780  1.00 45.62     0.129 A 
HETATM   10  O34   D T1225      35.007   0.015 -25.016  1.00 46.39    -0.190 OA
HETATM   11  C16   D T1225      36.470   1.469 -23.787  1.00 45.91     0.054 A 
HETATM   12  C17   D T1225      37.002   2.725 -23.558  1.00 43.24     0.135 A 
HETATM   13  O33   D T1225      37.926   2.859 -22.573  1.00 42.89    -0.190 OA
ENDROOT
BRANCH   1  14
HETATM   14  C7    D T1225      37.306   5.505 -26.702  1.00 63.18     0.004 A 
HETATM   15  C22   D T1225      38.387   4.730 -27.172  1.00 62.88    -0.000 A 
HETATM   16  C21   D T1225      38.359   4.243 -28.477  1.00 64.62    -0.002 A 
HETATM   17  C20   D T1225      37.254   4.539 -29.298  1.00 65.93     0.011 A 
HETATM   18  C19   D T1225      36.178   5.314 -28.837  1.00 64.88    -0.002 A 
HETATM   19  C18   D T1225      36.204   5.803 -27.534  1.00 63.15    -0.000 A 
BRANCH  17  20
HETATM   20  C23   D T1225      37.230   4.016 -30.728  1.00 67.22     0.277 C 
BRANCH  20  21
HETATM   21  N24   D T1225      38.553   3.557 -31.170  1.00 73.24     0.147 N 
HETATM   22  C25   D T1225      38.406   2.075 -31.274  1.00 75.32     0.283 C 
HETATM   23  C26   D T1225      39.382   1.443 -32.283  1.00 77.70     0.178 C 
HETATM   24  O27   D T1225      39.290   2.194 -33.524  1.00 78.67    -0.350 OA
HETATM   25  C28   D T1225      39.731   3.586 -33.390  1.00 77.39     0.178 C 
HETATM   26  C29   D T1225      38.815   4.336 -32.414  1.00 74.72     0.283 C 
ENDBRANCH  20  21
ENDBRANCH  17  20
ENDBRANCH   1  14
BRANCH   2  27
HETATM   27  C8    D T1225      38.145   8.352 -25.709  1.00 56.27     0.295 C 
HETATM   28  O9    D T1225      38.999   8.173 -26.583  1.00 60.50    -0.264 OA
HETATM   29  N10   D T1225      37.465   9.502 -25.416  1.00 57.38    -0.233 NA
BRANCH  29  30
HETATM   30  C11   D T1225      37.585  10.849 -26.020  1.00 54.04     0.129 C 
HETATM   31  C12   D T1225      36.849  11.894 -25.183  1.00 54.74     0.029 C 
ENDBRANCH  29  30
ENDBRANCH   2  27
BRANCH   8  32
HETATM   32  C30   D T1225      33.988   2.155 -26.582  1.00 42.80     0.024 C 
HETATM   33  C32   D T1225      33.209   3.462 -26.323  1.00 33.52     0.005 C 
HETATM   34  C31   D T1225      34.481   2.067 -28.037  1.00 39.45     0.005 C 
ENDBRANCH   8  32
TORSDOF 6
ENDMDL
MODEL 4
REMARK VINA RESULT:    -6.156      5.386     10.952
REMARK INTER + INTRA:         -10.045
REMARK INTER:                  -8.196
REMARK INTRA:                  -1.849
REMARK UNBOUND:                -1.730
REMARK  6 active torsions:
REMARK  status: ('A' for Active; 'I' for Inactive)
REMARK    1  A    between atoms: N24_6  and  C23_7 
REMARK    2  A    between atoms: C23_7  and  C20_8 
REMARK    3  A    between atoms: C7_13  and  C3_14 
REMARK    4  A    between atoms: C2_15  and  C8_16 
REMARK       I    between atoms: C8_16  and  N10_18 
REMARK    5  A    between atoms: N10_18  and  C11_19 
REMARK    6  A    between atoms: C14_26  and  C30_27 
ROOT
HETATM    1  C3    D T1225      37.394   3.938 -28.701  1.00 60.49     0.050 A 
HETATM    2  C2    D T1225      37.909   5.116 -29.200  1.00 56.94     0.167 A 
HETATM    3  N1    D T1225      39.214   4.930 -29.459  1.00 55.74    -0.121 NA
HETATM    4  O5    D T1225      39.607   3.581 -29.106  1.00 52.53    -0.211 OA
HETATM    5  C4    D T1225      38.462   3.001 -28.648  1.00 50.46     0.129 A 
HETATM    6  C6    D T1225      38.332   1.679 -28.217  1.00 48.66     0.050 A 
HETATM    7  C13   D T1225      37.635   1.540 -27.041  1.00 44.51     0.002 A 
HETATM    8  C14   D T1225      37.400   0.302 -26.486  1.00 44.70     0.003 A 
HETATM    9  C15   D T1225      37.904  -0.833 -27.113  1.00 45.62     0.129 A 
HETATM   10  O34   D T1225      37.673  -2.054 -26.570  1.00 46.39    -0.190 OA
HETATM   11  C16   D T1225      38.612  -0.696 -28.313  1.00 45.91     0.054 A 
HETATM   12  C17   D T1225      38.829   0.544 -28.886  1.00 43.24     0.135 A 
HETATM   13  O33   D T1225      39.531   0.600 -30.046  1.00 42.89    -0.190 OA
ENDROOT
BRANCH   1  14
HETATM   14  C7    D T1225      36.064   3.662 -28.303  1.00 63.18     0.004 A 
HETATM   15  C22   D T1225      35.231   2.974 -29.211  1.00 62.88    -0.000 A 
HETATM   16  C21   D T1225      33.938   2.633 -28.823  1.00 64.62    -0.002 A 
HETATM   17  C20   D T1225      33.489   2.986 -27.536  1.00 65.93     0.011 A 
HETATM   18  C19   D T1225      34.311   3.676 -26.631  1.00 64.88    -0.002 A 
HETATM   19  C18   D T1225      35.604   4.019 -27.016  1.00 63.15    -0.000 A 
BRANCH  17  20
HETATM   20  C23   D T1225      32.070   2.623 -27.118  1.00 67.22     0.277 C 
BRANCH  20  21
HETATM   21  N24   D T1225      31.569   1.442 -27.832  1.00 73.24     0.147 N 
HETATM   22  C25   D T1225      31.846   0.310 -26.899  1.00 75.32     0.283 C 
HETATM   23  C26   D T1225      30.891  -0.881 -27.097  1.00 77.70     0.178 C 
HETATM   24  O27   D T1225      29.532  -0.366 -27.108  1.00 78.67    -0.350 OA
HETATM   25  C28   D T1225      29.264   0.527 -28.240  1.00 77.39     0.178 C 
HETATM   26  C29   D T1225      30.151   1.777 -28.144  1.00 74.72     0.283 C 
ENDBRANCH  20  21
ENDBRANCH  17  20
ENDBRANCH   1  14
BRANCH   2  27
HETATM   27  C8    D T1225      37.109   6.409 -29.380  1.00 56.27     0.295 C 
HETATM   28  O9    D T1225      35.954   6.336 -29.814  1.00 60.50    -0.264 OA
HETATM   29  N10   D T1225      37.789   7.523 -28.971  1.00 57.38    -0.233 NA
BRANCH  29  30
HETATM   30  C11   D T1225      37.361   8.941 -28.971  1.00 54.04     0.129 C 
HETATM   31  C12   D T1225      37.902   9.677 -27.746  1.00 54.74     0.029 C 
ENDBRANCH  29  30
ENDBRANCH   2  27
BRANCH   8  32
HETATM   32  C30   D T1225      36.704   0.211 -25.154  1.00 42.80     0.024 C 
HETATM   33  C32   D T1225      37.367   1.414 -24.451  1.00 33.52     0.005 C 
HETATM   34  C31   D T1225      35.174   0.363 -25.218  1.00 39.45     0.005 C 
ENDBRANCH   8  32
TORSDOF 6
ENDMDL
MODEL 5
REMARK VINA RESULT:    -5.759      9.553     12.967
REMARK INTER + INTRA:          -9.509
REMARK INTER:                  -7.681
REMARK INTRA:                  -1.828
REMARK UNBOUND:                -1.730
REMARK  6 active torsions:
REMARK  status: ('A' for Active; 'I' for Inactive)
REMARK    1  A    between atoms: N24_6  and  C23_7 
REMARK    2  A    between atoms: C23_7  and  C20_8 
REMARK    3  A    between atoms: C7_13  and  C3_14 
REMARK    4  A    between atoms: C2_15  and  C8_16 
REMARK       I    between atoms: C8_16  and  N10_18 
REMARK    5  A    between atoms: N10_18  and  C11_19 
REMARK    6  A    between atoms: C14_26  and  C30_27 
ROOT
HETATM    1  C3    D T1225      38.062   0.521 -26.036  1.00 60.49     0.050 A 
HETATM    2  C2    D T1225      38.573  -0.700 -25.645  1.00 56.94     0.167 A 
HETATM    3  N1    D T1225      38.626  -1.500 -26.723  1.00 55.74    -0.121 NA
HETATM    4  O5    D T1225      38.114  -0.806 -27.887  1.00 52.53    -0.211 OA
HETATM    5  C4    D T1225      37.782   0.433 -27.427  1.00 50.46     0.129 A 
HETATM    6  C6    D T1225      37.272   1.481 -28.198  1.00 48.66     0.050 A 
HETATM    7  C13   D T1225      36.201   2.125 -27.626  1.00 44.51     0.002 A 
HETATM    8  C14   D T1225      35.590   3.192 -28.244  1.00 44.70     0.003 A 
HETATM    9  C15   D T1225      36.046   3.611 -29.490  1.00 45.62     0.129 A 
HETATM   10  O34   D T1225      35.447   4.663 -30.101  1.00 46.39    -0.190 OA
HETATM   11  C16   D T1225      37.138   2.959 -30.075  1.00 45.91     0.054 A 
HETATM   12  C17   D T1225      37.770   1.902 -29.445  1.00 43.24     0.135 A 
HETATM   13  O33   D T1225      38.817   1.314 -30.076  1.00 42.89    -0.190 OA
ENDROOT
BRANCH   1  14
HETATM   14  C7    D T1225      37.840   1.672 -25.244  1.00 63.18     0.004 A 
HETATM   15  C22   D T1225      38.791   2.712 -25.307  1.00 62.88    -0.000 A 
HETATM   16  C21   D T1225      38.566   3.883 -24.587  1.00 64.62    -0.002 A 
HETATM   17  C20   D T1225      37.398   4.001 -23.810  1.00 65.93     0.011 A 
HETATM   18  C19   D T1225      36.452   2.966 -23.739  1.00 64.88    -0.002 A 
HETATM   19  C18   D T1225      36.674   1.794 -24.457  1.00 63.15    -0.000 A 
BRANCH  17  20
HETATM   20  C23   D T1225      37.161   5.277 -23.013  1.00 67.22     0.277 C 
BRANCH  20  21
HETATM   21  N24   D T1225      37.838   6.434 -23.610  1.00 73.24     0.147 N 
HETATM   22  C25   D T1225      36.751   7.159 -24.332  1.00 75.32     0.283 C 
HETATM   23  C26   D T1225      37.031   8.664 -24.489  1.00 77.70     0.178 C 
HETATM   24  O27   D T1225      37.406   9.187 -23.186  1.00 78.67    -0.350 OA
HETATM   25  C28   D T1225      38.658   8.618 -22.676  1.00 77.39     0.178 C 
HETATM   26  C29   D T1225      38.498   7.108 -22.456  1.00 74.72     0.283 C 
ENDBRANCH  20  21
ENDBRANCH  17  20
ENDBRANCH   1  14
BRANCH   2  27
HETATM   27  C8    D T1225      38.968  -1.059 -24.211  1.00 56.27     0.295 C 
HETATM   28  O9    D T1225      39.482  -0.188 -23.502  1.00 60.50    -0.264 OA
HETATM   29  N10   D T1225      38.638  -2.341 -23.868  1.00 57.38    -0.233 NA
BRANCH  29  30
HETATM   30  C11   D T1225      38.839  -3.055 -22.586  1.00 54.04     0.129 C 
HETATM   31  C12   D T1225      37.922  -4.274 -22.487  1.00 54.74     0.029 C 
ENDBRANCH  29  30
ENDBRANCH   2  27
BRANCH   8  32
HETATM   32  C30   D T1225      34.368   3.809 -27.616  1.00 42.80     0.024 C 
HETATM   33  C32   D T1225      33.705   2.528 -27.067  1.00 33.52     0.005 C 
HETATM   34  C31   D T1225      34.667   4.820 -26.494  1.00 39.45     0.005 C 
ENDBRANCH   8  32
TORSDOF 6
ENDMDL
MODEL 6
REMARK VINA RESULT:    -5.724      5.768     11.033
REMARK INTER + INTRA:          -9.461
REMARK INTER:                  -7.841
REMARK INTRA:                  -1.621
REMARK UNBOUND:                -1.730
REMARK  6 active torsions:
REMARK  status: ('A' for Active; 'I' for Inactive)
REMARK    1  A    between atoms: N24_6  and  C23_7 
REMARK    2  A    between atoms: C23_7  and  C20_8 
REMARK    3  A    between atoms: C7_13  and  C3_14 
REMARK    4  A    between atoms: C2_15  and  C8_16 
REMARK       I    between atoms: C8_16  and  N10_18 
REMARK    5  A    between atoms: N10_18  and  C11_19 
REMARK    6  A    between atoms: C14_26  and  C30_27 
ROOT
HETATM    1  C3    D T1225      33.984   2.190 -27.171  1.00 60.49     0.050 A 
HETATM    2  C2    D T1225      32.713   2.012 -27.676  1.00 56.94     0.167 A 
HETATM    3  N1    D T1225      32.179   3.223 -27.910  1.00 55.74    -0.121 NA
HETATM    4  O5    D T1225      33.115   4.264 -27.534  1.00 52.53    -0.211 OA
HETATM    5  C4    D T1225      34.213   3.591 -27.089  1.00 50.46     0.129 A 
HETATM    6  C6    D T1225      35.403   4.172 -26.645  1.00 48.66     0.050 A 
HETATM    7  C13   D T1225      35.888   3.631 -25.479  1.00 44.51     0.002 A 
HETATM    8  C14   D T1225      37.061   4.076 -24.913  1.00 44.70     0.003 A 
HETATM    9  C15   D T1225      37.758   5.118 -25.517  1.00 45.62     0.129 A 
HETATM   10  O34   D T1225      38.914   5.557 -24.964  1.00 46.39    -0.190 OA
HETATM   11  C16   D T1225      37.268   5.670 -26.707  1.00 45.91     0.054 A 
HETATM   12  C17   D T1225      36.102   5.209 -27.291  1.00 43.24     0.135 A 
HETATM   13  O33   D T1225      35.684   5.798 -28.440  1.00 42.89    -0.190 OA
ENDROOT
BRANCH   1  14
HETATM   14  C7    D T1225      34.922   1.200 -26.793  1.00 63.18     0.004 A 
HETATM   15  C22   D T1225      36.141   1.139 -27.500  1.00 62.88    -0.000 A 
HETATM   16  C21   D T1225      37.109   0.217 -27.108  1.00 64.62    -0.002 A 
HETATM   17  C20   D T1225      36.848  -0.635 -26.019  1.00 65.93     0.011 A 
HETATM   18  C19   D T1225      35.634  -0.583 -25.315  1.00 64.88    -0.002 A 
HETATM   19  C18   D T1225      34.664   0.337 -25.705  1.00 63.15    -0.000 A 
BRANCH  17  20
HETATM   20  C23   D T1225      37.902  -1.651 -25.600  1.00 67.22     0.277 C 
BRANCH  20  21
HETATM   21  N24   D T1225      37.849  -1.941 -24.162  1.00 73.24     0.147 N 
HETATM   22  C25   D T1225      37.421  -3.369 -24.095  1.00 75.32     0.283 C 
HETATM   23  C26   D T1225      37.889  -4.080 -22.812  1.00 77.70     0.178 C 
HETATM   24  O27   D T1225      39.310  -3.819 -22.650  1.00 78.67    -0.350 OA
HETATM   25  C28   D T1225      39.614  -2.401 -22.433  1.00 77.39     0.178 C 
HETATM   26  C29   D T1225      39.207  -1.581 -23.665  1.00 74.72     0.283 C 
ENDBRANCH  20  21
ENDBRANCH  17  20
ENDBRANCH   1  14
BRANCH   2  27
HETATM   27  C8    D T1225      32.040   0.654 -27.885  1.00 56.27     0.295 C 
HETATM   28  O9    D T1225      32.260   0.039 -28.933  1.00 60.50    -0.264 OA
HETATM   29  N10   D T1225      31.290   0.254 -26.813  1.00 57.38    -0.233 NA
BRANCH  29  30
HETATM   30  C11   D T1225      30.504  -0.986 -26.622  1.00 54.04     0.129 C 
HETATM   31  C12   D T1225      29.251  -0.982 -27.497  1.00 54.74     0.029 C 
ENDBRANCH  29  30
ENDBRANCH   2  27
BRANCH   8  32
HETATM   32  C30   D T1225      37.506   3.507 -23.591  1.00 42.80     0.024 C 
HETATM   33  C32   D T1225      36.739   4.458 -22.648  1.00 33.52     0.005 C 
HETATM   34  C31   D T1225      37.110   2.038 -23.361  1.00 39.45     0.005 C 
ENDBRANCH   8  32
TORSDOF 6
ENDMDL
MODEL 7
REMARK VINA RESULT:    -5.694      5.706     11.797
REMARK INTER + INTRA:          -9.422
REMARK INTER:                  -7.573
REMARK INTRA:                  -1.849
REMARK UNBOUND:                -1.730
REMARK  6 active torsions:
REMARK  status: ('A' for Active; 'I' for Inactive)
REMARK    1  A    between atoms: N24_6  and  C23_7 
REMARK    2  A    between atoms: C23_7  and  C20_8 
REMARK    3  A    between atoms: C7_13  and  C3_14 
REMARK    4  A    between atoms: C2_15  and  C8_16 
REMARK       I    between atoms: C8_16  and  N10_18 
REMARK    5  A    between atoms: N10_18  and  C11_19 
REMARK    6  A    between atoms: C14_26  and  C30_27 
ROOT
HETATM    1  C3    D T1225      37.449   3.539 -25.523  1.00 60.49     0.050 A 
HETATM    2  C2    D T1225      38.006   2.702 -24.579  1.00 56.94     0.167 A 
HETATM    3  N1    D T1225      39.139   3.268 -24.129  1.00 55.74    -0.121 NA
HETATM    4  O5    D T1225      39.371   4.528 -24.806  1.00 52.53    -0.211 OA
HETATM    5  C4    D T1225      38.310   4.663 -25.651  1.00 50.46     0.129 A 
HETATM    6  C6    D T1225      38.073   5.748 -26.498  1.00 48.66     0.050 A 
HETATM    7  C13   D T1225      37.708   5.391 -27.774  1.00 44.51     0.002 A 
HETATM    8  C14   D T1225      37.421   6.338 -28.731  1.00 44.70     0.003 A 
HETATM    9  C15   D T1225      37.530   7.687 -28.410  1.00 45.62     0.129 A 
HETATM   10  O34   D T1225      37.245   8.622 -29.349  1.00 46.39    -0.190 OA
HETATM   11  C16   D T1225      37.898   8.054 -27.110  1.00 45.91     0.054 A 
HETATM   12  C17   D T1225      38.164   7.106 -26.140  1.00 43.24     0.135 A 
HETATM   13  O33   D T1225      38.524   7.537 -24.904  1.00 42.89    -0.190 OA
ENDROOT
BRANCH   1  14
HETATM   14  C7    D T1225      36.250   3.360 -26.253  1.00 63.18     0.004 A 
HETATM   15  C22   D T1225      36.289   2.537 -27.399  1.00 62.88    -0.000 A 
HETATM   16  C21   D T1225      35.111   2.292 -28.100  1.00 64.62    -0.002 A 
HETATM   17  C20   D T1225      33.909   2.873 -27.653  1.00 65.93     0.011 A 
HETATM   18  C19   D T1225      33.866   3.697 -26.517  1.00 64.88    -0.002 A 
HETATM   19  C18   D T1225      35.042   3.945 -25.815  1.00 63.15    -0.000 A 
BRANCH  17  20
HETATM   20  C23   D T1225      32.625   2.614 -28.429  1.00 67.22     0.277 C 
BRANCH  20  21
HETATM   21  N24   D T1225      31.601   1.965 -27.600  1.00 73.24     0.147 N 
HETATM   22  C25   D T1225      30.393   1.930 -28.476  1.00 75.32     0.283 C 
HETATM   23  C26   D T1225      29.424   0.787 -28.122  1.00 77.70     0.178 C 
HETATM   24  O27   D T1225      30.197  -0.441 -28.031  1.00 78.67    -0.350 OA
HETATM   25  C28   D T1225      31.180  -0.424 -26.943  1.00 77.39     0.178 C 
HETATM   26  C29   D T1225      32.223   0.673 -27.194  1.00 74.72     0.283 C 
ENDBRANCH  20  21
ENDBRANCH  17  20
ENDBRANCH   1  14
BRANCH   2  27
HETATM   27  C8    D T1225      37.426   1.348 -24.165  1.00 56.27     0.295 C 
HETATM   28  O9    D T1225      36.431   1.328 -23.433  1.00 60.50    -0.264 OA
HETATM   29  N10   D T1225      38.084   0.288 -24.726  1.00 57.38    -0.233 NA
BRANCH  29  30
HETATM   30  C11   D T1225      37.824  -1.164 -24.584  1.00 54.04     0.129 C 
HETATM   31  C12   D T1225      37.803  -1.853 -25.948  1.00 54.74     0.029 C 
ENDBRANCH  29  30
ENDBRANCH   2  27
BRANCH   8  32
HETATM   32  C30   D T1225      37.108   5.896 -30.136  1.00 42.80     0.024 C 
HETATM   33  C32   D T1225      38.016   4.650 -30.206  1.00 33.52     0.005 C 
HETATM   34  C31   D T1225      35.632   5.537 -30.381  1.00 39.45     0.005 C 
ENDBRANCH   8  32
TORSDOF 6
ENDMDL
