MODEL 1
REMARK VINA RESULT:    -8.181      0.000      0.000
REMARK INTER + INTRA:         -12.686
REMARK INTER:                 -11.050
REMARK INTRA:                  -1.636
REMARK UNBOUND:                -1.636
REMARK  6 active torsions:
REMARK  status: ('A' for Active; 'I' for Inactive)
REMARK    1  A    between atoms: N24_6  and  C23_7 
REMARK    2  A    between atoms: C23_7  and  C20_8 
REMARK    3  A    between atoms: C7_13  and  C3_14 
REMARK    4  A    between atoms: C2_15  and  C8_16 
REMARK       I    between atoms: C8_16  and  N10_18 
REMARK    5  A    between atoms: N10_18  and  C11_19 
REMARK    6  A    between atoms: C14_26  and  C30_27 
ROOT
HETATM    1  C3    D T1225      28.048  -0.317 -28.514  1.00 60.49     0.050 A 
HETATM    2  C2    D T1225      29.150   0.439 -28.858  1.00 56.94     0.167 A 
HETATM    3  N1    D T1225      28.790   1.294 -29.831  1.00 55.74    -0.121 NA
HETATM    4  O5    D T1225      27.395   1.100 -30.174  1.00 52.53    -0.211 OA
HETATM    5  C4    D T1225      26.973   0.107 -29.342  1.00 50.46     0.129 A 
HETATM    6  C6    D T1225      25.677  -0.409 -29.277  1.00 48.66     0.050 A 
HETATM    7  C13   D T1225      25.622  -1.782 -29.242  1.00 44.51     0.002 A 
HETATM    8  C14   D T1225      24.422  -2.452 -29.159  1.00 44.70     0.003 A 
HETATM    9  C15   D T1225      23.236  -1.727 -29.142  1.00 45.62     0.129 A 
HETATM   10  O34   D T1225      22.053  -2.384 -29.058  1.00 46.39    -0.190 OA
HETATM   11  C16   D T1225      23.288  -0.327 -29.176  1.00 45.91     0.054 A 
HETATM   12  C17   D T1225      24.491   0.350 -29.235  1.00 43.24     0.135 A 
HETATM   13  O33   D T1225      24.463   1.705 -29.272  1.00 42.89    -0.190 OA
ENDROOT
BRANCH   1  14
HETATM   14  C7    D T1225      27.955  -1.330 -27.531  1.00 63.18     0.004 A 
HETATM   15  C22   D T1225      27.227  -1.047 -26.356  1.00 62.88    -0.000 A 
HETATM   16  C21   D T1225      27.064  -2.046 -25.400  1.00 64.62    -0.002 A 
HETATM   17  C20   D T1225      27.631  -3.316 -25.626  1.00 65.93     0.011 A 
HETATM   18  C19   D T1225      28.360  -3.601 -26.791  1.00 64.88    -0.002 A 
HETATM   19  C18   D T1225      28.526  -2.604 -27.748  1.00 63.15    -0.000 A 
BRANCH  17  20
HETATM   20  C23   D T1225      27.461  -4.404 -24.574  1.00 67.22     0.277 C 
BRANCH  20  21
HETATM   21  N24   D T1225      26.061  -4.826 -24.439  1.00 73.24     0.147 N 
HETATM   22  C25   D T1225      26.046  -6.211 -24.996  1.00 75.32     0.283 C 
HETATM   23  C26   D T1225      24.916  -7.082 -24.414  1.00 77.70     0.178 C 
HETATM   24  O27   D T1225      24.962  -6.963 -22.966  1.00 78.67    -0.350 OA
HETATM   25  C28   D T1225      24.679  -5.605 -22.490  1.00 77.39     0.178 C 
HETATM   26  C29   D T1225      25.759  -4.637 -22.992  1.00 74.72     0.283 C 
ENDBRANCH  20  21
ENDBRANCH  17  20
ENDBRANCH   1  14
BRANCH   2  27
HETATM   27  C8    D T1225      30.542   0.280 -28.242  1.00 56.27     0.295 C 
HETATM   28  O9    D T1225      31.095  -0.823 -28.303  1.00 60.50    -0.264 OA
HETATM   29  N10   D T1225      31.039   1.445 -27.725  1.00 57.38    -0.233 NA
BRANCH  29  30
HETATM   30  C11   D T1225      32.338   1.706 -27.064  1.00 54.04     0.129 C 
HETATM   31  C12   D T1225      33.267   2.502 -27.978  1.00 54.74     0.029 C 
ENDBRANCH  29  30
ENDBRANCH   2  27
BRANCH   8  32
HETATM   32  C30   D T1225      24.413  -3.958 -29.208  1.00 42.80     0.024 C 
HETATM   33  C32   D T1225      24.823  -4.154 -30.681  1.00 33.52     0.005 C 
HETATM   34  C31   D T1225      25.406  -4.635 -28.245  1.00 39.45     0.005 C 
ENDBRANCH   8  32
TORSDOF 6
ENDMDL
MODEL 2
REMARK VINA RESULT:    -6.722      2.165      7.167
REMARK INTER + INTRA:         -10.715
REMARK INTER:                  -8.709
REMARK INTRA:                  -2.006
REMARK UNBOUND:                -1.636
REMARK  6 active torsions:
REMARK  status: ('A' for Active; 'I' for Inactive)
REMARK    1  A    between atoms: N24_6  and  C23_7 
REMARK    2  A    between atoms: C23_7  and  C20_8 
REMARK    3  A    between atoms: C7_13  and  C3_14 
REMARK    4  A    between atoms: C2_15  and  C8_16 
REMARK       I    between atoms: C8_16  and  N10_18 
REMARK    5  A    between atoms: N10_18  and  C11_19 
REMARK    6  A    between atoms: C14_26  and  C30_27 
ROOT
HETATM    1  C3    D T1225      26.723  -4.045 -27.212  1.00 60.49     0.050 A 
HETATM    2  C2    D T1225      26.325  -5.235 -26.638  1.00 56.94     0.167 A 
HETATM    3  N1    D T1225      25.018  -5.412 -26.893  1.00 55.74    -0.121 NA
HETATM    4  O5    D T1225      24.501  -4.292 -27.653  1.00 52.53    -0.211 OA
HETATM    5  C4    D T1225      25.577  -3.476 -27.834  1.00 50.46     0.129 A 
HETATM    6  C6    D T1225      25.581  -2.273 -28.544  1.00 48.66     0.050 A 
HETATM    7  C13   D T1225      26.225  -1.245 -27.899  1.00 44.51     0.002 A 
HETATM    8  C14   D T1225      26.336   0.004 -28.470  1.00 44.70     0.003 A 
HETATM    9  C15   D T1225      25.757   0.240 -29.712  1.00 45.62     0.129 A 
HETATM   10  O34   D T1225      25.867   1.467 -30.277  1.00 46.39    -0.190 OA
HETATM   11  C16   D T1225      25.103  -0.807 -30.373  1.00 45.91     0.054 A 
HETATM   12  C17   D T1225      25.010  -2.068 -29.815  1.00 43.24     0.135 A 
HETATM   13  O33   D T1225      24.354  -3.030 -30.510  1.00 42.89    -0.190 OA
ENDROOT
BRANCH   1  14
HETATM   14  C7    D T1225      28.011  -3.461 -27.212  1.00 63.18     0.004 A 
HETATM   15  C22   D T1225      28.865  -3.742 -28.299  1.00 62.88    -0.000 A 
HETATM   16  C21   D T1225      30.115  -3.130 -28.357  1.00 64.62    -0.002 A 
HETATM   17  C20   D T1225      30.499  -2.246 -27.331  1.00 65.93     0.011 A 
HETATM   18  C19   D T1225      29.654  -1.966 -26.244  1.00 64.88    -0.002 A 
HETATM   19  C18   D T1225      28.405  -2.578 -26.181  1.00 63.15    -0.000 A 
BRANCH  17  20
HETATM   20  C23   D T1225      31.870  -1.587 -27.390  1.00 67.22     0.277 C 
BRANCH  20  21
HETATM   21  N24   D T1225      31.776  -0.121 -27.390  1.00 73.24     0.147 N 
HETATM   22  C25   D T1225      32.678   0.299 -26.275  1.00 75.32     0.283 C 
HETATM   23  C26   D T1225      33.245   1.719 -26.463  1.00 77.70     0.178 C 
HETATM   24  O27   D T1225      33.788   1.808 -27.808  1.00 78.67    -0.350 OA
HETATM   25  C28   D T1225      32.768   1.667 -28.851  1.00 77.39     0.178 C 
HETATM   26  C29   D T1225      32.137   0.269 -28.783  1.00 74.72     0.283 C 
ENDBRANCH  20  21
ENDBRANCH  17  20
ENDBRANCH   1  14
BRANCH   2  27
HETATM   27  C8    D T1225      27.238  -6.156 -25.824  1.00 56.27     0.295 C 
HETATM   28  O9    D T1225      27.676  -5.751 -24.743  1.00 60.50    -0.264 OA
HETATM   29  N10   D T1225      27.415  -7.384 -26.399  1.00 57.38    -0.233 NA
BRANCH  29  30
HETATM   30  C11   D T1225      28.204  -8.544 -25.925  1.00 54.04     0.129 C 
HETATM   31  C12   D T1225      27.817  -9.815 -26.679  1.00 54.74     0.029 C 
ENDBRANCH  29  30
ENDBRANCH   2  27
BRANCH   8  32
HETATM   32  C30   D T1225      26.978   1.118 -27.686  1.00 42.80     0.024 C 
HETATM   33  C32   D T1225      26.748   0.575 -26.261  1.00 33.52     0.005 C 
HETATM   34  C31   D T1225      28.474   1.329 -27.980  1.00 39.45     0.005 C 
ENDBRANCH   8  32
TORSDOF 6
ENDMDL
MODEL 3
REMARK VINA RESULT:    -6.221      1.474      2.009
REMARK INTER + INTRA:         -10.039
REMARK INTER:                 -11.010
REMARK INTRA:                   0.971
REMARK UNBOUND:                -1.636
REMARK  6 active torsions:
REMARK  status: ('A' for Active; 'I' for Inactive)
REMARK    1  A    between atoms: N24_6  and  C23_7 
REMARK    2  A    between atoms: C23_7  and  C20_8 
REMARK    3  A    between atoms: C7_13  and  C3_14 
REMARK    4  A    between atoms: C2_15  and  C8_16 
REMARK       I    between atoms: C8_16  and  N10_18 
REMARK    5  A    between atoms: N10_18  and  C11_19 
REMARK    6  A    between atoms: C14_26  and  C30_27 
ROOT
HETATM    1  C3    D T1225      27.737  -0.102 -28.523  1.00 60.49     0.050 A 
HETATM    2  C2    D T1225      28.710   0.796 -28.911  1.00 56.94     0.167 A 
HETATM    3  N1    D T1225      28.252   1.486 -29.969  1.00 55.74    -0.121 NA
HETATM    4  O5    D T1225      26.925   1.027 -30.326  1.00 52.53    -0.211 OA
HETATM    5  C4    D T1225      26.641   0.056 -29.414  1.00 50.46     0.129 A 
HETATM    6  C6    D T1225      25.448  -0.666 -29.333  1.00 48.66     0.050 A 
HETATM    7  C13   D T1225      25.622  -2.019 -29.167  1.00 44.51     0.002 A 
HETATM    8  C14   D T1225      24.549  -2.873 -29.050  1.00 44.70     0.003 A 
HETATM    9  C15   D T1225      23.258  -2.362 -29.132  1.00 45.62     0.129 A 
HETATM   10  O34   D T1225      22.200  -3.200 -29.015  1.00 46.39    -0.190 OA
HETATM   11  C16   D T1225      23.076  -0.983 -29.298  1.00 45.91     0.054 A 
HETATM   12  C17   D T1225      24.151  -0.119 -29.392  1.00 43.24     0.135 A 
HETATM   13  O33   D T1225      23.898   1.203 -29.560  1.00 42.89    -0.190 OA
ENDROOT
BRANCH   1  14
HETATM   14  C7    D T1225      27.775  -1.024 -27.450  1.00 63.18     0.004 A 
HETATM   15  C22   D T1225      28.893  -1.880 -27.353  1.00 62.88    -0.000 A 
HETATM   16  C21   D T1225      28.988  -2.753 -26.272  1.00 64.62    -0.002 A 
HETATM   17  C20   D T1225      27.967  -2.764 -25.302  1.00 65.93     0.011 A 
HETATM   18  C19   D T1225      26.851  -1.917 -25.397  1.00 64.88    -0.002 A 
HETATM   19  C18   D T1225      26.751  -1.045 -26.477  1.00 63.15    -0.000 A 
BRANCH  17  20
HETATM   20  C23   D T1225      28.068  -3.727 -24.127  1.00 67.22     0.277 C 
BRANCH  20  21
HETATM   21  N24   D T1225      28.202  -5.122 -24.569  1.00 73.24     0.147 N 
HETATM   22  C25   D T1225      26.860  -5.718 -24.296  1.00 75.32     0.283 C 
HETATM   23  C26   D T1225      26.536  -6.914 -25.212  1.00 77.70     0.178 C 
HETATM   24  O27   D T1225      26.803  -6.512 -26.582  1.00 78.67    -0.350 OA
HETATM   25  C28   D T1225      28.217  -6.216 -26.831  1.00 77.39     0.178 C 
HETATM   26  C29   D T1225      28.659  -5.015 -25.983  1.00 74.72     0.283 C 
ENDBRANCH  20  21
ENDBRANCH  17  20
ENDBRANCH   1  14
BRANCH   2  27
HETATM   27  C8    D T1225      30.083   0.932 -28.247  1.00 56.27     0.295 C 
HETATM   28  O9    D T1225      30.198   1.678 -27.269  1.00 60.50    -0.264 OA
HETATM   29  N10   D T1225      31.038   0.134 -28.817  1.00 57.38    -0.233 NA
BRANCH  29  30
HETATM   30  C11   D T1225      32.465  -0.029 -28.462  1.00 54.04     0.129 C 
HETATM   31  C12   D T1225      32.622  -0.440 -26.998  1.00 54.74     0.029 C 
ENDBRANCH  29  30
ENDBRANCH   2  27
BRANCH   8  32
HETATM   32  C30   D T1225      24.794  -4.357 -28.955  1.00 42.80     0.024 C 
HETATM   33  C32   D T1225      26.289  -4.379 -29.329  1.00 33.52     0.005 C 
HETATM   34  C31   D T1225      24.547  -4.957 -27.559  1.00 39.45     0.005 C 
ENDBRANCH   8  32
TORSDOF 6
ENDMDL
