MODEL 1
REMARK VINA RESULT:    -7.886      0.000      0.000
REMARK INTER + INTRA:         -14.086
REMARK INTER:                 -12.496
REMARK INTRA:                  -1.590
REMARK UNBOUND:                -1.590
REMARK  10 active torsions:
REMARK  status: ('A' for Active; 'I' for Inactive)
REMARK    1  A    between atoms: NBL_6  and  CAS_7 
REMARK    2  A    between atoms: CAS_7  and  CAO_8 
REMARK    3  A    between atoms: CAO_8  and  CAP_9 
REMARK    4  A    between atoms: CAP_9  and  OBB_10 
REMARK    5  A    between atoms: OBB_10  and  CBH_11 
REMARK    6  A    between atoms: CBG_13  and  OAZ_14 
REMARK    7  A    between atoms: C6_22  and  NAY_23 
REMARK    8  A    between atoms: NAY_23  and  CBE_24 
REMARK    9  A    between atoms: CBD_29  and  NAX_30 
REMARK       I    between atoms: NAX_30  and  CBC_31 
REMARK   10  A    between atoms: CBC_31  and  CBF_33 
ROOT
HETATM    1  CBH   D T1356       0.557   5.060  10.473  1.00 30.53     0.118 A 
HETATM    2  CAM   D T1356      -0.643   5.757  10.653  1.00 29.88     0.045 A 
HETATM    3  CBG   D T1356       0.557   3.653  10.551  1.00 30.48     0.117 A 
HETATM    4  CAN   D T1356      -0.623   2.957  10.815  1.00 29.67     0.031 A 
HETATM    5  C5    D T1356      -1.825   3.650  10.991  1.00 29.79     0.056 A 
HETATM    6  C4    D T1356      -1.827   5.053  10.907  1.00 29.99     0.088 A 
HETATM    7  N3    D T1356      -2.970   5.735  11.076  1.00 29.16    -0.224 NA
HETATM    8  C2    D T1356      -4.171   5.063  11.335  1.00 30.02     0.200 A 
HETATM    9  N1    D T1356      -4.173   3.660  11.412  1.00 29.74    -0.205 NA
HETATM   10  C6    D T1356      -3.030   2.972  11.246  1.00 29.94     0.166 A 
ENDROOT
BRANCH  10  11
HETATM   11  NAY   D T1356      -2.978   1.616  11.326  1.00 31.31    -0.227 NA
BRANCH  11  12
HETATM   12  CBE   D T1356      -4.055   0.856  10.983  1.00 32.67     0.083 A 
HETATM   13  CAK   D T1356      -4.810   0.248  11.987  1.00 33.73     0.021 A 
HETATM   14  CAI   D T1356      -5.927  -0.532  11.671  1.00 34.14     0.021 A 
HETATM   15  CBD   D T1356      -6.325  -0.699  10.337  1.00 33.99     0.085 A 
HETATM   16  CAH   D T1356      -5.569  -0.094   9.334  1.00 33.61     0.021 A 
HETATM   17  CAJ   D T1356      -4.454   0.682   9.654  1.00 33.42     0.021 A 
BRANCH  15  18
HETATM   18  NAX   D T1356      -7.383  -1.465   9.975  1.00 34.41    -0.208 NA
HETATM   19  CBC   D T1356      -8.641  -0.966   9.913  1.00 37.04     0.279 C 
HETATM   20  OAB   D T1356      -8.950   0.205  10.155  1.00 38.15    -0.265 OA
BRANCH  19  21
HETATM   21  CBF   D T1356      -9.617  -1.896   9.545  1.00 37.03     0.058 A 
HETATM   22  CAF   D T1356      -9.380  -3.261   9.718  1.00 38.06     0.005 A 
HETATM   23  CAD   D T1356     -10.347  -4.191   9.346  1.00 38.28     0.000 A 
HETATM   24  CAC   D T1356     -11.555  -3.763   8.796  1.00 38.02     0.000 A 
HETATM   25  CAE   D T1356     -11.796  -2.403   8.628  1.00 37.90     0.000 A 
HETATM   26  CAG   D T1356     -10.826  -1.473   8.994  1.00 37.23     0.005 A 
ENDBRANCH  19  21
ENDBRANCH  15  18
ENDBRANCH  11  12
ENDBRANCH  10  11
BRANCH   3  27
HETATM   27  OAZ   D T1356       1.740   2.969  10.397  1.00 30.66    -0.326 OA
HETATM   28  CAA   D T1356       2.362   2.483  11.588  1.00 33.36     0.181 C 
ENDBRANCH   3  27
BRANCH   1  29
HETATM   29  OBB   D T1356       1.763   5.666  10.221  1.00 30.55    -0.329 OA
BRANCH  29  30
HETATM   30  CAP   D T1356       2.399   6.440  11.263  1.00 33.72     0.151 C 
BRANCH  30  31
HETATM   31  CAO   D T1356       2.668   7.864  10.744  1.00 37.07     0.068 C 
BRANCH  31  32
HETATM   32  CAS   D T1356       2.549   7.865   9.213  1.00 39.71     0.253 C 
BRANCH  32  33
HETATM   33  NBL   D T1356       1.402   8.583   8.606  1.00 41.70     0.142 N 
HETATM   34  CAT   D T1356       1.719   9.334   7.370  1.00 43.12     0.282 C 
HETATM   35  CAQ   D T1356       0.427   9.922   6.763  1.00 43.52     0.178 C 
HETATM   36  OBA   D T1356      -0.743   9.487   7.541  1.00 44.22    -0.350 OA
HETATM   37  CAR   D T1356      -0.676   9.866   8.959  1.00 43.52     0.178 C 
HETATM   38  CAU   D T1356       0.683   9.454   9.562  1.00 42.73     0.282 C 
ENDBRANCH  32  33
ENDBRANCH  31  32
ENDBRANCH  30  31
ENDBRANCH  29  30
ENDBRANCH   1  29
TORSDOF 10
ENDMDL
MODEL 2
REMARK VINA RESULT:    -7.626      3.994      6.830
REMARK INTER + INTRA:         -13.674
REMARK INTER:                 -12.011
REMARK INTRA:                  -1.663
REMARK UNBOUND:                -1.590
REMARK  10 active torsions:
REMARK  status: ('A' for Active; 'I' for Inactive)
REMARK    1  A    between atoms: NBL_6  and  CAS_7 
REMARK    2  A    between atoms: CAS_7  and  CAO_8 
REMARK    3  A    between atoms: CAO_8  and  CAP_9 
REMARK    4  A    between atoms: CAP_9  and  OBB_10 
REMARK    5  A    between atoms: OBB_10  and  CBH_11 
REMARK    6  A    between atoms: CBG_13  and  OAZ_14 
REMARK    7  A    between atoms: C6_22  and  NAY_23 
REMARK    8  A    between atoms: NAY_23  and  CBE_24 
REMARK    9  A    between atoms: CBD_29  and  NAX_30 
REMARK       I    between atoms: NAX_30  and  CBC_31 
REMARK   10  A    between atoms: CBC_31  and  CBF_33 
ROOT
HETATM    1  CBH   D T1356      -0.048  -0.788  11.599  1.00 30.53     0.118 A 
HETATM    2  CAM   D T1356       0.255   0.394  10.912  1.00 29.88     0.045 A 
HETATM    3  CBG   D T1356      -1.300  -0.916  12.232  1.00 30.48     0.117 A 
HETATM    4  CAN   D T1356      -2.228   0.124  12.188  1.00 29.67     0.031 A 
HETATM    5  C5    D T1356      -1.931   1.304  11.500  1.00 29.79     0.056 A 
HETATM    6  C4    D T1356      -0.684   1.431  10.862  1.00 29.99     0.088 A 
HETATM    7  N3    D T1356      -0.380   2.557  10.197  1.00 29.16    -0.224 NA
HETATM    8  C2    D T1356      -1.295   3.615  10.131  1.00 30.02     0.200 A 
HETATM    9  N1    D T1356      -2.544   3.489  10.762  1.00 29.74    -0.205 NA
HETATM   10  C6    D T1356      -2.852   2.363  11.430  1.00 29.94     0.166 A 
ENDROOT
BRANCH  10  11
HETATM   11  NAY   D T1356      -4.041   2.199  12.068  1.00 31.31    -0.227 NA
BRANCH  11  12
HETATM   12  CBE   D T1356      -4.976   1.334  11.588  1.00 32.67     0.083 A 
HETATM   13  CAK   D T1356      -5.563   1.580  10.345  1.00 33.73     0.021 A 
HETATM   14  CAI   D T1356      -6.520   0.708   9.819  1.00 34.14     0.021 A 
HETATM   15  CBD   D T1356      -6.893  -0.447  10.521  1.00 33.99     0.085 A 
HETATM   16  CAH   D T1356      -6.311  -0.693  11.763  1.00 33.61     0.021 A 
HETATM   17  CAJ   D T1356      -5.357   0.182  12.285  1.00 33.42     0.021 A 
BRANCH  15  18
HETATM   18  NAX   D T1356      -7.834  -1.311  10.067  1.00 34.41    -0.208 NA
HETATM   19  CBC   D T1356      -9.154  -1.004  10.077  1.00 37.04     0.279 C 
HETATM   20  OAB   D T1356      -9.628   0.065  10.472  1.00 38.15    -0.265 OA
BRANCH  19  21
HETATM   21  CBF   D T1356      -9.990  -2.015   9.596  1.00 37.03     0.058 A 
HETATM   22  CAF   D T1356     -11.172  -1.685   8.930  1.00 38.06     0.005 A 
HETATM   23  CAD   D T1356     -12.012  -2.688   8.455  1.00 38.28     0.000 A 
HETATM   24  CAC   D T1356     -11.678  -4.029   8.647  1.00 38.02     0.000 A 
HETATM   25  CAE   D T1356     -10.497  -4.361   9.305  1.00 37.90     0.000 A 
HETATM   26  CAG   D T1356      -9.661  -3.357   9.786  1.00 37.23     0.005 A 
ENDBRANCH  19  21
ENDBRANCH  15  18
ENDBRANCH  11  12
ENDBRANCH  10  11
BRANCH   3  27
HETATM   27  OAZ   D T1356      -1.589  -2.068  12.927  1.00 30.66    -0.326 OA
HETATM   28  CAA   D T1356      -1.354  -2.045  14.337  1.00 33.36     0.181 C 
ENDBRANCH   3  27
BRANCH   1  29
HETATM   29  OBB   D T1356       0.810  -1.855  11.701  1.00 30.55    -0.329 OA
BRANCH  29  30
HETATM   30  CAP   D T1356       1.046  -2.688  10.544  1.00 33.72     0.151 C 
BRANCH  30  31
HETATM   31  CAO   D T1356       0.096  -3.899  10.590  1.00 37.07     0.068 C 
BRANCH  31  32
HETATM   32  CAS   D T1356      -0.728  -3.934   9.295  1.00 39.71     0.253 C 
BRANCH  32  33
HETATM   33  NBL   D T1356      -2.141  -3.488   9.358  1.00 41.70     0.142 N 
HETATM   34  CAT   D T1356      -2.344  -2.030   9.195  1.00 43.12     0.282 C 
HETATM   35  CAQ   D T1356      -3.853  -1.710   9.144  1.00 43.52     0.178 C 
HETATM   36  OBA   D T1356      -4.638  -2.954   9.181  1.00 44.22    -0.350 OA
HETATM   37  CAR   D T1356      -4.373  -3.777  10.369  1.00 43.52     0.178 C 
HETATM   38  CAU   D T1356      -2.855  -3.972  10.560  1.00 42.73     0.282 C 
ENDBRANCH  32  33
ENDBRANCH  31  32
ENDBRANCH  30  31
ENDBRANCH  29  30
ENDBRANCH   1  29
TORSDOF 10
ENDMDL
MODEL 3
REMARK VINA RESULT:    -7.525      4.673      7.407
REMARK INTER + INTRA:         -13.515
REMARK INTER:                 -10.890
REMARK INTRA:                  -2.624
REMARK UNBOUND:                -1.590
REMARK  10 active torsions:
REMARK  status: ('A' for Active; 'I' for Inactive)
REMARK    1  A    between atoms: NBL_6  and  CAS_7 
REMARK    2  A    between atoms: CAS_7  and  CAO_8 
REMARK    3  A    between atoms: CAO_8  and  CAP_9 
REMARK    4  A    between atoms: CAP_9  and  OBB_10 
REMARK    5  A    between atoms: OBB_10  and  CBH_11 
REMARK    6  A    between atoms: CBG_13  and  OAZ_14 
REMARK    7  A    between atoms: C6_22  and  NAY_23 
REMARK    8  A    between atoms: NAY_23  and  CBE_24 
REMARK    9  A    between atoms: CBD_29  and  NAX_30 
REMARK       I    between atoms: NAX_30  and  CBC_31 
REMARK   10  A    between atoms: CBC_31  and  CBF_33 
ROOT
HETATM    1  CBH   D T1356       1.648  -1.906  12.147  1.00 30.53     0.118 A 
HETATM    2  CAM   D T1356       2.039  -1.185  11.013  1.00 29.88     0.045 A 
HETATM    3  CBG   D T1356       0.514  -1.488  12.873  1.00 30.48     0.117 A 
HETATM    4  CAN   D T1356      -0.208  -0.363  12.476  1.00 29.67     0.031 A 
HETATM    5  C5    D T1356       0.178   0.357  11.342  1.00 29.79     0.056 A 
HETATM    6  C4    D T1356       1.305  -0.062  10.613  1.00 29.99     0.088 A 
HETATM    7  N3    D T1356       1.691   0.618   9.522  1.00 29.16    -0.224 NA
HETATM    8  C2    D T1356       0.981   1.747   9.096  1.00 30.02     0.200 A 
HETATM    9  N1    D T1356      -0.149   2.164   9.818  1.00 29.74    -0.205 NA
HETATM   10  C6    D T1356      -0.539   1.488  10.913  1.00 29.94     0.166 A 
ENDROOT
BRANCH  10  11
HETATM   11  NAY   D T1356      -1.617   1.861  11.653  1.00 31.31    -0.227 NA
BRANCH  11  12
HETATM   12  CBE   D T1356      -2.862   1.398  11.353  1.00 32.67     0.083 A 
HETATM   13  CAK   D T1356      -3.298   1.416  10.027  1.00 33.73     0.021 A 
HETATM   14  CAI   D T1356      -4.567   0.940   9.683  1.00 34.14     0.021 A 
HETATM   15  CBD   D T1356      -5.420   0.413  10.663  1.00 33.99     0.085 A 
HETATM   16  CAH   D T1356      -4.987   0.398  11.988  1.00 33.61     0.021 A 
HETATM   17  CAJ   D T1356      -3.720   0.875  12.327  1.00 33.42     0.021 A 
BRANCH  15  18
HETATM   18  NAX   D T1356      -6.668  -0.036  10.387  1.00 34.41    -0.208 NA
HETATM   19  CBC   D T1356      -6.898  -1.304   9.969  1.00 37.04     0.279 C 
HETATM   20  OAB   D T1356      -6.027  -2.166   9.814  1.00 38.15    -0.265 OA
BRANCH  19  21
HETATM   21  CBF   D T1356      -8.239  -1.597   9.707  1.00 37.03     0.058 A 
HETATM   22  CAF   D T1356      -9.061  -0.632   9.120  1.00 38.06     0.005 A 
HETATM   23  CAD   D T1356     -10.399  -0.916   8.863  1.00 38.28     0.000 A 
HETATM   24  CAC   D T1356     -10.926  -2.164   9.196  1.00 38.02     0.000 A 
HETATM   25  CAE   D T1356     -10.108  -3.129   9.776  1.00 37.90     0.000 A 
HETATM   26  CAG   D T1356      -8.770  -2.842  10.038  1.00 37.23     0.005 A 
ENDBRANCH  19  21
ENDBRANCH  15  18
ENDBRANCH  11  12
ENDBRANCH  10  11
BRANCH   3  27
HETATM   27  OAZ   D T1356       0.143  -2.183  14.001  1.00 30.66    -0.326 OA
HETATM   28  CAA   D T1356      -1.119  -1.842  14.580  1.00 33.36     0.181 C 
ENDBRANCH   3  27
BRANCH   1  29
HETATM   29  OBB   D T1356       2.307  -3.017  12.613  1.00 30.55    -0.329 OA
BRANCH  29  30
HETATM   30  CAP   D T1356       2.383  -4.196  11.782  1.00 33.72     0.151 C 
BRANCH  30  31
HETATM   31  CAO   D T1356       1.030  -4.930  11.818  1.00 37.07     0.068 C 
BRANCH  31  32
HETATM   32  CAS   D T1356       0.323  -4.733  10.468  1.00 39.71     0.253 C 
BRANCH  32  33
HETATM   33  NBL   D T1356      -0.856  -3.834  10.427  1.00 41.70     0.142 N 
HETATM   34  CAT   D T1356      -1.805  -3.996  11.552  1.00 43.12     0.282 C 
HETATM   35  CAQ   D T1356      -2.911  -2.923  11.470  1.00 43.52     0.178 C 
HETATM   36  OBA   D T1356      -2.645  -2.004  10.352  1.00 44.22    -0.350 OA
HETATM   37  CAR   D T1356      -2.548  -2.679   9.051  1.00 43.52     0.178 C 
HETATM   38  CAU   D T1356      -1.582  -3.879   9.137  1.00 42.73     0.282 C 
ENDBRANCH  32  33
ENDBRANCH  31  32
ENDBRANCH  30  31
ENDBRANCH  29  30
ENDBRANCH   1  29
TORSDOF 10
ENDMDL
MODEL 4
REMARK VINA RESULT:    -7.428      1.262      2.520
REMARK INTER + INTRA:         -13.361
REMARK INTER:                 -11.777
REMARK INTRA:                  -1.585
REMARK UNBOUND:                -1.590
REMARK  10 active torsions:
REMARK  status: ('A' for Active; 'I' for Inactive)
REMARK    1  A    between atoms: NBL_6  and  CAS_7 
REMARK    2  A    between atoms: CAS_7  and  CAO_8 
REMARK    3  A    between atoms: CAO_8  and  CAP_9 
REMARK    4  A    between atoms: CAP_9  and  OBB_10 
REMARK    5  A    between atoms: OBB_10  and  CBH_11 
REMARK    6  A    between atoms: CBG_13  and  OAZ_14 
REMARK    7  A    between atoms: C6_22  and  NAY_23 
REMARK    8  A    between atoms: NAY_23  and  CBE_24 
REMARK    9  A    between atoms: CBD_29  and  NAX_30 
REMARK       I    between atoms: NAX_30  and  CBC_31 
REMARK   10  A    between atoms: CBC_31  and  CBF_33 
ROOT
HETATM    1  CBH   D T1356       1.247   5.005  10.554  1.00 30.53     0.118 A 
HETATM    2  CAM   D T1356       1.623   3.724  10.973  1.00 29.88     0.045 A 
HETATM    3  CBG   D T1356      -0.120   5.347  10.521  1.00 30.48     0.117 A 
HETATM    4  CAN   D T1356      -1.093   4.418  10.890  1.00 29.67     0.031 A 
HETATM    5  C5    D T1356      -0.720   3.139  11.313  1.00 29.79     0.056 A 
HETATM    6  C4    D T1356       0.643   2.799  11.352  1.00 29.99     0.088 A 
HETATM    7  N3    D T1356       1.020   1.574  11.753  1.00 29.16    -0.224 NA
HETATM    8  C2    D T1356       0.065   0.624  12.137  1.00 30.02     0.200 A 
HETATM    9  N1    D T1356      -1.298   0.963  12.105  1.00 29.74    -0.205 NA
HETATM   10  C6    D T1356      -1.680   2.188  11.701  1.00 29.94     0.166 A 
ENDROOT
BRANCH  10  11
HETATM   11  NAY   D T1356      -2.986   2.558  11.640  1.00 31.31    -0.227 NA
BRANCH  11  12
HETATM   12  CBE   D T1356      -3.950   1.662  11.292  1.00 32.67     0.083 A 
HETATM   13  CAK   D T1356      -4.203   1.418   9.941  1.00 33.73     0.021 A 
HETATM   14  CAI   D T1356      -5.179   0.498   9.549  1.00 34.14     0.021 A 
HETATM   15  CBD   D T1356      -5.910  -0.217  10.508  1.00 33.99     0.085 A 
HETATM   16  CAH   D T1356      -5.661   0.027  11.857  1.00 33.61     0.021 A 
HETATM   17  CAJ   D T1356      -4.686   0.949  12.244  1.00 33.42     0.021 A 
BRANCH  15  18
HETATM   18  NAX   D T1356      -6.885  -1.101  10.181  1.00 34.41    -0.208 NA
HETATM   19  CBC   D T1356      -8.174  -0.718  10.016  1.00 37.04     0.279 C 
HETATM   20  OAB   D T1356      -8.586   0.441  10.126  1.00 38.15    -0.265 OA
BRANCH  19  21
HETATM   21  CBF   D T1356      -9.054  -1.757   9.703  1.00 37.03     0.058 A 
HETATM   22  CAF   D T1356     -10.372  -1.470   9.343  1.00 38.06     0.005 A 
HETATM   23  CAD   D T1356     -11.254  -2.502   9.038  1.00 38.28     0.000 A 
HETATM   24  CAC   D T1356     -10.826  -3.829   9.095  1.00 38.02     0.000 A 
HETATM   25  CAE   D T1356      -9.512  -4.117   9.449  1.00 37.90     0.000 A 
HETATM   26  CAG   D T1356      -8.631  -3.085   9.760  1.00 37.23     0.005 A 
ENDBRANCH  19  21
ENDBRANCH  15  18
ENDBRANCH  11  12
ENDBRANCH  10  11
BRANCH   3  27
HETATM   27  OAZ   D T1356      -0.491   6.599  10.088  1.00 30.66    -0.326 OA
HETATM   28  CAA   D T1356      -1.839   6.749   9.635  1.00 33.36     0.181 C 
ENDBRANCH   3  27
BRANCH   1  29
HETATM   29  OBB   D T1356       2.137   5.975  10.163  1.00 30.55    -0.329 OA
BRANCH  29  30
HETATM   30  CAP   D T1356       3.001   6.582  11.150  1.00 33.72     0.151 C 
BRANCH  30  31
HETATM   31  CAO   D T1356       2.396   7.925  11.596  1.00 37.07     0.068 C 
BRANCH  31  32
HETATM   32  CAS   D T1356       2.688   8.983  10.521  1.00 39.71     0.253 C 
BRANCH  32  33
HETATM   33  NBL   D T1356       1.664   9.209   9.472  1.00 41.70     0.142 N 
HETATM   34  CAT   D T1356       2.119   8.945   8.088  1.00 43.12     0.282 C 
HETATM   35  CAQ   D T1356       0.935   9.084   7.107  1.00 43.52     0.178 C 
HETATM   36  OBA   D T1356      -0.309   9.349   7.847  1.00 44.22    -0.350 OA
HETATM   37  CAR   D T1356      -0.246  10.556   8.682  1.00 43.52     0.178 C 
HETATM   38  CAU   D T1356       1.027  10.542   9.554  1.00 42.73     0.282 C 
ENDBRANCH  32  33
ENDBRANCH  31  32
ENDBRANCH  30  31
ENDBRANCH  29  30
ENDBRANCH   1  29
TORSDOF 10
ENDMDL
MODEL 5
REMARK VINA RESULT:    -7.094      2.266     11.756
REMARK INTER + INTRA:         -12.831
REMARK INTER:                 -11.882
REMARK INTRA:                  -0.950
REMARK UNBOUND:                -1.590
REMARK  10 active torsions:
REMARK  status: ('A' for Active; 'I' for Inactive)
REMARK    1  A    between atoms: NBL_6  and  CAS_7 
REMARK    2  A    between atoms: CAS_7  and  CAO_8 
REMARK    3  A    between atoms: CAO_8  and  CAP_9 
REMARK    4  A    between atoms: CAP_9  and  OBB_10 
REMARK    5  A    between atoms: OBB_10  and  CBH_11 
REMARK    6  A    between atoms: CBG_13  and  OAZ_14 
REMARK    7  A    between atoms: C6_22  and  NAY_23 
REMARK    8  A    between atoms: NAY_23  and  CBE_24 
REMARK    9  A    between atoms: CBD_29  and  NAX_30 
REMARK       I    between atoms: NAX_30  and  CBC_31 
REMARK   10  A    between atoms: CBC_31  and  CBF_33 
ROOT
HETATM    1  CBH   D T1356      -4.322  -0.998  11.410  1.00 30.53     0.118 A 
HETATM    2  CAM   D T1356      -5.431  -0.160  11.247  1.00 29.88     0.045 A 
HETATM    3  CBG   D T1356      -3.066  -0.431  11.706  1.00 30.48     0.117 A 
HETATM    4  CAN   D T1356      -2.922   0.951  11.826  1.00 29.67     0.031 A 
HETATM    5  C5    D T1356      -4.029   1.791  11.669  1.00 29.79     0.056 A 
HETATM    6  C4    D T1356      -5.283   1.226  11.380  1.00 29.99     0.088 A 
HETATM    7  N3    D T1356      -6.357   2.016  11.223  1.00 29.16    -0.224 NA
HETATM    8  C2    D T1356      -6.243   3.407  11.345  1.00 30.02     0.200 A 
HETATM    9  N1    D T1356      -4.992   3.974  11.640  1.00 29.74    -0.205 NA
HETATM   10  C6    D T1356      -3.913   3.186  11.796  1.00 29.94     0.166 A 
ENDROOT
BRANCH  10  11
HETATM   11  NAY   D T1356      -2.680   3.688  12.069  1.00 31.31    -0.227 NA
BRANCH  11  12
HETATM   12  CBE   D T1356      -2.207   4.777  11.404  1.00 32.67     0.083 A 
HETATM   13  CAK   D T1356      -1.288   5.618  12.033  1.00 33.73     0.021 A 
HETATM   14  CAI   D T1356      -0.775   6.740  11.376  1.00 34.14     0.021 A 
HETATM   15  CBD   D T1356      -1.158   7.031  10.058  1.00 33.99     0.085 A 
HETATM   16  CAH   D T1356      -2.078   6.194   9.430  1.00 33.61     0.021 A 
HETATM   17  CAJ   D T1356      -2.589   5.075  10.091  1.00 33.42     0.021 A 
BRANCH  15  18
HETATM   18  NAX   D T1356      -0.712   8.120   9.386  1.00 34.41    -0.208 NA
HETATM   19  CBC   D T1356       0.491   8.134   8.762  1.00 37.04     0.279 C 
HETATM   20  OAB   D T1356       1.279   7.184   8.725  1.00 38.15    -0.265 OA
BRANCH  19  21
HETATM   21  CBF   D T1356       0.807   9.342   8.135  1.00 37.03     0.058 A 
HETATM   22  CAF   D T1356      -0.212  10.220   7.759  1.00 38.06     0.005 A 
HETATM   23  CAD   D T1356       0.097  11.421   7.128  1.00 38.28     0.000 A 
HETATM   24  CAC   D T1356       1.426  11.751   6.864  1.00 38.02     0.000 A 
HETATM   25  CAE   D T1356       2.444  10.881   7.243  1.00 37.90     0.000 A 
HETATM   26  CAG   D T1356       2.134   9.676   7.869  1.00 37.23     0.005 A 
ENDBRANCH  19  21
ENDBRANCH  15  18
ENDBRANCH  11  12
ENDBRANCH  10  11
BRANCH   3  27
HETATM   27  OAZ   D T1356      -1.971  -1.253  11.843  1.00 30.66    -0.326 OA
HETATM   28  CAA   D T1356      -0.687  -0.640  11.709  1.00 33.36     0.181 C 
ENDBRANCH   3  27
BRANCH   1  29
HETATM   29  OBB   D T1356      -4.373  -2.366  11.298  1.00 30.55    -0.329 OA
BRANCH  29  30
HETATM   30  CAP   D T1356      -4.224  -2.976   9.996  1.00 33.72     0.151 C 
BRANCH  30  31
HETATM   31  CAO   D T1356      -5.615  -3.341   9.446  1.00 37.07     0.068 C 
BRANCH  31  32
HETATM   32  CAS   D T1356      -6.595  -3.472  10.621  1.00 39.71     0.253 C 
BRANCH  32  33
HETATM   33  NBL   D T1356      -8.046  -3.506  10.315  1.00 41.70     0.142 N 
HETATM   34  CAT   D T1356      -8.481  -4.648   9.479  1.00 43.12     0.282 C 
HETATM   35  CAQ   D T1356     -10.018  -4.648   9.343  1.00 43.52     0.178 C 
HETATM   36  OBA   D T1356     -10.600  -3.570  10.158  1.00 44.22    -0.350 OA
HETATM   37  CAR   D T1356     -10.098  -2.235   9.805  1.00 43.52     0.178 C 
HETATM   38  CAU   D T1356      -8.557  -2.237   9.751  1.00 42.73     0.282 C 
ENDBRANCH  32  33
ENDBRANCH  31  32
ENDBRANCH  30  31
ENDBRANCH  29  30
ENDBRANCH   1  29
TORSDOF 10
ENDMDL
MODEL 6
REMARK VINA RESULT:    -6.952      1.966      2.996
REMARK INTER + INTRA:         -12.607
REMARK INTER:                 -11.489
REMARK INTRA:                  -1.118
REMARK UNBOUND:                -1.590
REMARK  10 active torsions:
REMARK  status: ('A' for Active; 'I' for Inactive)
REMARK    1  A    between atoms: NBL_6  and  CAS_7 
REMARK    2  A    between atoms: CAS_7  and  CAO_8 
REMARK    3  A    between atoms: CAO_8  and  CAP_9 
REMARK    4  A    between atoms: CAP_9  and  OBB_10 
REMARK    5  A    between atoms: OBB_10  and  CBH_11 
REMARK    6  A    between atoms: CBG_13  and  OAZ_14 
REMARK    7  A    between atoms: C6_22  and  NAY_23 
REMARK    8  A    between atoms: NAY_23  and  CBE_24 
REMARK    9  A    between atoms: CBD_29  and  NAX_30 
REMARK       I    between atoms: NAX_30  and  CBC_31 
REMARK   10  A    between atoms: CBC_31  and  CBF_33 
ROOT
HETATM    1  CBH   D T1356       1.043   3.046   9.950  1.00 30.53     0.118 A 
HETATM    2  CAM   D T1356       1.487   1.727   9.810  1.00 29.88     0.045 A 
HETATM    3  CBG   D T1356      -0.167   3.299  10.627  1.00 30.48     0.117 A 
HETATM    4  CAN   D T1356      -0.923   2.248  11.145  1.00 29.67     0.031 A 
HETATM    5  C5    D T1356      -0.480   0.929  11.011  1.00 29.79     0.056 A 
HETATM    6  C4    D T1356       0.730   0.676  10.341  1.00 29.99     0.088 A 
HETATM    7  N3    D T1356       1.170  -0.584  10.201  1.00 29.16    -0.224 NA
HETATM    8  C2    D T1356       0.435  -1.659  10.717  1.00 30.02     0.200 A 
HETATM    9  N1    D T1356      -0.771  -1.409  11.393  1.00 29.74    -0.205 NA
HETATM   10  C6    D T1356      -1.218  -0.148  11.534  1.00 29.94     0.166 A 
ENDROOT
BRANCH  10  11
HETATM   11  NAY   D T1356      -2.385   0.144  12.167  1.00 31.31    -0.227 NA
BRANCH  11  12
HETATM   12  CBE   D T1356      -3.578  -0.256  11.649  1.00 32.67     0.083 A 
HETATM   13  CAK   D T1356      -4.710   0.537  11.847  1.00 33.73     0.021 A 
HETATM   14  CAI   D T1356      -5.950   0.161  11.321  1.00 34.14     0.021 A 
HETATM   15  CBD   D T1356      -6.075  -1.012  10.562  1.00 33.99     0.085 A 
HETATM   16  CAH   D T1356      -4.947  -1.805  10.366  1.00 33.61     0.021 A 
HETATM   17  CAJ   D T1356      -3.711  -1.427  10.895  1.00 33.42     0.021 A 
BRANCH  15  18
HETATM   18  NAX   D T1356      -7.258  -1.435  10.053  1.00 34.41    -0.208 NA
HETATM   19  CBC   D T1356      -8.024  -2.355  10.687  1.00 37.04     0.279 C 
HETATM   20  OAB   D T1356      -7.747  -2.880  11.769  1.00 38.15    -0.265 OA
BRANCH  19  21
HETATM   21  CBF   D T1356      -9.200  -2.695  10.014  1.00 37.03     0.058 A 
HETATM   22  CAF   D T1356     -10.102  -1.698   9.638  1.00 38.06     0.005 A 
HETATM   23  CAD   D T1356     -11.279  -2.033   8.974  1.00 38.28     0.000 A 
HETATM   24  CAC   D T1356     -11.564  -3.367   8.685  1.00 38.02     0.000 A 
HETATM   25  CAE   D T1356     -10.664  -4.363   9.053  1.00 37.90     0.000 A 
HETATM   26  CAG   D T1356      -9.490  -4.028   9.723  1.00 37.23     0.005 A 
ENDBRANCH  19  21
ENDBRANCH  15  18
ENDBRANCH  11  12
ENDBRANCH  10  11
BRANCH   3  27
HETATM   27  OAZ   D T1356      -0.615   4.594  10.744  1.00 30.66    -0.326 OA
HETATM   28  CAA   D T1356      -0.577   5.173  12.051  1.00 33.36     0.181 C 
ENDBRANCH   3  27
BRANCH   1  29
HETATM   29  OBB   D T1356       1.719   4.137   9.461  1.00 30.55    -0.329 OA
BRANCH  29  30
HETATM   30  CAP   D T1356       2.996   4.494  10.034  1.00 33.72     0.151 C 
BRANCH  30  31
HETATM   31  CAO   D T1356       2.987   5.989  10.401  1.00 37.07     0.068 C 
BRANCH  31  32
HETATM   32  CAS   D T1356       2.998   6.818   9.108  1.00 39.71     0.253 C 
BRANCH  32  33
HETATM   33  NBL   D T1356       1.782   7.598   8.773  1.00 41.70     0.142 N 
HETATM   34  CAT   D T1356       1.985   8.671   7.772  1.00 43.12     0.282 C 
HETATM   35  CAQ   D T1356       0.631   9.318   7.409  1.00 43.52     0.178 C 
HETATM   36  OBA   D T1356      -0.466   8.619   8.096  1.00 44.22    -0.350 OA
HETATM   37  CAR   D T1356      -0.328   8.608   9.558  1.00 43.52     0.178 C 
HETATM   38  CAU   D T1356       1.084   8.136   9.962  1.00 42.73     0.282 C 
ENDBRANCH  32  33
ENDBRANCH  31  32
ENDBRANCH  30  31
ENDBRANCH  29  30
ENDBRANCH   1  29
TORSDOF 10
ENDMDL
MODEL 7
REMARK VINA RESULT:    -6.791      5.797     10.624
REMARK INTER + INTRA:         -12.351
REMARK INTER:                 -11.205
REMARK INTRA:                  -1.146
REMARK UNBOUND:                -1.590
REMARK  10 active torsions:
REMARK  status: ('A' for Active; 'I' for Inactive)
REMARK    1  A    between atoms: NBL_6  and  CAS_7 
REMARK    2  A    between atoms: CAS_7  and  CAO_8 
REMARK    3  A    between atoms: CAO_8  and  CAP_9 
REMARK    4  A    between atoms: CAP_9  and  OBB_10 
REMARK    5  A    between atoms: OBB_10  and  CBH_11 
REMARK    6  A    between atoms: CBG_13  and  OAZ_14 
REMARK    7  A    between atoms: C6_22  and  NAY_23 
REMARK    8  A    between atoms: NAY_23  and  CBE_24 
REMARK    9  A    between atoms: CBD_29  and  NAX_30 
REMARK       I    between atoms: NAX_30  and  CBC_31 
REMARK   10  A    between atoms: CBC_31  and  CBF_33 
ROOT
HETATM    1  CBH   D T1356      -3.735   0.376   9.797  1.00 30.53     0.118 A 
HETATM    2  CAM   D T1356      -3.557  -0.809   9.073  1.00 29.88     0.045 A 
HETATM    3  CBG   D T1356      -2.945   0.612  10.940  1.00 30.48     0.117 A 
HETATM    4  CAN   D T1356      -2.001  -0.327  11.357  1.00 29.67     0.031 A 
HETATM    5  C5    D T1356      -1.818  -1.510  10.634  1.00 29.79     0.056 A 
HETATM    6  C4    D T1356      -2.601  -1.743   9.489  1.00 29.99     0.088 A 
HETATM    7  N3    D T1356      -2.441  -2.874   8.784  1.00 29.16    -0.224 NA
HETATM    8  C2    D T1356      -1.496  -3.831   9.175  1.00 30.02     0.200 A 
HETATM    9  N1    D T1356      -0.708  -3.598  10.313  1.00 29.74    -0.205 NA
HETATM   10  C6    D T1356      -0.866  -2.468  11.025  1.00 29.94     0.166 A 
ENDROOT
BRANCH  10  11
HETATM   11  NAY   D T1356      -0.137  -2.203  12.141  1.00 31.31    -0.227 NA
BRANCH  11  12
HETATM   12  CBE   D T1356      -0.639  -2.460  13.380  1.00 32.67     0.083 A 
HETATM   13  CAK   D T1356      -0.477  -1.514  14.394  1.00 33.73     0.021 A 
HETATM   14  CAI   D T1356      -0.989  -1.742  15.675  1.00 34.14     0.021 A 
HETATM   15  CBD   D T1356      -1.697  -2.918  15.961  1.00 33.99     0.085 A 
HETATM   16  CAH   D T1356      -1.857  -3.864  14.950  1.00 33.61     0.021 A 
HETATM   17  CAJ   D T1356      -1.343  -3.633  13.673  1.00 33.42     0.021 A 
BRANCH  15  18
HETATM   18  NAX   D T1356      -2.190  -3.199  17.192  1.00 34.41    -0.208 NA
HETATM   19  CBC   D T1356      -1.381  -3.489  18.239  1.00 37.04     0.279 C 
HETATM   20  OAB   D T1356      -0.147  -3.513  18.194  1.00 38.15    -0.265 OA
BRANCH  19  21
HETATM   21  CBF   D T1356      -2.052  -3.777  19.430  1.00 37.03     0.058 A 
HETATM   22  CAF   D T1356      -2.108  -2.821  20.447  1.00 38.06     0.005 A 
HETATM   23  CAD   D T1356      -2.770  -3.106  21.639  1.00 38.28     0.000 A 
HETATM   24  CAC   D T1356      -3.376  -4.349  21.823  1.00 38.02     0.000 A 
HETATM   25  CAE   D T1356      -3.326  -5.301  20.809  1.00 37.90     0.000 A 
HETATM   26  CAG   D T1356      -2.659  -5.018  19.620  1.00 37.23     0.005 A 
ENDBRANCH  19  21
ENDBRANCH  15  18
ENDBRANCH  11  12
ENDBRANCH  10  11
BRANCH   3  27
HETATM   27  OAZ   D T1356      -3.136   1.765  11.665  1.00 30.66    -0.326 OA
HETATM   28  CAA   D T1356      -4.061   1.697  12.752  1.00 33.36     0.181 C 
ENDBRANCH   3  27
BRANCH   1  29
HETATM   29  OBB   D T1356      -4.647   1.347   9.464  1.00 30.55    -0.329 OA
BRANCH  29  30
HETATM   30  CAP   D T1356      -5.970   0.958   9.032  1.00 33.72     0.151 C 
BRANCH  30  31
HETATM   31  CAO   D T1356      -6.791   0.509  10.255  1.00 37.07     0.068 C 
BRANCH  31  32
HETATM   32  CAS   D T1356      -8.282   0.524   9.885  1.00 39.71     0.253 C 
BRANCH  32  33
HETATM   33  NBL   D T1356      -8.992  -0.775   9.810  1.00 41.70     0.142 N 
HETATM   34  CAT   D T1356      -8.128  -1.945   9.532  1.00 43.12     0.282 C 
HETATM   35  CAQ   D T1356      -8.956  -3.245   9.612  1.00 43.52     0.178 C 
HETATM   36  OBA   D T1356     -10.334  -2.945  10.028  1.00 44.22    -0.350 OA
HETATM   37  CAR   D T1356     -11.023  -2.004   9.135  1.00 43.52     0.178 C 
HETATM   38  CAU   D T1356     -10.145  -0.761   8.882  1.00 42.73     0.282 C 
ENDBRANCH  32  33
ENDBRANCH  31  32
ENDBRANCH  30  31
ENDBRANCH  29  30
ENDBRANCH   1  29
TORSDOF 10
ENDMDL
MODEL 8
REMARK VINA RESULT:    -6.781      2.734      4.134
REMARK INTER + INTRA:         -12.336
REMARK INTER:                 -10.635
REMARK INTRA:                  -1.701
REMARK UNBOUND:                -1.590
REMARK  10 active torsions:
REMARK  status: ('A' for Active; 'I' for Inactive)
REMARK    1  A    between atoms: NBL_6  and  CAS_7 
REMARK    2  A    between atoms: CAS_7  and  CAO_8 
REMARK    3  A    between atoms: CAO_8  and  CAP_9 
REMARK    4  A    between atoms: CAP_9  and  OBB_10 
REMARK    5  A    between atoms: OBB_10  and  CBH_11 
REMARK    6  A    between atoms: CBG_13  and  OAZ_14 
REMARK    7  A    between atoms: C6_22  and  NAY_23 
REMARK    8  A    between atoms: NAY_23  and  CBE_24 
REMARK    9  A    between atoms: CBD_29  and  NAX_30 
REMARK       I    between atoms: NAX_30  and  CBC_31 
REMARK   10  A    between atoms: CBC_31  and  CBF_33 
ROOT
HETATM    1  CBH   D T1356       2.119   2.024  12.391  1.00 30.53     0.118 A 
HETATM    2  CAM   D T1356       1.952   0.963  13.288  1.00 29.88     0.045 A 
HETATM    3  CBG   D T1356       1.551   1.937  11.104  1.00 30.48     0.117 A 
HETATM    4  CAN   D T1356       0.839   0.801  10.719  1.00 29.67     0.031 A 
HETATM    5  C5    D T1356       0.666  -0.259  11.613  1.00 29.79     0.056 A 
HETATM    6  C4    D T1356       1.226  -0.170  12.900  1.00 29.99     0.088 A 
HETATM    7  N3    D T1356       1.073  -1.180  13.771  1.00 29.16    -0.224 NA
HETATM    8  C2    D T1356       0.356  -2.329  13.414  1.00 30.02     0.200 A 
HETATM    9  N1    D T1356      -0.210  -2.417  12.131  1.00 29.74    -0.205 NA
HETATM   10  C6    D T1356      -0.057  -1.410  11.254  1.00 29.94     0.166 A 
ENDROOT
BRANCH  10  11
HETATM   11  NAY   D T1356      -0.575  -1.455   9.997  1.00 31.31    -0.227 NA
BRANCH  11  12
HETATM   12  CBE   D T1356      -1.921  -1.448   9.797  1.00 32.67     0.083 A 
HETATM   13  CAK   D T1356      -2.565  -2.632   9.430  1.00 33.73     0.021 A 
HETATM   14  CAI   D T1356      -3.947  -2.662   9.226  1.00 34.14     0.021 A 
HETATM   15  CBD   D T1356      -4.720  -1.506   9.407  1.00 33.99     0.085 A 
HETATM   16  CAH   D T1356      -4.078  -0.324   9.770  1.00 33.61     0.021 A 
HETATM   17  CAJ   D T1356      -2.697  -0.297   9.972  1.00 33.42     0.021 A 
BRANCH  15  18
HETATM   18  NAX   D T1356      -6.059  -1.476   9.196  1.00 34.41    -0.208 NA
HETATM   19  CBC   D T1356      -6.943  -1.864  10.146  1.00 37.04     0.279 C 
HETATM   20  OAB   D T1356      -6.639  -2.259  11.276  1.00 38.15    -0.265 OA
BRANCH  19  21
HETATM   21  CBF   D T1356      -8.283  -1.791   9.757  1.00 37.03     0.058 A 
HETATM   22  CAF   D T1356      -8.786  -0.611   9.206  1.00 38.06     0.005 A 
HETATM   23  CAD   D T1356     -10.123  -0.532   8.823  1.00 38.28     0.000 A 
HETATM   24  CAC   D T1356     -10.966  -1.630   8.994  1.00 38.02     0.000 A 
HETATM   25  CAE   D T1356     -10.466  -2.809   9.538  1.00 37.90     0.000 A 
HETATM   26  CAG   D T1356      -9.130  -2.886   9.927  1.00 37.23     0.005 A 
ENDBRANCH  19  21
ENDBRANCH  15  18
ENDBRANCH  11  12
ENDBRANCH  10  11
BRANCH   3  27
HETATM   27  OAZ   D T1356       1.735   2.970  10.215  1.00 30.66    -0.326 OA
HETATM   28  CAA   D T1356       2.355   2.644   8.969  1.00 33.36     0.181 C 
ENDBRANCH   3  27
BRANCH   1  29
HETATM   29  OBB   D T1356       2.814   3.171  12.685  1.00 30.55    -0.329 OA
BRANCH  29  30
HETATM   30  CAP   D T1356       2.530   3.877  13.914  1.00 33.72     0.151 C 
BRANCH  30  31
HETATM   31  CAO   D T1356       1.479   4.968  13.641  1.00 37.07     0.068 C 
BRANCH  31  32
HETATM   32  CAS   D T1356       1.894   5.756  12.390  1.00 39.71     0.253 C 
BRANCH  32  33
HETATM   33  NBL   D T1356       0.821   6.348  11.554  1.00 41.70     0.142 N 
HETATM   34  CAT   D T1356       0.931   7.810  11.341  1.00 43.12     0.282 C 
HETATM   35  CAQ   D T1356      -0.156   8.283  10.353  1.00 43.52     0.178 C 
HETATM   36  OBA   D T1356      -0.920   7.131   9.849  1.00 44.22    -0.350 OA
HETATM   37  CAR   D T1356      -1.561   6.344  10.911  1.00 43.52     0.178 C 
HETATM   38  CAU   D T1356      -0.541   6.002  12.017  1.00 42.73     0.282 C 
ENDBRANCH  32  33
ENDBRANCH  31  32
ENDBRANCH  30  31
ENDBRANCH  29  30
ENDBRANCH   1  29
TORSDOF 10
ENDMDL
MODEL 9
REMARK VINA RESULT:    -6.765      4.279      6.553
REMARK INTER + INTRA:         -12.309
REMARK INTER:                 -10.214
REMARK INTRA:                  -2.095
REMARK UNBOUND:                -1.590
REMARK  10 active torsions:
REMARK  status: ('A' for Active; 'I' for Inactive)
REMARK    1  A    between atoms: NBL_6  and  CAS_7 
REMARK    2  A    between atoms: CAS_7  and  CAO_8 
REMARK    3  A    between atoms: CAO_8  and  CAP_9 
REMARK    4  A    between atoms: CAP_9  and  OBB_10 
REMARK    5  A    between atoms: OBB_10  and  CBH_11 
REMARK    6  A    between atoms: CBG_13  and  OAZ_14 
REMARK    7  A    between atoms: C6_22  and  NAY_23 
REMARK    8  A    between atoms: NAY_23  and  CBE_24 
REMARK    9  A    between atoms: CBD_29  and  NAX_30 
REMARK       I    between atoms: NAX_30  and  CBC_31 
REMARK   10  A    between atoms: CBC_31  and  CBF_33 
ROOT
HETATM    1  CBH   D T1356       1.780   0.492  12.096  1.00 30.53     0.118 A 
HETATM    2  CAM   D T1356       1.081   1.548  12.691  1.00 29.88     0.045 A 
HETATM    3  CBG   D T1356       1.306  -0.055  10.886  1.00 30.48     0.117 A 
HETATM    4  CAN   D T1356       0.147   0.440  10.290  1.00 29.67     0.031 A 
HETATM    5  C5    D T1356      -0.552   1.498  10.879  1.00 29.79     0.056 A 
HETATM    6  C4    D T1356      -0.077   2.048  12.083  1.00 29.99     0.088 A 
HETATM    7  N3    D T1356      -0.736   3.063  12.665  1.00 29.16    -0.224 NA
HETATM    8  C2    D T1356      -1.899   3.585  12.084  1.00 30.02     0.200 A 
HETATM    9  N1    D T1356      -2.372   3.041  10.879  1.00 29.74    -0.205 NA
HETATM   10  C6    D T1356      -1.717   2.023  10.293  1.00 29.94     0.166 A 
ENDROOT
BRANCH  10  11
HETATM   11  NAY   D T1356      -2.143   1.455   9.134  1.00 31.31    -0.227 NA
BRANCH  11  12
HETATM   12  CBE   D T1356      -3.243   0.654   9.113  1.00 32.67     0.083 A 
HETATM   13  CAK   D T1356      -4.513   1.234   9.084  1.00 33.73     0.021 A 
HETATM   14  CAI   D T1356      -5.663   0.441   9.053  1.00 34.14     0.021 A 
HETATM   15  CBD   D T1356      -5.564  -0.958   9.027  1.00 33.99     0.085 A 
HETATM   16  CAH   D T1356      -4.297  -1.538   9.060  1.00 33.61     0.021 A 
HETATM   17  CAJ   D T1356      -3.151  -0.742   9.093  1.00 33.42     0.021 A 
BRANCH  15  18
HETATM   18  NAX   D T1356      -6.647  -1.772   9.024  1.00 34.41    -0.208 NA
HETATM   19  CBC   D T1356      -7.160  -2.288  10.166  1.00 37.04     0.279 C 
HETATM   20  OAB   D T1356      -6.722  -2.069  11.300  1.00 38.15    -0.265 OA
BRANCH  19  21
HETATM   21  CBF   D T1356      -8.263  -3.126   9.982  1.00 37.03     0.058 A 
HETATM   22  CAF   D T1356      -9.515  -2.577   9.696  1.00 38.06     0.005 A 
HETATM   23  CAD   D T1356     -10.619  -3.407   9.519  1.00 38.28     0.000 A 
HETATM   24  CAC   D T1356     -10.480  -4.790   9.631  1.00 38.02     0.000 A 
HETATM   25  CAE   D T1356      -9.232  -5.340   9.910  1.00 37.90     0.000 A 
HETATM   26  CAG   D T1356      -8.129  -4.509  10.094  1.00 37.23     0.005 A 
ENDBRANCH  19  21
ENDBRANCH  15  18
ENDBRANCH  11  12
ENDBRANCH  10  11
BRANCH   3  27
HETATM   27  OAZ   D T1356       1.980  -1.108  10.313  1.00 30.66    -0.326 OA
HETATM   28  CAA   D T1356       1.281  -2.352  10.231  1.00 33.36     0.181 C 
ENDBRANCH   3  27
BRANCH   1  29
HETATM   29  OBB   D T1356       2.922  -0.062  12.620  1.00 30.55    -0.329 OA
BRANCH  29  30
HETATM   30  CAP   D T1356       2.840  -1.324  13.321  1.00 33.72     0.151 C 
BRANCH  30  31
HETATM   31  CAO   D T1356       1.937  -1.159  14.557  1.00 37.07     0.068 C 
BRANCH  31  32
HETATM   32  CAS   D T1356       0.978  -2.357  14.634  1.00 39.71     0.253 C 
BRANCH  32  33
HETATM   33  NBL   D T1356      -0.148  -2.408  13.671  1.00 41.70     0.142 N 
HETATM   34  CAT   D T1356      -1.098  -1.276  13.760  1.00 43.12     0.282 C 
HETATM   35  CAQ   D T1356      -2.141  -1.371  12.627  1.00 43.52     0.178 C 
HETATM   36  OBA   D T1356      -1.829  -2.506  11.743  1.00 44.22    -0.350 OA
HETATM   37  CAR   D T1356      -1.778  -3.795  12.444  1.00 43.52     0.178 C 
HETATM   38  CAU   D T1356      -0.882  -3.693  13.695  1.00 42.73     0.282 C 
ENDBRANCH  32  33
ENDBRANCH  31  32
ENDBRANCH  30  31
ENDBRANCH  29  30
ENDBRANCH   1  29
TORSDOF 10
ENDMDL
