MODEL 1
REMARK VINA RESULT:      -8.5      0.000      0.000
REMARK  10 active torsions:
REMARK  status: ('A' for Active; 'I' for Inactive)
REMARK    1  A    between atoms: NBL_6  and  CAS_7 
REMARK    2  A    between atoms: CAS_7  and  CAO_8 
REMARK    3  A    between atoms: CAO_8  and  CAP_9 
REMARK    4  A    between atoms: CAP_9  and  OBB_10 
REMARK    5  A    between atoms: OBB_10  and  CBH_11 
REMARK    6  A    between atoms: CBG_13  and  OAZ_14 
REMARK    7  A    between atoms: C6_22  and  NAY_23 
REMARK    8  A    between atoms: NAY_23  and  CBE_24 
REMARK    9  A    between atoms: CBD_29  and  NAX_30 
REMARK       I    between atoms: NAX_30  and  CBC_31 
REMARK   10  A    between atoms: CBC_31  and  CBF_33 
ROOT
HETATM    1  CBH   D T1356      11.466  -3.073   5.118  1.00 30.53     0.118 A 
HETATM    2  CAM   D T1356      10.191  -3.060   4.540  1.00 29.88     0.045 A 
HETATM    3  CBG   D T1356      12.069  -1.854   5.488  1.00 30.48     0.117 A 
HETATM    4  CAN   D T1356      11.412  -0.643   5.273  1.00 29.67     0.031 A 
HETATM    5  C5    D T1356      10.137  -0.625   4.699  1.00 29.79     0.056 A 
HETATM    6  C4    D T1356       9.532  -1.841   4.336  1.00 29.99     0.088 A 
HETATM    7  N3    D T1356       8.309  -1.844   3.781  1.00 29.16    -0.224 NA
HETATM    8  C2    D T1356       7.624  -0.644   3.560  1.00 30.02     0.200 A 
HETATM    9  N1    D T1356       8.223   0.572   3.929  1.00 29.74    -0.205 NA
HETATM   10  C6    D T1356       9.449   0.581   4.482  1.00 29.94     0.166 A 
ENDROOT
BRANCH  10  11
HETATM   11  NAY   D T1356      10.076   1.731   4.842  1.00 31.31    -0.227 NA
BRANCH  11  12
HETATM   12  CBE   D T1356       9.386   2.748   5.427  1.00 32.67     0.083 A 
HETATM   13  CAK   D T1356       8.957   2.614   6.748  1.00 33.73     0.021 A 
HETATM   14  CAI   D T1356       8.254   3.642   7.382  1.00 34.14     0.021 A 
HETATM   15  CBD   D T1356       7.985   4.843   6.708  1.00 33.99     0.085 A 
HETATM   16  CAH   D T1356       8.411   4.977   5.387  1.00 33.61     0.021 A 
HETATM   17  CAJ   D T1356       9.111   3.946   4.758  1.00 33.42     0.021 A 
BRANCH  15  18
HETATM   18  NAX   D T1356       7.285   5.860   7.266  1.00 34.41    -0.208 NA
HETATM   19  CBC   D T1356       5.945   5.979   7.108  1.00 37.04     0.279 C 
HETATM   20  OAB   D T1356       5.234   5.193   6.474  1.00 38.15    -0.265 OA
BRANCH  19  21
HETATM   21  CBF   D T1356       5.382   7.097   7.730  1.00 37.03     0.058 A 
HETATM   22  CAF   D T1356       4.271   6.947   8.563  1.00 38.06     0.005 A 
HETATM   23  CAD   D T1356       3.703   8.059   9.178  1.00 38.28     0.000 A 
HETATM   24  CAC   D T1356       4.239   9.328   8.963  1.00 38.02     0.000 A 
HETATM   25  CAE   D T1356       5.350   9.480   8.138  1.00 37.90     0.000 A 
HETATM   26  CAG   D T1356       5.914   8.368   7.517  1.00 37.23     0.005 A 
ENDBRANCH  19  21
ENDBRANCH  15  18
ENDBRANCH  11  12
ENDBRANCH  10  11
BRANCH   3  27
HETATM   27  OAZ   D T1356      13.331  -1.867   6.036  1.00 30.66    -0.326 OA
HETATM   28  CAA   D T1356      13.458  -1.373   7.372  1.00 33.36     0.181 C 
ENDBRANCH   3  27
BRANCH   1  29
HETATM   29  OBB   D T1356      12.186  -4.218   5.355  1.00 30.55    -0.329 OA
BRANCH  29  30
HETATM   30  CAP   D T1356      11.799  -5.448   4.701  1.00 33.72     0.151 C 
BRANCH  30  31
HETATM   31  CAO   D T1356      13.043  -6.336   4.514  1.00 37.07     0.068 C 
BRANCH  31  32
HETATM   32  CAS   D T1356      12.998  -7.474   5.544  1.00 39.71     0.253 C 
BRANCH  32  33
HETATM   33  NBL   D T1356      14.222  -8.291   5.729  1.00 41.70     0.142 N 
HETATM   34  CAT   D T1356      14.216  -9.593   5.022  1.00 43.12     0.282 C 
HETATM   35  CAQ   D T1356      15.585 -10.286   5.180  1.00 43.52     0.178 C 
HETATM   36  OBA   D T1356      16.518  -9.410   5.907  1.00 44.22    -0.350 OA
HETATM   37  CAR   D T1356      16.035  -9.018   7.237  1.00 43.52     0.178 C 
HETATM   38  CAU   D T1356      14.590  -8.484   7.149  1.00 42.73     0.282 C 
ENDBRANCH  32  33
ENDBRANCH  31  32
ENDBRANCH  30  31
ENDBRANCH  29  30
ENDBRANCH   1  29
TORSDOF 10
ENDMDL
MODEL 2
REMARK VINA RESULT:      -8.4      4.389      6.615
REMARK  10 active torsions:
REMARK  status: ('A' for Active; 'I' for Inactive)
REMARK    1  A    between atoms: NBL_6  and  CAS_7 
REMARK    2  A    between atoms: CAS_7  and  CAO_8 
REMARK    3  A    between atoms: CAO_8  and  CAP_9 
REMARK    4  A    between atoms: CAP_9  and  OBB_10 
REMARK    5  A    between atoms: OBB_10  and  CBH_11 
REMARK    6  A    between atoms: CBG_13  and  OAZ_14 
REMARK    7  A    between atoms: C6_22  and  NAY_23 
REMARK    8  A    between atoms: NAY_23  and  CBE_24 
REMARK    9  A    between atoms: CBD_29  and  NAX_30 
REMARK       I    between atoms: NAX_30  and  CBC_31 
REMARK   10  A    between atoms: CBC_31  and  CBF_33 
ROOT
HETATM    1  CBH   D T1356       7.985  -1.070   3.953  1.00 30.53     0.118 A 
HETATM    2  CAM   D T1356       8.949  -1.878   4.568  1.00 29.88     0.045 A 
HETATM    3  CBG   D T1356       8.269   0.291   3.724  1.00 30.48     0.117 A 
HETATM    4  CAN   D T1356       9.491   0.837   4.115  1.00 29.67     0.031 A 
HETATM    5  C5    D T1356      10.458   0.033   4.727  1.00 29.79     0.056 A 
HETATM    6  C4    D T1356      10.179  -1.327   4.949  1.00 29.99     0.088 A 
HETATM    7  N3    D T1356      11.094  -2.114   5.537  1.00 29.16    -0.224 NA
HETATM    8  C2    D T1356      12.332  -1.594   5.934  1.00 30.02     0.200 A 
HETATM    9  N1    D T1356      12.616  -0.238   5.706  1.00 29.74    -0.205 NA
HETATM   10  C6    D T1356      11.702   0.556   5.120  1.00 29.94     0.166 A 
ENDROOT
BRANCH  10  11
HETATM   11  NAY   D T1356      11.924   1.877   4.892  1.00 31.31    -0.227 NA
BRANCH  11  12
HETATM   12  CBE   D T1356      11.109   2.825   5.430  1.00 32.67     0.083 A 
HETATM   13  CAK   D T1356      11.075   2.994   6.815  1.00 33.73     0.021 A 
HETATM   14  CAI   D T1356      10.255   3.964   7.399  1.00 34.14     0.021 A 
HETATM   15  CBD   D T1356       9.465   4.804   6.601  1.00 33.99     0.085 A 
HETATM   16  CAH   D T1356       9.496   4.634   5.218  1.00 33.61     0.021 A 
HETATM   17  CAJ   D T1356      10.314   3.662   4.639  1.00 33.42     0.021 A 
BRANCH  15  18
HETATM   18  NAX   D T1356       8.634   5.742   7.117  1.00 34.41    -0.208 NA
HETATM   19  CBC   D T1356       7.355   5.455   7.460  1.00 37.04     0.279 C 
HETATM   20  OAB   D T1356       6.828   4.343   7.358  1.00 38.15    -0.265 OA
BRANCH  19  21
HETATM   21  CBF   D T1356       6.628   6.540   7.956  1.00 37.03     0.058 A 
HETATM   22  CAF   D T1356       6.329   7.620   7.122  1.00 38.06     0.005 A 
HETATM   23  CAD   D T1356       5.612   8.707   7.615  1.00 38.28     0.000 A 
HETATM   24  CAC   D T1356       5.192   8.723   8.944  1.00 38.02     0.000 A 
HETATM   25  CAE   D T1356       5.483   7.646   9.776  1.00 37.90     0.000 A 
HETATM   26  CAG   D T1356       6.207   6.562   9.285  1.00 37.23     0.005 A 
ENDBRANCH  19  21
ENDBRANCH  15  18
ENDBRANCH  11  12
ENDBRANCH  10  11
BRANCH   3  27
HETATM   27  OAZ   D T1356       7.312   1.089   3.140  1.00 30.66    -0.326 OA
HETATM   28  CAA   D T1356       6.574   1.951   4.010  1.00 33.36     0.181 C 
ENDBRANCH   3  27
BRANCH   1  29
HETATM   29  OBB   D T1356       6.754  -1.524   3.546  1.00 30.55    -0.329 OA
BRANCH  29  30
HETATM   30  CAP   D T1356       5.755  -1.850   4.540  1.00 33.72     0.151 C 
BRANCH  30  31
HETATM   31  CAO   D T1356       4.513  -2.428   3.837  1.00 37.07     0.068 C 
BRANCH  31  32
HETATM   32  CAS   D T1356       3.400  -2.619   4.878  1.00 39.71     0.253 C 
BRANCH  32  33
HETATM   33  NBL   D T1356       2.959  -4.002   5.178  1.00 41.70     0.142 N 
HETATM   34  CAT   D T1356       1.648  -4.106   5.860  1.00 43.12     0.282 C 
HETATM   35  CAQ   D T1356       1.238  -5.588   5.995  1.00 43.52     0.178 C 
HETATM   36  OBA   D T1356       2.225  -6.451   5.327  1.00 44.22    -0.350 OA
HETATM   37  CAR   D T1356       3.589  -6.292   5.849  1.00 43.52     0.178 C 
HETATM   38  CAU   D T1356       3.974  -4.799   5.901  1.00 42.73     0.282 C 
ENDBRANCH  32  33
ENDBRANCH  31  32
ENDBRANCH  30  31
ENDBRANCH  29  30
ENDBRANCH   1  29
TORSDOF 10
ENDMDL
MODEL 3
REMARK VINA RESULT:      -8.4      5.001     12.416
REMARK  10 active torsions:
REMARK  status: ('A' for Active; 'I' for Inactive)
REMARK    1  A    between atoms: NBL_6  and  CAS_7 
REMARK    2  A    between atoms: CAS_7  and  CAO_8 
REMARK    3  A    between atoms: CAO_8  and  CAP_9 
REMARK    4  A    between atoms: CAP_9  and  OBB_10 
REMARK    5  A    between atoms: OBB_10  and  CBH_11 
REMARK    6  A    between atoms: CBG_13  and  OAZ_14 
REMARK    7  A    between atoms: C6_22  and  NAY_23 
REMARK    8  A    between atoms: NAY_23  and  CBE_24 
REMARK    9  A    between atoms: CBD_29  and  NAX_30 
REMARK       I    between atoms: NAX_30  and  CBC_31 
REMARK   10  A    between atoms: CBC_31  and  CBF_33 
ROOT
HETATM    1  CBH   D T1356       9.054   3.873   5.450  1.00 30.53     0.118 A 
HETATM    2  CAM   D T1356      10.042   2.881   5.419  1.00 29.88     0.045 A 
HETATM    3  CBG   D T1356       7.776   3.589   4.931  1.00 30.48     0.117 A 
HETATM    4  CAN   D T1356       7.495   2.340   4.379  1.00 29.67     0.031 A 
HETATM    5  C5    D T1356       8.477   1.345   4.349  1.00 29.79     0.056 A 
HETATM    6  C4    D T1356       9.751   1.625   4.873  1.00 29.99     0.088 A 
HETATM    7  N3    D T1356      10.709   0.684   4.852  1.00 29.16    -0.224 NA
HETATM    8  C2    D T1356      10.452  -0.581   4.311  1.00 30.02     0.200 A 
HETATM    9  N1    D T1356       9.178  -0.866   3.792  1.00 29.74    -0.205 NA
HETATM   10  C6    D T1356       8.217   0.075   3.809  1.00 29.94     0.166 A 
ENDROOT
BRANCH  10  11
HETATM   11  NAY   D T1356       6.973  -0.147   3.307  1.00 31.31    -0.227 NA
BRANCH  11  12
HETATM   12  CBE   D T1356       6.249  -1.234   3.691  1.00 32.67     0.083 A 
HETATM   13  CAK   D T1356       5.878  -1.370   5.030  1.00 33.73     0.021 A 
HETATM   14  CAI   D T1356       5.127  -2.469   5.458  1.00 34.14     0.021 A 
HETATM   15  CBD   D T1356       4.711  -3.447   4.542  1.00 33.99     0.085 A 
HETATM   16  CAH   D T1356       5.084  -3.314   3.206  1.00 33.61     0.021 A 
HETATM   17  CAJ   D T1356       5.836  -2.215   2.785  1.00 33.42     0.021 A 
BRANCH  15  18
HETATM   18  NAX   D T1356       4.004  -4.544   4.908  1.00 34.41    -0.208 NA
HETATM   19  CBC   D T1356       4.520  -5.793   4.812  1.00 37.04     0.279 C 
HETATM   20  OAB   D T1356       5.657  -6.060   4.410  1.00 38.15    -0.265 OA
BRANCH  19  21
HETATM   21  CBF   D T1356       3.652  -6.814   5.210  1.00 37.03     0.058 A 
HETATM   22  CAF   D T1356       4.166  -8.035   5.651  1.00 38.06     0.005 A 
HETATM   23  CAD   D T1356       3.304  -9.057   6.040  1.00 38.28     0.000 A 
HETATM   24  CAC   D T1356       1.924  -8.866   5.988  1.00 38.02     0.000 A 
HETATM   25  CAE   D T1356       1.409  -7.648   5.555  1.00 37.90     0.000 A 
HETATM   26  CAG   D T1356       2.271  -6.628   5.158  1.00 37.23     0.005 A 
ENDBRANCH  19  21
ENDBRANCH  15  18
ENDBRANCH  11  12
ENDBRANCH  10  11
BRANCH   3  27
HETATM   27  OAZ   D T1356       6.812   4.571   4.941  1.00 30.66    -0.326 OA
HETATM   28  CAA   D T1356       5.480   4.162   5.261  1.00 33.36     0.181 C 
ENDBRANCH   3  27
BRANCH   1  29
HETATM   29  OBB   D T1356       9.249   5.131   5.965  1.00 30.55    -0.329 OA
BRANCH  29  30
HETATM   30  CAP   D T1356       9.403   5.297   7.393  1.00 33.72     0.151 C 
BRANCH  30  31
HETATM   31  CAO   D T1356       8.018   5.515   8.029  1.00 37.07     0.068 C 
BRANCH  31  32
HETATM   32  CAS   D T1356       7.417   6.814   7.473  1.00 39.71     0.253 C 
BRANCH  32  33
HETATM   33  NBL   D T1356       6.135   7.289   8.049  1.00 41.70     0.142 N 
HETATM   34  CAT   D T1356       5.577   8.505   7.413  1.00 43.12     0.282 C 
HETATM   35  CAQ   D T1356       4.187   8.820   8.005  1.00 43.52     0.178 C 
HETATM   36  OBA   D T1356       3.790   7.771   8.958  1.00 44.22    -0.350 OA
HETATM   37  CAR   D T1356       4.742   7.595  10.063  1.00 43.52     0.178 C 
HETATM   38  CAU   D T1356       6.179   7.457   9.519  1.00 42.73     0.282 C 
ENDBRANCH  32  33
ENDBRANCH  31  32
ENDBRANCH  30  31
ENDBRANCH  29  30
ENDBRANCH   1  29
TORSDOF 10
ENDMDL
MODEL 4
REMARK VINA RESULT:      -8.4      4.410      7.933
REMARK  10 active torsions:
REMARK  status: ('A' for Active; 'I' for Inactive)
REMARK    1  A    between atoms: NBL_6  and  CAS_7 
REMARK    2  A    between atoms: CAS_7  and  CAO_8 
REMARK    3  A    between atoms: CAO_8  and  CAP_9 
REMARK    4  A    between atoms: CAP_9  and  OBB_10 
REMARK    5  A    between atoms: OBB_10  and  CBH_11 
REMARK    6  A    between atoms: CBG_13  and  OAZ_14 
REMARK    7  A    between atoms: C6_22  and  NAY_23 
REMARK    8  A    between atoms: NAY_23  and  CBE_24 
REMARK    9  A    between atoms: CBD_29  and  NAX_30 
REMARK       I    between atoms: NAX_30  and  CBC_31 
REMARK   10  A    between atoms: CBC_31  and  CBF_33 
ROOT
HETATM    1  CBH   D T1356       7.858  -0.895   3.975  1.00 30.53     0.118 A 
HETATM    2  CAM   D T1356       8.810  -1.760   4.527  1.00 29.88     0.045 A 
HETATM    3  CBG   D T1356       8.179   0.467   3.806  1.00 30.48     0.117 A 
HETATM    4  CAN   D T1356       9.426   0.956   4.194  1.00 29.67     0.031 A 
HETATM    5  C5    D T1356      10.382   0.094   4.742  1.00 29.79     0.056 A 
HETATM    6  C4    D T1356      10.065  -1.266   4.905  1.00 29.99     0.088 A 
HETATM    7  N3    D T1356      10.968  -2.108   5.432  1.00 29.16    -0.224 NA
HETATM    8  C2    D T1356      12.230  -1.646   5.823  1.00 30.02     0.200 A 
HETATM    9  N1    D T1356      12.552  -0.289   5.655  1.00 29.74    -0.205 NA
HETATM   10  C6    D T1356      11.649   0.559   5.130  1.00 29.94     0.166 A 
ENDROOT
BRANCH  10  11
HETATM   11  NAY   D T1356      11.908   1.883   4.961  1.00 31.31    -0.227 NA
BRANCH  11  12
HETATM   12  CBE   D T1356      11.088   2.828   5.497  1.00 32.67     0.083 A 
HETATM   13  CAK   D T1356      10.366   3.669   4.648  1.00 33.73     0.021 A 
HETATM   14  CAI   D T1356       9.508   4.644   5.165  1.00 34.14     0.021 A 
HETATM   15  CBD   D T1356       9.338   4.782   6.550  1.00 33.99     0.085 A 
HETATM   16  CAH   D T1356      10.061   3.944   7.399  1.00 33.61     0.021 A 
HETATM   17  CAJ   D T1356      10.918   2.974   6.878  1.00 33.42     0.021 A 
BRANCH  15  18
HETATM   18  NAX   D T1356       8.540   5.727   7.104  1.00 34.41    -0.208 NA
HETATM   19  CBC   D T1356       7.252   5.471   7.437  1.00 37.04     0.279 C 
HETATM   20  OAB   D T1356       6.687   4.382   7.295  1.00 38.15    -0.265 OA
BRANCH  19  21
HETATM   21  CBF   D T1356       6.562   6.560   7.976  1.00 37.03     0.058 A 
HETATM   22  CAF   D T1356       6.124   6.523   9.301  1.00 38.06     0.005 A 
HETATM   23  CAD   D T1356       5.429   7.604   9.839  1.00 38.28     0.000 A 
HETATM   24  CAC   D T1356       5.166   8.726   9.055  1.00 38.02     0.000 A 
HETATM   25  CAE   D T1356       5.607   8.769   7.736  1.00 37.90     0.000 A 
HETATM   26  CAG   D T1356       6.295   7.685   7.196  1.00 37.23     0.005 A 
ENDBRANCH  19  21
ENDBRANCH  15  18
ENDBRANCH  11  12
ENDBRANCH  10  11
BRANCH   3  27
HETATM   27  OAZ   D T1356       7.235   1.321   3.284  1.00 30.66    -0.326 OA
HETATM   28  CAA   D T1356       6.689   2.298   4.175  1.00 33.36     0.181 C 
ENDBRANCH   3  27
BRANCH   1  29
HETATM   29  OBB   D T1356       6.605  -1.291   3.577  1.00 30.55    -0.329 OA
BRANCH  29  30
HETATM   30  CAP   D T1356       5.662  -1.759   4.568  1.00 33.72     0.151 C 
BRANCH  30  31
HETATM   31  CAO   D T1356       4.232  -1.605   4.018  1.00 37.07     0.068 C 
BRANCH  31  32
HETATM   32  CAS   D T1356       4.238  -0.535   2.916  1.00 39.71     0.253 C 
BRANCH  32  33
HETATM   33  NBL   D T1356       3.348   0.639   3.084  1.00 41.70     0.142 N 
HETATM   34  CAT   D T1356       3.323   1.213   4.449  1.00 43.12     0.282 C 
HETATM   35  CAQ   D T1356       2.472   2.501   4.466  1.00 43.52     0.178 C 
HETATM   36  OBA   D T1356       2.015   2.825   3.105  1.00 44.22    -0.350 OA
HETATM   37  CAR   D T1356       1.229   1.752   2.481  1.00 43.52     0.178 C 
HETATM   38  CAU   D T1356       1.968   0.403   2.605  1.00 42.73     0.282 C 
ENDBRANCH  32  33
ENDBRANCH  31  32
ENDBRANCH  30  31
ENDBRANCH  29  30
ENDBRANCH   1  29
TORSDOF 10
ENDMDL
MODEL 5
REMARK VINA RESULT:      -8.3      5.618     12.329
REMARK  10 active torsions:
REMARK  status: ('A' for Active; 'I' for Inactive)
REMARK    1  A    between atoms: NBL_6  and  CAS_7 
REMARK    2  A    between atoms: CAS_7  and  CAO_8 
REMARK    3  A    between atoms: CAO_8  and  CAP_9 
REMARK    4  A    between atoms: CAP_9  and  OBB_10 
REMARK    5  A    between atoms: OBB_10  and  CBH_11 
REMARK    6  A    between atoms: CBG_13  and  OAZ_14 
REMARK    7  A    between atoms: C6_22  and  NAY_23 
REMARK    8  A    between atoms: NAY_23  and  CBE_24 
REMARK    9  A    between atoms: CBD_29  and  NAX_30 
REMARK       I    between atoms: NAX_30  and  CBC_31 
REMARK   10  A    between atoms: CBC_31  and  CBF_33 
ROOT
HETATM    1  CBH   D T1356       8.054   3.547   5.185  1.00 30.53     0.118 A 
HETATM    2  CAM   D T1356       6.688   3.850   5.217  1.00 29.88     0.045 A 
HETATM    3  CBG   D T1356       8.492   2.403   4.488  1.00 30.48     0.117 A 
HETATM    4  CAN   D T1356       7.576   1.571   3.844  1.00 29.67     0.031 A 
HETATM    5  C5    D T1356       6.211   1.872   3.870  1.00 29.79     0.056 A 
HETATM    6  C4    D T1356       5.774   3.017   4.560  1.00 29.99     0.088 A 
HETATM    7  N3    D T1356       4.467   3.321   4.598  1.00 29.16    -0.224 NA
HETATM    8  C2    D T1356       3.527   2.508   3.955  1.00 30.02     0.200 A 
HETATM    9  N1    D T1356       3.961   1.367   3.259  1.00 29.74    -0.205 NA
HETATM   10  C6    D T1356       5.269   1.056   3.220  1.00 29.94     0.166 A 
ENDROOT
BRANCH  10  11
HETATM   11  NAY   D T1356       5.736  -0.044   2.573  1.00 31.31    -0.227 NA
BRANCH  11  12
HETATM   12  CBE   D T1356       5.392  -1.294   2.985  1.00 32.67     0.083 A 
HETATM   13  CAK   D T1356       4.458  -2.025   2.249  1.00 33.73     0.021 A 
HETATM   14  CAI   D T1356       4.088  -3.316   2.639  1.00 34.14     0.021 A 
HETATM   15  CBD   D T1356       4.668  -3.912   3.768  1.00 33.99     0.085 A 
HETATM   16  CAH   D T1356       5.599  -3.182   4.506  1.00 33.61     0.021 A 
HETATM   17  CAJ   D T1356       5.963  -1.893   4.113  1.00 33.42     0.021 A 
BRANCH  15  18
HETATM   18  NAX   D T1356       4.326  -5.149   4.205  1.00 34.41    -0.208 NA
HETATM   19  CBC   D T1356       3.311  -5.344   5.081  1.00 37.04     0.279 C 
HETATM   20  OAB   D T1356       2.599  -4.451   5.550  1.00 38.15    -0.265 OA
BRANCH  19  21
HETATM   21  CBF   D T1356       3.105  -6.678   5.444  1.00 37.03     0.058 A 
HETATM   22  CAF   D T1356       4.191  -7.479   5.805  1.00 38.06     0.005 A 
HETATM   23  CAD   D T1356       3.991  -8.810   6.160  1.00 38.28     0.000 A 
HETATM   24  CAC   D T1356       2.706  -9.350   6.154  1.00 38.02     0.000 A 
HETATM   25  CAE   D T1356       1.621  -8.553   5.801  1.00 37.90     0.000 A 
HETATM   26  CAG   D T1356       1.822  -7.224   5.439  1.00 37.23     0.005 A 
ENDBRANCH  19  21
ENDBRANCH  15  18
ENDBRANCH  11  12
ENDBRANCH  10  11
BRANCH   3  27
HETATM   27  OAZ   D T1356       9.832   2.093   4.476  1.00 30.66    -0.326 OA
HETATM   28  CAA   D T1356      10.199   0.802   4.969  1.00 33.36     0.181 C 
ENDBRANCH   3  27
BRANCH   1  29
HETATM   29  OBB   D T1356       9.021   4.305   5.800  1.00 30.55    -0.329 OA
BRANCH  29  30
HETATM   30  CAP   D T1356       9.168   4.237   7.236  1.00 33.72     0.151 C 
BRANCH  30  31
HETATM   31  CAO   D T1356       8.869   5.621   7.841  1.00 37.07     0.068 C 
BRANCH  31  32
HETATM   32  CAS   D T1356       7.513   5.565   8.560  1.00 39.71     0.253 C 
BRANCH  32  33
HETATM   33  NBL   D T1356       6.660   6.778   8.527  1.00 41.70     0.142 N 
HETATM   34  CAT   D T1356       5.444   6.709   9.371  1.00 43.12     0.282 C 
HETATM   35  CAQ   D T1356       4.714   8.068   9.359  1.00 43.52     0.178 C 
HETATM   36  OBA   D T1356       5.489   9.054   8.589  1.00 44.22    -0.350 OA
HETATM   37  CAR   D T1356       5.740   8.644   7.200  1.00 43.52     0.178 C 
HETATM   38  CAU   D T1356       6.305   7.209   7.157  1.00 42.73     0.282 C 
ENDBRANCH  32  33
ENDBRANCH  31  32
ENDBRANCH  30  31
ENDBRANCH  29  30
ENDBRANCH   1  29
TORSDOF 10
ENDMDL
MODEL 6
REMARK VINA RESULT:      -8.2      1.555      2.047
REMARK  10 active torsions:
REMARK  status: ('A' for Active; 'I' for Inactive)
REMARK    1  A    between atoms: NBL_6  and  CAS_7 
REMARK    2  A    between atoms: CAS_7  and  CAO_8 
REMARK    3  A    between atoms: CAO_8  and  CAP_9 
REMARK    4  A    between atoms: CAP_9  and  OBB_10 
REMARK    5  A    between atoms: OBB_10  and  CBH_11 
REMARK    6  A    between atoms: CBG_13  and  OAZ_14 
REMARK    7  A    between atoms: C6_22  and  NAY_23 
REMARK    8  A    between atoms: NAY_23  and  CBE_24 
REMARK    9  A    between atoms: CBD_29  and  NAX_30 
REMARK       I    between atoms: NAX_30  and  CBC_31 
REMARK   10  A    between atoms: CBC_31  and  CBF_33 
ROOT
HETATM    1  CBH   D T1356      11.496  -2.973   5.056  1.00 30.53     0.118 A 
HETATM    2  CAM   D T1356      10.226  -2.933   4.468  1.00 29.88     0.045 A 
HETATM    3  CBG   D T1356      12.100  -1.771   5.477  1.00 30.48     0.117 A 
HETATM    4  CAN   D T1356      11.449  -0.551   5.301  1.00 29.67     0.031 A 
HETATM    5  C5    D T1356      10.179  -0.507   4.718  1.00 29.79     0.056 A 
HETATM    6  C4    D T1356       9.573  -1.706   4.303  1.00 29.99     0.088 A 
HETATM    7  N3    D T1356       8.355  -1.684   3.739  1.00 29.16    -0.224 NA
HETATM    8  C2    D T1356       7.676  -0.473   3.556  1.00 30.02     0.200 A 
HETATM    9  N1    D T1356       8.276   0.725   3.975  1.00 29.74    -0.205 NA
HETATM   10  C6    D T1356       9.497   0.709   4.539  1.00 29.94     0.166 A 
ENDROOT
BRANCH  10  11
HETATM   11  NAY   D T1356      10.125   1.843   4.948  1.00 31.31    -0.227 NA
BRANCH  11  12
HETATM   12  CBE   D T1356       9.424   2.862   5.516  1.00 32.67     0.083 A 
HETATM   13  CAK   D T1356       8.939   2.719   6.817  1.00 33.73     0.021 A 
HETATM   14  CAI   D T1356       8.223   3.749   7.433  1.00 34.14     0.021 A 
HETATM   15  CBD   D T1356       7.998   4.960   6.763  1.00 33.99     0.085 A 
HETATM   16  CAH   D T1356       8.479   5.104   5.462  1.00 33.61     0.021 A 
HETATM   17  CAJ   D T1356       9.191   4.071   4.851  1.00 33.42     0.021 A 
BRANCH  15  18
HETATM   18  NAX   D T1356       7.288   5.980   7.304  1.00 34.41    -0.208 NA
HETATM   19  CBC   D T1356       5.944   6.074   7.160  1.00 37.04     0.279 C 
HETATM   20  OAB   D T1356       5.239   5.261   6.554  1.00 38.15    -0.265 OA
BRANCH  19  21
HETATM   21  CBF   D T1356       5.371   7.198   7.761  1.00 37.03     0.058 A 
HETATM   22  CAF   D T1356       5.958   8.454   7.593  1.00 38.06     0.005 A 
HETATM   23  CAD   D T1356       5.394   9.575   8.197  1.00 38.28     0.000 A 
HETATM   24  CAC   D T1356       4.244   9.447   8.975  1.00 38.02     0.000 A 
HETATM   25  CAE   D T1356       3.654   8.197   9.139  1.00 37.90     0.000 A 
HETATM   26  CAG   D T1356       4.222   7.075   8.541  1.00 37.23     0.005 A 
ENDBRANCH  19  21
ENDBRANCH  15  18
ENDBRANCH  11  12
ENDBRANCH  10  11
BRANCH   3  27
HETATM   27  OAZ   D T1356      13.357  -1.808   6.035  1.00 30.66    -0.326 OA
HETATM   28  CAA   D T1356      13.462  -1.433   7.411  1.00 33.36     0.181 C 
ENDBRANCH   3  27
BRANCH   1  29
HETATM   29  OBB   D T1356      12.210  -4.129   5.257  1.00 30.55    -0.329 OA
BRANCH  29  30
HETATM   30  CAP   D T1356      11.642  -5.394   4.848  1.00 33.72     0.151 C 
BRANCH  30  31
HETATM   31  CAO   D T1356      12.773  -6.330   4.385  1.00 37.07     0.068 C 
BRANCH  31  32
HETATM   32  CAS   D T1356      12.259  -7.189   3.220  1.00 39.71     0.253 C 
BRANCH  32  33
HETATM   33  NBL   D T1356      13.255  -7.937   2.417  1.00 41.70     0.142 N 
HETATM   34  CAT   D T1356      12.865  -8.182   1.009  1.00 43.12     0.282 C 
HETATM   35  CAQ   D T1356      14.031  -8.845   0.245  1.00 43.52     0.178 C 
HETATM   36  OBA   D T1356      15.212  -8.954   1.115  1.00 44.22    -0.350 OA
HETATM   37  CAR   D T1356      14.964  -9.717   2.346  1.00 43.52     0.178 C 
HETATM   38  CAU   D T1356      13.693  -9.200   3.051  1.00 42.73     0.282 C 
ENDBRANCH  32  33
ENDBRANCH  31  32
ENDBRANCH  30  31
ENDBRANCH  29  30
ENDBRANCH   1  29
TORSDOF 10
ENDMDL
MODEL 7
REMARK VINA RESULT:      -7.7      4.828     12.383
REMARK  10 active torsions:
REMARK  status: ('A' for Active; 'I' for Inactive)
REMARK    1  A    between atoms: NBL_6  and  CAS_7 
REMARK    2  A    between atoms: CAS_7  and  CAO_8 
REMARK    3  A    between atoms: CAO_8  and  CAP_9 
REMARK    4  A    between atoms: CAP_9  and  OBB_10 
REMARK    5  A    between atoms: OBB_10  and  CBH_11 
REMARK    6  A    between atoms: CBG_13  and  OAZ_14 
REMARK    7  A    between atoms: C6_22  and  NAY_23 
REMARK    8  A    between atoms: NAY_23  and  CBE_24 
REMARK    9  A    between atoms: CBD_29  and  NAX_30 
REMARK       I    between atoms: NAX_30  and  CBC_31 
REMARK   10  A    between atoms: CBC_31  and  CBF_33 
ROOT
HETATM    1  CBH   D T1356       9.051   3.087   5.532  1.00 30.53     0.118 A 
HETATM    2  CAM   D T1356      10.155   2.292   5.204  1.00 29.88     0.045 A 
HETATM    3  CBG   D T1356       7.776   2.494   5.623  1.00 30.48     0.117 A 
HETATM    4  CAN   D T1356       7.607   1.132   5.377  1.00 29.67     0.031 A 
HETATM    5  C5    D T1356       8.708   0.333   5.052  1.00 29.79     0.056 A 
HETATM    6  C4    D T1356       9.981   0.922   4.968  1.00 29.99     0.088 A 
HETATM    7  N3    D T1356      11.050   0.172   4.655  1.00 29.16    -0.224 NA
HETATM    8  C2    D T1356      10.911  -1.199   4.410  1.00 30.02     0.200 A 
HETATM    9  N1    D T1356       9.641  -1.792   4.500  1.00 29.74    -0.205 NA
HETATM   10  C6    D T1356       8.567  -1.044   4.810  1.00 29.94     0.166 A 
ENDROOT
BRANCH  10  11
HETATM   11  NAY   D T1356       7.316  -1.568   4.895  1.00 31.31    -0.227 NA
BRANCH  11  12
HETATM   12  CBE   D T1356       6.638  -1.941   3.775  1.00 32.67     0.083 A 
HETATM   13  CAK   D T1356       5.775  -3.037   3.830  1.00 33.73     0.021 A 
HETATM   14  CAI   D T1356       5.057  -3.442   2.701  1.00 34.14     0.021 A 
HETATM   15  CBD   D T1356       5.173  -2.738   1.493  1.00 33.99     0.085 A 
HETATM   16  CAH   D T1356       6.037  -1.646   1.436  1.00 33.61     0.021 A 
HETATM   17  CAJ   D T1356       6.753  -1.247   2.566  1.00 33.42     0.021 A 
BRANCH  15  18
HETATM   18  NAX   D T1356       4.521  -3.104   0.363  1.00 34.41    -0.208 NA
HETATM   19  CBC   D T1356       4.953  -4.125  -0.416  1.00 37.04     0.279 C 
HETATM   20  OAB   D T1356       5.946  -4.822  -0.182  1.00 38.15    -0.265 OA
BRANCH  19  21
HETATM   21  CBF   D T1356       4.179  -4.356  -1.556  1.00 37.03     0.058 A 
HETATM   22  CAF   D T1356       4.350  -5.532  -2.289  1.00 38.06     0.005 A 
HETATM   23  CAD   D T1356       3.585  -5.762  -3.430  1.00 38.28     0.000 A 
HETATM   24  CAC   D T1356       2.648  -4.818  -3.847  1.00 38.02     0.000 A 
HETATM   25  CAE   D T1356       2.471  -3.648  -3.114  1.00 37.90     0.000 A 
HETATM   26  CAG   D T1356       3.241  -3.414  -1.977  1.00 37.23     0.005 A 
ENDBRANCH  19  21
ENDBRANCH  15  18
ENDBRANCH  11  12
ENDBRANCH  10  11
BRANCH   3  27
HETATM   27  OAZ   D T1356       6.687   3.280   5.924  1.00 30.66    -0.326 OA
HETATM   28  CAA   D T1356       5.669   3.379   4.925  1.00 33.36     0.181 C 
ENDBRANCH   3  27
BRANCH   1  29
HETATM   29  OBB   D T1356       9.126   4.436   5.779  1.00 30.55    -0.329 OA
BRANCH  29  30
HETATM   30  CAP   D T1356       9.652   4.897   7.045  1.00 33.72     0.151 C 
BRANCH  30  31
HETATM   31  CAO   D T1356       8.492   5.411   7.917  1.00 37.07     0.068 C 
BRANCH  31  32
HETATM   32  CAS   D T1356       7.684   6.439   7.111  1.00 39.71     0.253 C 
BRANCH  32  33
HETATM   33  NBL   D T1356       6.472   7.018   7.741  1.00 41.70     0.142 N 
HETATM   34  CAT   D T1356       5.302   6.111   7.794  1.00 43.12     0.282 C 
HETATM   35  CAQ   D T1356       4.155   6.774   8.586  1.00 43.52     0.178 C 
HETATM   36  OBA   D T1356       4.595   8.069   9.129  1.00 44.22    -0.350 OA
HETATM   37  CAR   D T1356       5.058   9.008   8.099  1.00 43.52     0.178 C 
HETATM   38  CAU   D T1356       6.079   8.324   7.167  1.00 42.73     0.282 C 
ENDBRANCH  32  33
ENDBRANCH  31  32
ENDBRANCH  30  31
ENDBRANCH  29  30
ENDBRANCH   1  29
TORSDOF 10
ENDMDL
MODEL 8
REMARK VINA RESULT:      -7.6      5.520     12.304
REMARK  10 active torsions:
REMARK  status: ('A' for Active; 'I' for Inactive)
REMARK    1  A    between atoms: NBL_6  and  CAS_7 
REMARK    2  A    between atoms: CAS_7  and  CAO_8 
REMARK    3  A    between atoms: CAO_8  and  CAP_9 
REMARK    4  A    between atoms: CAP_9  and  OBB_10 
REMARK    5  A    between atoms: OBB_10  and  CBH_11 
REMARK    6  A    between atoms: CBG_13  and  OAZ_14 
REMARK    7  A    between atoms: C6_22  and  NAY_23 
REMARK    8  A    between atoms: NAY_23  and  CBE_24 
REMARK    9  A    between atoms: CBD_29  and  NAX_30 
REMARK       I    between atoms: NAX_30  and  CBC_31 
REMARK   10  A    between atoms: CBC_31  and  CBF_33 
ROOT
HETATM    1  CBH   D T1356       8.441   0.736   3.984  1.00 30.53     0.118 A 
HETATM    2  CAM   D T1356       7.265   1.165   3.356  1.00 29.88     0.045 A 
HETATM    3  CBG   D T1356       8.369  -0.267   4.972  1.00 30.48     0.117 A 
HETATM    4  CAN   D T1356       7.141  -0.821   5.333  1.00 29.67     0.031 A 
HETATM    5  C5    D T1356       5.965  -0.398   4.705  1.00 29.79     0.056 A 
HETATM    6  C4    D T1356       6.036   0.597   3.715  1.00 29.99     0.088 A 
HETATM    7  N3    D T1356       4.918   1.018   3.103  1.00 29.16    -0.224 NA
HETATM    8  C2    D T1356       3.673   0.474   3.440  1.00 30.02     0.200 A 
HETATM    9  N1    D T1356       3.600  -0.525   4.424  1.00 29.74    -0.205 NA
HETATM   10  C6    D T1356       4.717  -0.949   5.042  1.00 29.94     0.166 A 
ENDROOT
BRANCH  10  11
HETATM   11  NAY   D T1356       4.696  -1.902   6.010  1.00 31.31    -0.227 NA
BRANCH  11  12
HETATM   12  CBE   D T1356       4.432  -3.202   5.704  1.00 32.67     0.083 A 
HETATM   13  CAK   D T1356       3.385  -3.859   6.352  1.00 33.73     0.021 A 
HETATM   14  CAI   D T1356       3.081  -5.191   6.055  1.00 34.14     0.021 A 
HETATM   15  CBD   D T1356       3.810  -5.887   5.080  1.00 33.99     0.085 A 
HETATM   16  CAH   D T1356       4.857  -5.233   4.433  1.00 33.61     0.021 A 
HETATM   17  CAJ   D T1356       5.158  -3.904   4.736  1.00 33.42     0.021 A 
BRANCH  15  18
HETATM   18  NAX   D T1356       3.574  -7.186   4.772  1.00 34.41    -0.208 NA
HETATM   19  CBC   D T1356       4.060  -8.201   5.527  1.00 37.04     0.279 C 
HETATM   20  OAB   D T1356       4.734  -8.060   6.552  1.00 38.15    -0.265 OA
BRANCH  19  21
HETATM   21  CBF   D T1356       3.743  -9.479   5.058  1.00 37.03     0.058 A 
HETATM   22  CAF   D T1356       4.689 -10.213   4.339  1.00 38.06     0.005 A 
HETATM   23  CAD   D T1356       4.374 -11.483   3.863  1.00 38.28     0.000 A 
HETATM   24  CAC   D T1356       3.112 -12.025   4.100  1.00 38.02     0.000 A 
HETATM   25  CAE   D T1356       2.169 -11.299   4.822  1.00 37.90     0.000 A 
HETATM   26  CAG   D T1356       2.481 -10.026   5.291  1.00 37.23     0.005 A 
ENDBRANCH  19  21
ENDBRANCH  15  18
ENDBRANCH  11  12
ENDBRANCH  10  11
BRANCH   3  27
HETATM   27  OAZ   D T1356       9.521  -0.672   5.605  1.00 30.66    -0.326 OA
HETATM   28  CAA   D T1356      10.046  -1.949   5.231  1.00 33.36     0.181 C 
ENDBRANCH   3  27
BRANCH   1  29
HETATM   29  OBB   D T1356       9.688   1.235   3.698  1.00 30.55    -0.329 OA
BRANCH  29  30
HETATM   30  CAP   D T1356       9.993   2.610   4.023  1.00 33.72     0.151 C 
BRANCH  30  31
HETATM   31  CAO   D T1356       9.894   2.803   5.548  1.00 37.07     0.068 C 
BRANCH  31  32
HETATM   32  CAS   D T1356      10.235   4.262   5.885  1.00 39.71     0.253 C 
BRANCH  32  33
HETATM   33  NBL   D T1356       9.162   5.113   6.454  1.00 41.70     0.142 N 
HETATM   34  CAT   D T1356       8.698   4.712   7.803  1.00 43.12     0.282 C 
HETATM   35  CAQ   D T1356       7.684   5.744   8.341  1.00 43.52     0.178 C 
HETATM   36  OBA   D T1356       7.549   6.864   7.396  1.00 44.22    -0.350 OA
HETATM   37  CAR   D T1356       7.126   6.448   6.052  1.00 43.52     0.178 C 
HETATM   38  CAU   D T1356       8.006   5.286   5.548  1.00 42.73     0.282 C 
ENDBRANCH  32  33
ENDBRANCH  31  32
ENDBRANCH  30  31
ENDBRANCH  29  30
ENDBRANCH   1  29
TORSDOF 10
ENDMDL
MODEL 9
REMARK VINA RESULT:      -7.4      5.105     12.739
REMARK  10 active torsions:
REMARK  status: ('A' for Active; 'I' for Inactive)
REMARK    1  A    between atoms: NBL_6  and  CAS_7 
REMARK    2  A    between atoms: CAS_7  and  CAO_8 
REMARK    3  A    between atoms: CAO_8  and  CAP_9 
REMARK    4  A    between atoms: CAP_9  and  OBB_10 
REMARK    5  A    between atoms: OBB_10  and  CBH_11 
REMARK    6  A    between atoms: CBG_13  and  OAZ_14 
REMARK    7  A    between atoms: C6_22  and  NAY_23 
REMARK    8  A    between atoms: NAY_23  and  CBE_24 
REMARK    9  A    between atoms: CBD_29  and  NAX_30 
REMARK       I    between atoms: NAX_30  and  CBC_31 
REMARK   10  A    between atoms: CBC_31  and  CBF_33 
ROOT
HETATM    1  CBH   D T1356       7.771   0.820   3.813  1.00 30.53     0.118 A 
HETATM    2  CAM   D T1356       6.641   0.907   2.991  1.00 29.88     0.045 A 
HETATM    3  CBG   D T1356       7.816  -0.161   4.824  1.00 30.48     0.117 A 
HETATM    4  CAN   D T1356       6.744  -1.032   5.015  1.00 29.67     0.031 A 
HETATM    5  C5    D T1356       5.615  -0.952   4.194  1.00 29.79     0.056 A 
HETATM    6  C4    D T1356       5.572   0.022   3.181  1.00 29.99     0.088 A 
HETATM    7  N3    D T1356       4.496   0.117   2.384  1.00 29.16    -0.224 NA
HETATM    8  C2    D T1356       3.408  -0.749   2.549  1.00 30.02     0.200 A 
HETATM    9  N1    D T1356       3.451  -1.728   3.555  1.00 29.74    -0.205 NA
HETATM   10  C6    D T1356       4.526  -1.825   4.359  1.00 29.94     0.166 A 
ENDROOT
BRANCH  10  11
HETATM   11  NAY   D T1356       4.608  -2.745   5.355  1.00 31.31    -0.227 NA
BRANCH  11  12
HETATM   12  CBE   D T1356       4.659  -4.076   5.073  1.00 32.67     0.083 A 
HETATM   13  CAK   D T1356       5.542  -4.536   4.095  1.00 33.73     0.021 A 
HETATM   14  CAI   D T1356       5.626  -5.897   3.787  1.00 34.14     0.021 A 
HETATM   15  CBD   D T1356       4.838  -6.832   4.473  1.00 33.99     0.085 A 
HETATM   16  CAH   D T1356       3.953  -6.374   5.448  1.00 33.61     0.021 A 
HETATM   17  CAJ   D T1356       3.872  -5.014   5.750  1.00 33.42     0.021 A 
BRANCH  15  18
HETATM   18  NAX   D T1356       4.861  -8.159   4.196  1.00 34.41    -0.208 NA
HETATM   19  CBC   D T1356       5.837  -8.972   4.667  1.00 37.04     0.279 C 
HETATM   20  OAB   D T1356       6.772  -8.611   5.389  1.00 38.15    -0.265 OA
BRANCH  19  21
HETATM   21  CBF   D T1356       5.724 -10.307   4.269  1.00 37.03     0.058 A 
HETATM   22  CAF   D T1356       4.465 -10.904   4.177  1.00 38.06     0.005 A 
HETATM   23  CAD   D T1356       4.350 -12.236   3.789  1.00 38.28     0.000 A 
HETATM   24  CAC   D T1356       5.491 -12.980   3.494  1.00 38.02     0.000 A 
HETATM   25  CAE   D T1356       6.747 -12.387   3.579  1.00 37.90     0.000 A 
HETATM   26  CAG   D T1356       6.863 -11.056   3.975  1.00 37.23     0.005 A 
ENDBRANCH  19  21
ENDBRANCH  15  18
ENDBRANCH  11  12
ENDBRANCH  10  11
BRANCH   3  27
HETATM   27  OAZ   D T1356       8.917  -0.232   5.646  1.00 30.66    -0.326 OA
HETATM   28  CAA   D T1356       9.948  -1.145   5.263  1.00 33.36     0.181 C 
ENDBRANCH   3  27
BRANCH   1  29
HETATM   29  OBB   D T1356       8.864   1.643   3.701  1.00 30.55    -0.329 OA
BRANCH  29  30
HETATM   30  CAP   D T1356       8.889   2.892   4.428  1.00 33.72     0.151 C 
BRANCH  30  31
HETATM   31  CAO   D T1356      10.329   3.178   4.894  1.00 37.07     0.068 C 
BRANCH  31  32
HETATM   32  CAS   D T1356      10.312   4.392   5.835  1.00 39.71     0.253 C 
BRANCH  32  33
HETATM   33  NBL   D T1356       8.995   4.911   6.276  1.00 41.70     0.142 N 
HETATM   34  CAT   D T1356       8.572   6.173   5.627  1.00 43.12     0.282 C 
HETATM   35  CAQ   D T1356       7.137   6.537   6.065  1.00 43.52     0.178 C 
HETATM   36  OBA   D T1356       6.584   5.479   6.924  1.00 44.22    -0.350 OA
HETATM   37  CAR   D T1356       7.390   5.220   8.125  1.00 43.52     0.178 C 
HETATM   38  CAU   D T1356       8.873   5.028   7.746  1.00 42.73     0.282 C 
ENDBRANCH  32  33
ENDBRANCH  31  32
ENDBRANCH  30  31
ENDBRANCH  29  30
ENDBRANCH   1  29
TORSDOF 10
ENDMDL
