MODEL 1
REMARK VINA RESULT:    -8.414      0.000      0.000
REMARK INTER + INTRA:         -14.326
REMARK INTER:                 -13.334
REMARK INTRA:                  -0.992
REMARK UNBOUND:                -0.992
REMARK  10 active torsions:
REMARK  status: ('A' for Active; 'I' for Inactive)
REMARK    1  A    between atoms: NBL_6  and  CAS_7 
REMARK    2  A    between atoms: CAS_7  and  CAO_8 
REMARK    3  A    between atoms: CAO_8  and  CAP_9 
REMARK    4  A    between atoms: CAP_9  and  OBB_10 
REMARK    5  A    between atoms: OBB_10  and  CBH_11 
REMARK    6  A    between atoms: CBG_13  and  OAZ_14 
REMARK    7  A    between atoms: C6_22  and  NAY_23 
REMARK    8  A    between atoms: NAY_23  and  CBE_24 
REMARK    9  A    between atoms: CBD_29  and  NAX_30 
REMARK       I    between atoms: NAX_30  and  CBC_31 
REMARK   10  A    between atoms: CBC_31  and  CBF_33 
ROOT
HETATM    1  CBH   D T1356      -2.641   0.021  14.925  1.00 30.53     0.118 A 
HETATM    2  CAM   D T1356      -3.662   0.350  14.025  1.00 29.88     0.045 A 
HETATM    3  CBG   D T1356      -1.503   0.847  15.010  1.00 30.48     0.117 A 
HETATM    4  CAN   D T1356      -1.383   1.976  14.201  1.00 29.67     0.031 A 
HETATM    5  C5    D T1356      -2.402   2.311  13.304  1.00 29.79     0.056 A 
HETATM    6  C4    D T1356      -3.541   1.492  13.223  1.00 29.99     0.088 A 
HETATM    7  N3    D T1356      -4.529   1.795  12.366  1.00 29.16    -0.224 NA
HETATM    8  C2    D T1356      -4.440   2.927  11.547  1.00 30.02     0.200 A 
HETATM    9  N1    D T1356      -3.305   3.752  11.630  1.00 29.74    -0.205 NA
HETATM   10  C6    D T1356      -2.312   3.450  12.486  1.00 29.94     0.166 A 
ENDROOT
BRANCH  10  11
HETATM   11  NAY   D T1356      -1.190   4.209  12.592  1.00 31.31    -0.227 NA
BRANCH  11  12
HETATM   12  CBE   D T1356      -0.090   3.940  11.838  1.00 32.67     0.083 A 
HETATM   13  CAK   D T1356       1.074   3.486  12.461  1.00 33.73     0.021 A 
HETATM   14  CAI   D T1356       2.219   3.192  11.715  1.00 34.14     0.021 A 
HETATM   15  CBD   D T1356       2.214   3.327  10.318  1.00 33.99     0.085 A 
HETATM   16  CAH   D T1356       1.053   3.783   9.696  1.00 33.61     0.021 A 
HETATM   17  CAJ   D T1356      -0.087   4.077  10.445  1.00 33.42     0.021 A 
BRANCH  15  18
HETATM   18  NAX   D T1356       3.304   3.080   9.552  1.00 34.41    -0.208 NA
HETATM   19  CBC   D T1356       4.228   4.036   9.292  1.00 37.04     0.279 C 
HETATM   20  OAB   D T1356       4.191   5.192   9.723  1.00 38.15    -0.265 OA
BRANCH  19  21
HETATM   21  CBF   D T1356       5.278   3.622   8.467  1.00 37.03     0.058 A 
HETATM   22  CAF   D T1356       5.074   3.486   7.093  1.00 38.06     0.005 A 
HETATM   23  CAD   D T1356       6.116   3.066   6.269  1.00 38.28     0.000 A 
HETATM   24  CAC   D T1356       7.365   2.776   6.814  1.00 38.02     0.000 A 
HETATM   25  CAE   D T1356       7.573   2.917   8.184  1.00 37.90     0.000 A 
HETATM   26  CAG   D T1356       6.530   3.330   9.009  1.00 37.23     0.005 A 
ENDBRANCH  19  21
ENDBRANCH  15  18
ENDBRANCH  11  12
ENDBRANCH  10  11
BRANCH   3  27
HETATM   27  OAZ   D T1356      -0.489   0.510  15.878  1.00 30.66    -0.326 OA
HETATM   28  CAA   D T1356       0.843   0.548  15.358  1.00 33.36     0.181 C 
ENDBRANCH   3  27
BRANCH   1  29
HETATM   29  OBB   D T1356      -2.673  -1.078  15.750  1.00 30.55    -0.329 OA
BRANCH  29  30
HETATM   30  CAP   D T1356      -2.131  -2.333  15.281  1.00 33.72     0.151 C 
BRANCH  30  31
HETATM   31  CAO   D T1356      -1.933  -3.278  16.480  1.00 37.07     0.068 C 
BRANCH  31  32
HETATM   32  CAS   D T1356      -0.429  -3.505  16.687  1.00 39.71     0.253 C 
BRANCH  32  33
HETATM   33  NBL   D T1356       0.055  -4.903  16.790  1.00 41.70     0.142 N 
HETATM   34  CAT   D T1356      -0.763  -5.784  17.657  1.00 43.12     0.282 C 
HETATM   35  CAQ   D T1356      -0.241  -7.235  17.578  1.00 43.52     0.178 C 
HETATM   36  OBA   D T1356       0.852  -7.329  16.598  1.00 44.22    -0.350 OA
HETATM   37  CAR   D T1356       1.984  -6.440  16.896  1.00 43.52     0.178 C 
HETATM   38  CAU   D T1356       1.483  -5.006  17.163  1.00 42.73     0.282 C 
ENDBRANCH  32  33
ENDBRANCH  31  32
ENDBRANCH  30  31
ENDBRANCH  29  30
ENDBRANCH   1  29
TORSDOF 10
ENDMDL
MODEL 2
REMARK VINA RESULT:    -8.223      4.524     10.801
REMARK INTER + INTRA:         -14.022
REMARK INTER:                 -13.048
REMARK INTRA:                  -0.974
REMARK UNBOUND:                -0.992
REMARK  10 active torsions:
REMARK  status: ('A' for Active; 'I' for Inactive)
REMARK    1  A    between atoms: NBL_6  and  CAS_7 
REMARK    2  A    between atoms: CAS_7  and  CAO_8 
REMARK    3  A    between atoms: CAO_8  and  CAP_9 
REMARK    4  A    between atoms: CAP_9  and  OBB_10 
REMARK    5  A    between atoms: OBB_10  and  CBH_11 
REMARK    6  A    between atoms: CBG_13  and  OAZ_14 
REMARK    7  A    between atoms: C6_22  and  NAY_23 
REMARK    8  A    between atoms: NAY_23  and  CBE_24 
REMARK    9  A    between atoms: CBD_29  and  NAX_30 
REMARK       I    between atoms: NAX_30  and  CBC_31 
REMARK   10  A    between atoms: CBC_31  and  CBF_33 
ROOT
HETATM    1  CBH   D T1356       7.980   1.331   8.959  1.00 30.53     0.118 A 
HETATM    2  CAM   D T1356       7.591   1.895   7.738  1.00 29.88     0.045 A 
HETATM    3  CBG   D T1356       7.410   1.812  10.154  1.00 30.48     0.117 A 
HETATM    4  CAN   D T1356       6.476   2.847  10.129  1.00 29.67     0.031 A 
HETATM    5  C5    D T1356       6.082   3.411   8.912  1.00 29.79     0.056 A 
HETATM    6  C4    D T1356       6.644   2.927   7.718  1.00 29.99     0.088 A 
HETATM    7  N3    D T1356       6.280   3.457   6.539  1.00 29.16    -0.224 NA
HETATM    8  C2    D T1356       5.340   4.492   6.483  1.00 30.02     0.200 A 
HETATM    9  N1    D T1356       4.770   4.973   7.675  1.00 29.74    -0.205 NA
HETATM   10  C6    D T1356       5.134   4.447   8.858  1.00 29.94     0.166 A 
ENDROOT
BRANCH  10  11
HETATM   11  NAY   D T1356       4.622   4.888  10.037  1.00 31.31    -0.227 NA
BRANCH  11  12
HETATM   12  CBE   D T1356       3.585   4.240  10.634  1.00 32.67     0.083 A 
HETATM   13  CAK   D T1356       2.361   4.146   9.967  1.00 33.73     0.021 A 
HETATM   14  CAI   D T1356       1.278   3.481  10.548  1.00 34.14     0.021 A 
HETATM   15  CBD   D T1356       1.405   2.874  11.806  1.00 33.99     0.085 A 
HETATM   16  CAH   D T1356       2.625   2.970  12.474  1.00 33.61     0.021 A 
HETATM   17  CAJ   D T1356       3.704   3.637  11.891  1.00 33.42     0.021 A 
BRANCH  15  18
HETATM   18  NAX   D T1356       0.379   2.240  12.424  1.00 34.41    -0.208 NA
HETATM   19  CBC   D T1356      -0.579   2.918  13.100  1.00 37.04     0.279 C 
HETATM   20  OAB   D T1356      -0.632   4.146  13.210  1.00 38.15    -0.265 OA
BRANCH  19  21
HETATM   21  CBF   D T1356      -1.552   2.111  13.697  1.00 37.03     0.058 A 
HETATM   22  CAF   D T1356      -1.171   1.054  14.525  1.00 38.06     0.005 A 
HETATM   23  CAD   D T1356      -2.138   0.243  15.114  1.00 38.28     0.000 A 
HETATM   24  CAC   D T1356      -3.490   0.483  14.878  1.00 38.02     0.000 A 
HETATM   25  CAE   D T1356      -3.874   1.540  14.057  1.00 37.90     0.000 A 
HETATM   26  CAG   D T1356      -2.907   2.347  13.462  1.00 37.23     0.005 A 
ENDBRANCH  19  21
ENDBRANCH  15  18
ENDBRANCH  11  12
ENDBRANCH  10  11
BRANCH   3  27
HETATM   27  OAZ   D T1356       7.809   1.273  11.355  1.00 30.66    -0.326 OA
HETATM   28  CAA   D T1356       6.822   0.548  12.095  1.00 33.36     0.181 C 
ENDBRANCH   3  27
BRANCH   1  29
HETATM   29  OBB   D T1356       8.900   0.317   9.074  1.00 30.55    -0.329 OA
BRANCH  29  30
HETATM   30  CAP   D T1356       8.469  -1.054   8.914  1.00 33.72     0.151 C 
BRANCH  30  31
HETATM   31  CAO   D T1356       8.812  -1.530   7.490  1.00 37.07     0.068 C 
BRANCH  31  32
HETATM   32  CAS   D T1356       9.960  -2.545   7.572  1.00 39.71     0.253 C 
BRANCH  32  33
HETATM   33  NBL   D T1356      10.050  -3.580   6.513  1.00 41.70     0.142 N 
HETATM   34  CAT   D T1356      11.409  -4.129   6.291  1.00 43.12     0.282 C 
HETATM   35  CAQ   D T1356      11.351  -5.283   5.268  1.00 43.52     0.178 C 
HETATM   36  OBA   D T1356       9.957  -5.555   4.886  1.00 44.22    -0.350 OA
HETATM   37  CAR   D T1356       9.268  -4.389   4.317  1.00 43.52     0.178 C 
HETATM   38  CAU   D T1356       9.456  -3.157   5.226  1.00 42.73     0.282 C 
ENDBRANCH  32  33
ENDBRANCH  31  32
ENDBRANCH  30  31
ENDBRANCH  29  30
ENDBRANCH   1  29
TORSDOF 10
ENDMDL
MODEL 3
REMARK VINA RESULT:    -8.122      3.794      9.679
REMARK INTER + INTRA:         -13.863
REMARK INTER:                 -12.110
REMARK INTRA:                  -1.753
REMARK UNBOUND:                -0.992
REMARK  10 active torsions:
REMARK  status: ('A' for Active; 'I' for Inactive)
REMARK    1  A    between atoms: NBL_6  and  CAS_7 
REMARK    2  A    between atoms: CAS_7  and  CAO_8 
REMARK    3  A    between atoms: CAO_8  and  CAP_9 
REMARK    4  A    between atoms: CAP_9  and  OBB_10 
REMARK    5  A    between atoms: OBB_10  and  CBH_11 
REMARK    6  A    between atoms: CBG_13  and  OAZ_14 
REMARK    7  A    between atoms: C6_22  and  NAY_23 
REMARK    8  A    between atoms: NAY_23  and  CBE_24 
REMARK    9  A    between atoms: CBD_29  and  NAX_30 
REMARK       I    between atoms: NAX_30  and  CBC_31 
REMARK   10  A    between atoms: CBC_31  and  CBF_33 
ROOT
HETATM    1  CBH   D T1356       8.112   1.780   8.682  1.00 30.53     0.118 A 
HETATM    2  CAM   D T1356       7.526   2.395   7.569  1.00 29.88     0.045 A 
HETATM    3  CBG   D T1356       7.652   2.105   9.973  1.00 30.48     0.117 A 
HETATM    4  CAN   D T1356       6.631   3.038  10.149  1.00 29.67     0.031 A 
HETATM    5  C5    D T1356       6.039   3.652   9.041  1.00 29.79     0.056 A 
HETATM    6  C4    D T1356       6.492   3.324   7.751  1.00 29.99     0.088 A 
HETATM    7  N3    D T1356       5.939   3.904   6.675  1.00 29.16    -0.224 NA
HETATM    8  C2    D T1356       4.907   4.839   6.821  1.00 30.02     0.200 A 
HETATM    9  N1    D T1356       4.447   5.164   8.108  1.00 29.74    -0.205 NA
HETATM   10  C6    D T1356       5.000   4.587   9.189  1.00 29.94     0.166 A 
ENDROOT
BRANCH  10  11
HETATM   11  NAY   D T1356       4.599   4.879  10.454  1.00 31.31    -0.227 NA
BRANCH  11  12
HETATM   12  CBE   D T1356       3.497   4.289  10.991  1.00 32.67     0.083 A 
HETATM   13  CAK   D T1356       3.640   3.110  11.726  1.00 33.73     0.021 A 
HETATM   14  CAI   D T1356       2.530   2.482  12.298  1.00 34.14     0.021 A 
HETATM   15  CBD   D T1356       1.249   3.038  12.164  1.00 33.99     0.085 A 
HETATM   16  CAH   D T1356       1.104   4.214  11.428  1.00 33.61     0.021 A 
HETATM   17  CAJ   D T1356       2.216   4.836  10.857  1.00 33.42     0.021 A 
BRANCH  15  18
HETATM   18  NAX   D T1356       0.137   2.456  12.676  1.00 34.41    -0.208 NA
HETATM   19  CBC   D T1356       0.027   2.156  13.992  1.00 37.04     0.279 C 
HETATM   20  OAB   D T1356       0.890   2.386  14.845  1.00 38.15    -0.265 OA
BRANCH  19  21
HETATM   21  CBF   D T1356      -1.174   1.539  14.351  1.00 37.03     0.058 A 
HETATM   22  CAF   D T1356      -1.167   0.450  15.224  1.00 38.06     0.005 A 
HETATM   23  CAD   D T1356      -2.363  -0.172  15.576  1.00 38.28     0.000 A 
HETATM   24  CAC   D T1356      -3.571   0.289  15.057  1.00 38.02     0.000 A 
HETATM   25  CAE   D T1356      -3.582   1.379  14.191  1.00 37.90     0.000 A 
HETATM   26  CAG   D T1356      -2.386   1.997  13.832  1.00 37.23     0.005 A 
ENDBRANCH  19  21
ENDBRANCH  15  18
ENDBRANCH  11  12
ENDBRANCH  10  11
BRANCH   3  27
HETATM   27  OAZ   D T1356       8.244   1.517  11.067  1.00 30.66    -0.326 OA
HETATM   28  CAA   D T1356       9.078   2.353  11.875  1.00 33.36     0.181 C 
ENDBRANCH   3  27
BRANCH   1  29
HETATM   29  OBB   D T1356       9.129   0.859   8.599  1.00 30.55    -0.329 OA
BRANCH  29  30
HETATM   30  CAP   D T1356       8.824  -0.503   8.224  1.00 33.72     0.151 C 
BRANCH  30  31
HETATM   31  CAO   D T1356       9.248  -1.448   9.363  1.00 37.07     0.068 C 
BRANCH  31  32
HETATM   32  CAS   D T1356       8.027  -2.267   9.807  1.00 39.71     0.253 C 
BRANCH  32  33
HETATM   33  NBL   D T1356       6.979  -1.578  10.599  1.00 41.70     0.142 N 
HETATM   34  CAT   D T1356       7.122  -1.710  12.069  1.00 43.12     0.282 C 
HETATM   35  CAQ   D T1356       6.060  -0.846  12.782  1.00 43.52     0.178 C 
HETATM   36  OBA   D T1356       5.283  -0.079  11.796  1.00 44.22    -0.350 OA
HETATM   37  CAR   D T1356       4.609  -0.921  10.799  1.00 43.52     0.178 C 
HETATM   38  CAU   D T1356       5.603  -1.930  10.188  1.00 42.73     0.282 C 
ENDBRANCH  32  33
ENDBRANCH  31  32
ENDBRANCH  30  31
ENDBRANCH  29  30
ENDBRANCH   1  29
TORSDOF 10
ENDMDL
MODEL 4
REMARK VINA RESULT:    -7.891      3.858      9.564
REMARK INTER + INTRA:         -13.497
REMARK INTER:                 -12.026
REMARK INTRA:                  -1.471
REMARK UNBOUND:                -0.992
REMARK  10 active torsions:
REMARK  status: ('A' for Active; 'I' for Inactive)
REMARK    1  A    between atoms: NBL_6  and  CAS_7 
REMARK    2  A    between atoms: CAS_7  and  CAO_8 
REMARK    3  A    between atoms: CAO_8  and  CAP_9 
REMARK    4  A    between atoms: CAP_9  and  OBB_10 
REMARK    5  A    between atoms: OBB_10  and  CBH_11 
REMARK    6  A    between atoms: CBG_13  and  OAZ_14 
REMARK    7  A    between atoms: C6_22  and  NAY_23 
REMARK    8  A    between atoms: NAY_23  and  CBE_24 
REMARK    9  A    between atoms: CBD_29  and  NAX_30 
REMARK       I    between atoms: NAX_30  and  CBC_31 
REMARK   10  A    between atoms: CBC_31  and  CBF_33 
ROOT
HETATM    1  CBH   D T1356       7.917   1.326   8.657  1.00 30.53     0.118 A 
HETATM    2  CAM   D T1356       7.475   1.944   7.481  1.00 29.88     0.045 A 
HETATM    3  CBG   D T1356       7.406   1.757   9.897  1.00 30.48     0.117 A 
HETATM    4  CAN   D T1356       6.478   2.795   9.960  1.00 29.67     0.031 A 
HETATM    5  C5    D T1356       6.030   3.413   8.788  1.00 29.79     0.056 A 
HETATM    6  C4    D T1356       6.533   2.979   7.550  1.00 29.99     0.088 A 
HETATM    7  N3    D T1356       6.117   3.560   6.413  1.00 29.16    -0.224 NA
HETATM    8  C2    D T1356       5.181   4.599   6.446  1.00 30.02     0.200 A 
HETATM    9  N1    D T1356       4.670   5.031   7.682  1.00 29.74    -0.205 NA
HETATM   10  C6    D T1356       5.086   4.453   8.823  1.00 29.94     0.166 A 
ENDROOT
BRANCH  10  11
HETATM   11  NAY   D T1356       4.632   4.844  10.043  1.00 31.31    -0.227 NA
BRANCH  11  12
HETATM   12  CBE   D T1356       3.598   4.196  10.644  1.00 32.67     0.083 A 
HETATM   13  CAK   D T1356       3.779   3.649  11.916  1.00 33.73     0.021 A 
HETATM   14  CAI   D T1356       2.736   2.983  12.566  1.00 34.14     0.021 A 
HETATM   15  CBD   D T1356       1.475   2.870  11.960  1.00 33.99     0.085 A 
HETATM   16  CAH   D T1356       1.294   3.414  10.689  1.00 33.61     0.021 A 
HETATM   17  CAJ   D T1356       2.340   4.075  10.043  1.00 33.42     0.021 A 
BRANCH  15  18
HETATM   18  NAX   D T1356       0.439   2.213  12.535  1.00 34.41    -0.208 NA
HETATM   19  CBC   D T1356      -0.530   2.864  13.222  1.00 37.04     0.279 C 
HETATM   20  OAB   D T1356      -0.584   4.088  13.381  1.00 38.15    -0.265 OA
BRANCH  19  21
HETATM   21  CBF   D T1356      -1.512   2.036  13.771  1.00 37.03     0.058 A 
HETATM   22  CAF   D T1356      -2.860   2.272  13.492  1.00 38.06     0.005 A 
HETATM   23  CAD   D T1356      -3.842   1.453  14.044  1.00 38.28     0.000 A 
HETATM   24  CAC   D T1356      -3.484   0.396  14.878  1.00 38.02     0.000 A 
HETATM   25  CAE   D T1356      -2.141   0.154  15.153  1.00 37.90     0.000 A 
HETATM   26  CAG   D T1356      -1.158   0.977  14.607  1.00 37.23     0.005 A 
ENDBRANCH  19  21
ENDBRANCH  15  18
ENDBRANCH  11  12
ENDBRANCH  10  11
BRANCH   3  27
HETATM   27  OAZ   D T1356       7.858   1.166  11.055  1.00 30.66    -0.326 OA
HETATM   28  CAA   D T1356       6.961   1.163  12.169  1.00 33.36     0.181 C 
ENDBRANCH   3  27
BRANCH   1  29
HETATM   29  OBB   D T1356       8.836   0.305   8.686  1.00 30.55    -0.329 OA
BRANCH  29  30
HETATM   30  CAP   D T1356       8.668  -0.825   7.801  1.00 33.72     0.151 C 
BRANCH  30  31
HETATM   31  CAO   D T1356       9.178  -2.097   8.503  1.00 37.07     0.068 C 
BRANCH  31  32
HETATM   32  CAS   D T1356       9.190  -1.855  10.019  1.00 39.71     0.253 C 
BRANCH  32  33
HETATM   33  NBL   D T1356       8.226  -2.615  10.852  1.00 41.70     0.142 N 
HETATM   34  CAT   D T1356       8.448  -4.080  10.880  1.00 43.12     0.282 C 
HETATM   35  CAQ   D T1356       7.474  -4.742  11.878  1.00 43.52     0.178 C 
HETATM   36  OBA   D T1356       6.680  -3.715  12.571  1.00 44.22    -0.350 OA
HETATM   37  CAR   D T1356       5.907  -2.860  11.660  1.00 43.52     0.178 C 
HETATM   38  CAU   D T1356       6.812  -2.320  10.533  1.00 42.73     0.282 C 
ENDBRANCH  32  33
ENDBRANCH  31  32
ENDBRANCH  30  31
ENDBRANCH  29  30
ENDBRANCH   1  29
TORSDOF 10
ENDMDL
MODEL 5
REMARK VINA RESULT:    -7.848      1.865     10.269
REMARK INTER + INTRA:         -13.428
REMARK INTER:                 -13.180
REMARK INTRA:                  -0.247
REMARK UNBOUND:                -0.992
REMARK  10 active torsions:
REMARK  status: ('A' for Active; 'I' for Inactive)
REMARK    1  A    between atoms: NBL_6  and  CAS_7 
REMARK    2  A    between atoms: CAS_7  and  CAO_8 
REMARK    3  A    between atoms: CAO_8  and  CAP_9 
REMARK    4  A    between atoms: CAP_9  and  OBB_10 
REMARK    5  A    between atoms: OBB_10  and  CBH_11 
REMARK    6  A    between atoms: CBG_13  and  OAZ_14 
REMARK    7  A    between atoms: C6_22  and  NAY_23 
REMARK    8  A    between atoms: NAY_23  and  CBE_24 
REMARK    9  A    between atoms: CBD_29  and  NAX_30 
REMARK       I    between atoms: NAX_30  and  CBC_31 
REMARK   10  A    between atoms: CBC_31  and  CBF_33 
ROOT
HETATM    1  CBH   D T1356       1.644   3.670  10.877  1.00 30.53     0.118 A 
HETATM    2  CAM   D T1356       0.501   3.945  10.116  1.00 29.88     0.045 A 
HETATM    3  CBG   D T1356       1.501   3.296  12.227  1.00 30.48     0.117 A 
HETATM    4  CAN   D T1356       0.238   3.209  12.810  1.00 29.67     0.031 A 
HETATM    5  C5    D T1356      -0.907   3.479  12.054  1.00 29.79     0.056 A 
HETATM    6  C4    D T1356      -0.767   3.846  10.704  1.00 29.99     0.088 A 
HETATM    7  N3    D T1356      -1.853   4.111   9.962  1.00 29.16    -0.224 NA
HETATM    8  C2    D T1356      -3.134   4.026  10.518  1.00 30.02     0.200 A 
HETATM    9  N1    D T1356      -3.279   3.653  11.865  1.00 29.74    -0.205 NA
HETATM   10  C6    D T1356      -2.193   3.388  12.613  1.00 29.94     0.166 A 
ENDROOT
BRANCH  10  11
HETATM   11  NAY   D T1356      -2.281   3.037  13.923  1.00 31.31    -0.227 NA
BRANCH  11  12
HETATM   12  CBE   D T1356      -1.975   1.775  14.330  1.00 32.67     0.083 A 
HETATM   13  CAK   D T1356      -2.853   0.729  14.037  1.00 33.73     0.021 A 
HETATM   14  CAI   D T1356      -2.566  -0.580  14.433  1.00 34.14     0.021 A 
HETATM   15  CBD   D T1356      -1.375  -0.874  15.116  1.00 33.99     0.085 A 
HETATM   16  CAH   D T1356      -0.500   0.170  15.411  1.00 33.61     0.021 A 
HETATM   17  CAJ   D T1356      -0.792   1.477  15.016  1.00 33.42     0.021 A 
BRANCH  15  18
HETATM   18  NAX   D T1356      -1.062  -2.120  15.544  1.00 34.41    -0.208 NA
HETATM   19  CBC   D T1356      -1.926  -2.866  16.274  1.00 37.04     0.279 C 
HETATM   20  OAB   D T1356      -3.062  -2.512  16.604  1.00 38.15    -0.265 OA
BRANCH  19  21
HETATM   21  CBF   D T1356      -1.437  -4.119  16.653  1.00 37.03     0.058 A 
HETATM   22  CAF   D T1356      -0.113  -4.464  16.380  1.00 38.06     0.005 A 
HETATM   23  CAD   D T1356       0.375  -5.716  16.749  1.00 38.28     0.000 A 
HETATM   24  CAC   D T1356      -0.459  -6.630  17.391  1.00 38.02     0.000 A 
HETATM   25  CAE   D T1356      -1.779  -6.286  17.671  1.00 37.90     0.000 A 
HETATM   26  CAG   D T1356      -2.269  -5.037  17.295  1.00 37.23     0.005 A 
ENDBRANCH  19  21
ENDBRANCH  15  18
ENDBRANCH  11  12
ENDBRANCH  10  11
BRANCH   3  27
HETATM   27  OAZ   D T1356       2.626   3.047  12.980  1.00 30.66    -0.326 OA
HETATM   28  CAA   D T1356       2.579   1.915  13.854  1.00 33.36     0.181 C 
ENDBRANCH   3  27
BRANCH   1  29
HETATM   29  OBB   D T1356       2.925   3.741  10.384  1.00 30.55    -0.329 OA
BRANCH  29  30
HETATM   30  CAP   D T1356       3.564   5.031  10.253  1.00 33.72     0.151 C 
BRANCH  30  31
HETATM   31  CAO   D T1356       4.151   5.163   8.835  1.00 37.07     0.068 C 
BRANCH  31  32
HETATM   32  CAS   D T1356       5.669   5.364   8.947  1.00 39.71     0.253 C 
BRANCH  32  33
HETATM   33  NBL   D T1356       6.552   4.365   8.296  1.00 41.70     0.142 N 
HETATM   34  CAT   D T1356       6.759   4.568   6.843  1.00 43.12     0.282 C 
HETATM   35  CAQ   D T1356       7.793   3.555   6.310  1.00 43.52     0.178 C 
HETATM   36  OBA   D T1356       8.334   2.750   7.417  1.00 44.22    -0.350 OA
HETATM   37  CAR   D T1356       7.304   2.018   8.165  1.00 43.52     0.178 C 
HETATM   38  CAU   D T1356       6.153   2.965   8.563  1.00 42.73     0.282 C 
ENDBRANCH  32  33
ENDBRANCH  31  32
ENDBRANCH  30  31
ENDBRANCH  29  30
ENDBRANCH   1  29
TORSDOF 10
ENDMDL
MODEL 6
REMARK VINA RESULT:    -7.705      4.025     10.659
REMARK INTER + INTRA:         -13.202
REMARK INTER:                 -10.679
REMARK INTRA:                  -2.523
REMARK UNBOUND:                -0.992
REMARK  10 active torsions:
REMARK  status: ('A' for Active; 'I' for Inactive)
REMARK    1  A    between atoms: NBL_6  and  CAS_7 
REMARK    2  A    between atoms: CAS_7  and  CAO_8 
REMARK    3  A    between atoms: CAO_8  and  CAP_9 
REMARK    4  A    between atoms: CAP_9  and  OBB_10 
REMARK    5  A    between atoms: OBB_10  and  CBH_11 
REMARK    6  A    between atoms: CBG_13  and  OAZ_14 
REMARK    7  A    between atoms: C6_22  and  NAY_23 
REMARK    8  A    between atoms: NAY_23  and  CBE_24 
REMARK    9  A    between atoms: CBD_29  and  NAX_30 
REMARK       I    between atoms: NAX_30  and  CBC_31 
REMARK   10  A    between atoms: CBC_31  and  CBF_33 
ROOT
HETATM    1  CBH   D T1356       7.807   2.164   9.051  1.00 30.53     0.118 A 
HETATM    2  CAM   D T1356       7.970   0.816   8.708  1.00 29.88     0.045 A 
HETATM    3  CBG   D T1356       7.356   2.497  10.343  1.00 30.48     0.117 A 
HETATM    4  CAN   D T1356       7.064   1.500  11.272  1.00 29.67     0.031 A 
HETATM    5  C5    D T1356       7.230   0.153  10.936  1.00 29.79     0.056 A 
HETATM    6  C4    D T1356       7.686  -0.181   9.649  1.00 29.99     0.088 A 
HETATM    7  N3    D T1356       7.849  -1.469   9.306  1.00 29.16    -0.224 NA
HETATM    8  C2    D T1356       7.570  -2.491  10.221  1.00 30.02     0.200 A 
HETATM    9  N1    D T1356       7.121  -2.160  11.510  1.00 29.74    -0.205 NA
HETATM   10  C6    D T1356       6.954  -0.872  11.857  1.00 29.94     0.166 A 
ENDROOT
BRANCH  10  11
HETATM   11  NAY   D T1356       6.509  -0.502  13.087  1.00 31.31    -0.227 NA
BRANCH  11  12
HETATM   12  CBE   D T1356       5.183  -0.300  13.319  1.00 32.67     0.083 A 
HETATM   13  CAK   D T1356       4.790   0.644  14.270  1.00 33.73     0.021 A 
HETATM   14  CAI   D T1356       3.437   0.883  14.527  1.00 34.14     0.021 A 
HETATM   15  CBD   D T1356       2.444   0.192  13.815  1.00 33.99     0.085 A 
HETATM   16  CAH   D T1356       2.835  -0.752  12.867  1.00 33.61     0.021 A 
HETATM   17  CAJ   D T1356       4.188  -0.989  12.616  1.00 33.42     0.021 A 
BRANCH  15  18
HETATM   18  NAX   D T1356       1.120   0.367  14.043  1.00 34.41    -0.208 NA
HETATM   19  CBC   D T1356       0.424   1.385  13.482  1.00 37.04     0.279 C 
HETATM   20  OAB   D T1356       0.898   2.227  12.713  1.00 38.15    -0.265 OA
BRANCH  19  21
HETATM   21  CBF   D T1356      -0.926   1.434  13.839  1.00 37.03     0.058 A 
HETATM   22  CAF   D T1356      -1.714   2.518  13.446  1.00 38.06     0.005 A 
HETATM   23  CAD   D T1356      -3.058   2.573  13.807  1.00 38.28     0.000 A 
HETATM   24  CAC   D T1356      -3.622   1.549  14.565  1.00 38.02     0.000 A 
HETATM   25  CAE   D T1356      -2.841   0.463  14.953  1.00 37.90     0.000 A 
HETATM   26  CAG   D T1356      -1.495   0.411  14.598  1.00 37.23     0.005 A 
ENDBRANCH  19  21
ENDBRANCH  15  18
ENDBRANCH  11  12
ENDBRANCH  10  11
BRANCH   3  27
HETATM   27  OAZ   D T1356       7.174   3.821  10.672  1.00 30.66    -0.326 OA
HETATM   28  CAA   D T1356       7.316   4.166  12.054  1.00 33.36     0.181 C 
ENDBRANCH   3  27
BRANCH   1  29
HETATM   29  OBB   D T1356       8.061   3.207   8.194  1.00 30.55    -0.329 OA
BRANCH  29  30
HETATM   30  CAP   D T1356       7.103   3.525   7.159  1.00 33.72     0.151 C 
BRANCH  30  31
HETATM   31  CAO   D T1356       6.370   4.827   7.530  1.00 37.07     0.068 C 
BRANCH  31  32
HETATM   32  CAS   D T1356       4.874   4.521   7.697  1.00 39.71     0.253 C 
BRANCH  32  33
HETATM   33  NBL   D T1356       4.420   3.957   8.992  1.00 41.70     0.142 N 
HETATM   34  CAT   D T1356       3.900   2.571   8.920  1.00 43.12     0.282 C 
HETATM   35  CAQ   D T1356       3.587   2.051  10.339  1.00 43.52     0.178 C 
HETATM   36  OBA   D T1356       3.983   3.049  11.345  1.00 44.22    -0.350 OA
HETATM   37  CAR   D T1356       3.326   4.351  11.168  1.00 43.52     0.178 C 
HETATM   38  CAU   D T1356       3.459   4.826   9.707  1.00 42.73     0.282 C 
ENDBRANCH  32  33
ENDBRANCH  31  32
ENDBRANCH  30  31
ENDBRANCH  29  30
ENDBRANCH   1  29
TORSDOF 10
ENDMDL
MODEL 7
REMARK VINA RESULT:    -7.585      3.997      9.795
REMARK INTER + INTRA:         -13.011
REMARK INTER:                 -11.252
REMARK INTRA:                  -1.759
REMARK UNBOUND:                -0.992
REMARK  10 active torsions:
REMARK  status: ('A' for Active; 'I' for Inactive)
REMARK    1  A    between atoms: NBL_6  and  CAS_7 
REMARK    2  A    between atoms: CAS_7  and  CAO_8 
REMARK    3  A    between atoms: CAO_8  and  CAP_9 
REMARK    4  A    between atoms: CAP_9  and  OBB_10 
REMARK    5  A    between atoms: OBB_10  and  CBH_11 
REMARK    6  A    between atoms: CBG_13  and  OAZ_14 
REMARK    7  A    between atoms: C6_22  and  NAY_23 
REMARK    8  A    between atoms: NAY_23  and  CBE_24 
REMARK    9  A    between atoms: CBD_29  and  NAX_30 
REMARK       I    between atoms: NAX_30  and  CBC_31 
REMARK   10  A    between atoms: CBC_31  and  CBF_33 
ROOT
HETATM    1  CBH   D T1356       9.441   2.360  11.058  1.00 30.53     0.118 A 
HETATM    2  CAM   D T1356       9.170   2.142   9.702  1.00 29.88     0.045 A 
HETATM    3  CBG   D T1356       8.527   3.098  11.836  1.00 30.48     0.117 A 
HETATM    4  CAN   D T1356       7.367   3.618  11.263  1.00 29.67     0.031 A 
HETATM    5  C5    D T1356       7.089   3.401   9.910  1.00 29.79     0.056 A 
HETATM    6  C4    D T1356       7.997   2.658   9.135  1.00 29.99     0.088 A 
HETATM    7  N3    D T1356       7.750   2.440   7.833  1.00 29.16    -0.224 NA
HETATM    8  C2    D T1356       6.590   2.945   7.234  1.00 30.02     0.200 A 
HETATM    9  N1    D T1356       5.677   3.681   8.008  1.00 29.74    -0.205 NA
HETATM   10  C6    D T1356       5.922   3.904   9.312  1.00 29.94     0.166 A 
ENDROOT
BRANCH  10  11
HETATM   11  NAY   D T1356       5.076   4.621  10.098  1.00 31.31    -0.227 NA
BRANCH  11  12
HETATM   12  CBE   D T1356       3.986   4.038  10.664  1.00 32.67     0.083 A 
HETATM   13  CAK   D T1356       4.096   3.469  11.935  1.00 33.73     0.021 A 
HETATM   14  CAI   D T1356       2.994   2.869  12.550  1.00 34.14     0.021 A 
HETATM   15  CBD   D T1356       1.745   2.846  11.910  1.00 33.99     0.085 A 
HETATM   16  CAH   D T1356       1.635   3.412  10.640  1.00 33.61     0.021 A 
HETATM   17  CAJ   D T1356       2.739   4.008  10.029  1.00 33.42     0.021 A 
BRANCH  15  18
HETATM   18  NAX   D T1356       0.652   2.255  12.450  1.00 34.41    -0.208 NA
HETATM   19  CBC   D T1356      -0.258   2.953  13.172  1.00 37.04     0.279 C 
HETATM   20  OAB   D T1356      -0.203   4.166  13.395  1.00 38.15    -0.265 OA
BRANCH  19  21
HETATM   21  CBF   D T1356      -1.312   2.187  13.676  1.00 37.03     0.058 A 
HETATM   22  CAF   D T1356      -2.631   2.522  13.361  1.00 38.06     0.005 A 
HETATM   23  CAD   D T1356      -3.685   1.765  13.870  1.00 38.28     0.000 A 
HETATM   24  CAC   D T1356      -3.427   0.674  14.696  1.00 38.02     0.000 A 
HETATM   25  CAE   D T1356      -2.113   0.334  15.007  1.00 37.90     0.000 A 
HETATM   26  CAG   D T1356      -1.059   1.094  14.505  1.00 37.23     0.005 A 
ENDBRANCH  19  21
ENDBRANCH  15  18
ENDBRANCH  11  12
ENDBRANCH  10  11
BRANCH   3  27
HETATM   27  OAZ   D T1356       8.805   3.330  13.163  1.00 30.66    -0.326 OA
HETATM   28  CAA   D T1356       8.096   4.403  13.791  1.00 33.36     0.181 C 
ENDBRANCH   3  27
BRANCH   1  29
HETATM   29  OBB   D T1356      10.564   1.892  11.698  1.00 30.55    -0.329 OA
BRANCH  29  30
HETATM   30  CAP   D T1356      10.857   0.477  11.672  1.00 33.72     0.151 C 
BRANCH  30  31
HETATM   31  CAO   D T1356       9.660  -0.299  12.250  1.00 37.07     0.068 C 
BRANCH  31  32
HETATM   32  CAS   D T1356       9.303  -1.444  11.290  1.00 39.71     0.253 C 
BRANCH  32  33
HETATM   33  NBL   D T1356       7.869  -1.682  10.994  1.00 41.70     0.142 N 
HETATM   34  CAT   D T1356       7.012  -0.474  11.055  1.00 43.12     0.282 C 
HETATM   35  CAQ   D T1356       5.578  -0.822  10.601  1.00 43.52     0.178 C 
HETATM   36  OBA   D T1356       5.511  -2.223  10.157  1.00 44.22    -0.350 OA
HETATM   37  CAR   D T1356       5.921  -3.184  11.189  1.00 43.52     0.178 C 
HETATM   38  CAU   D T1356       7.275  -2.770  11.802  1.00 42.73     0.282 C 
ENDBRANCH  32  33
ENDBRANCH  31  32
ENDBRANCH  30  31
ENDBRANCH  29  30
ENDBRANCH   1  29
TORSDOF 10
ENDMDL
MODEL 8
REMARK VINA RESULT:    -7.390      4.188     10.388
REMARK INTER + INTRA:         -12.702
REMARK INTER:                 -11.412
REMARK INTRA:                  -1.290
REMARK UNBOUND:                -0.992
REMARK  10 active torsions:
REMARK  status: ('A' for Active; 'I' for Inactive)
REMARK    1  A    between atoms: NBL_6  and  CAS_7 
REMARK    2  A    between atoms: CAS_7  and  CAO_8 
REMARK    3  A    between atoms: CAO_8  and  CAP_9 
REMARK    4  A    between atoms: CAP_9  and  OBB_10 
REMARK    5  A    between atoms: OBB_10  and  CBH_11 
REMARK    6  A    between atoms: CBG_13  and  OAZ_14 
REMARK    7  A    between atoms: C6_22  and  NAY_23 
REMARK    8  A    between atoms: NAY_23  and  CBE_24 
REMARK    9  A    between atoms: CBD_29  and  NAX_30 
REMARK       I    between atoms: NAX_30  and  CBC_31 
REMARK   10  A    between atoms: CBC_31  and  CBF_33 
ROOT
HETATM    1  CBH   D T1356       8.012   1.299   8.533  1.00 30.53     0.118 A 
HETATM    2  CAM   D T1356       7.555   1.941   7.376  1.00 29.88     0.045 A 
HETATM    3  CBG   D T1356       7.523   1.710   9.789  1.00 30.48     0.117 A 
HETATM    4  CAN   D T1356       6.601   2.751   9.886  1.00 29.67     0.031 A 
HETATM    5  C5    D T1356       6.138   3.392   8.732  1.00 29.79     0.056 A 
HETATM    6  C4    D T1356       6.620   2.979   7.478  1.00 29.99     0.088 A 
HETATM    7  N3    D T1356       6.190   3.584   6.359  1.00 29.16    -0.224 NA
HETATM    8  C2    D T1356       5.260   4.627   6.426  1.00 30.02     0.200 A 
HETATM    9  N1    D T1356       4.770   5.037   7.677  1.00 29.74    -0.205 NA
HETATM   10  C6    D T1356       5.200   4.436   8.801  1.00 29.94     0.166 A 
ENDROOT
BRANCH  10  11
HETATM   11  NAY   D T1356       4.767   4.807  10.035  1.00 31.31    -0.227 NA
BRANCH  11  12
HETATM   12  CBE   D T1356       3.710   4.182  10.621  1.00 32.67     0.083 A 
HETATM   13  CAK   D T1356       3.871   3.597  11.879  1.00 33.73     0.021 A 
HETATM   14  CAI   D T1356       2.804   2.954  12.513  1.00 34.14     0.021 A 
HETATM   15  CBD   D T1356       1.540   2.903  11.905  1.00 33.99     0.085 A 
HETATM   16  CAH   D T1356       1.379   3.484  10.648  1.00 33.61     0.021 A 
HETATM   17  CAJ   D T1356       2.449   4.123  10.018  1.00 33.42     0.021 A 
BRANCH  15  18
HETATM   18  NAX   D T1356       0.481   2.271  12.465  1.00 34.41    -0.208 NA
HETATM   19  CBC   D T1356      -0.427   2.928  13.226  1.00 37.04     0.279 C 
HETATM   20  OAB   D T1356      -0.400   4.138  13.472  1.00 38.15    -0.265 OA
BRANCH  19  21
HETATM   21  CBF   D T1356      -1.445   2.123  13.745  1.00 37.03     0.058 A 
HETATM   22  CAF   D T1356      -1.134   1.086  14.625  1.00 38.06     0.005 A 
HETATM   23  CAD   D T1356      -2.146   0.276  15.137  1.00 38.28     0.000 A 
HETATM   24  CAC   D T1356      -3.472   0.498  14.771  1.00 38.02     0.000 A 
HETATM   25  CAE   D T1356      -3.785   1.536  13.898  1.00 37.90     0.000 A 
HETATM   26  CAG   D T1356      -2.773   2.341  13.379  1.00 37.23     0.005 A 
ENDBRANCH  19  21
ENDBRANCH  15  18
ENDBRANCH  11  12
ENDBRANCH  10  11
BRANCH   3  27
HETATM   27  OAZ   D T1356       7.989   1.094  10.928  1.00 30.66    -0.326 OA
HETATM   28  CAA   D T1356       7.053   0.922  11.996  1.00 33.36     0.181 C 
ENDBRANCH   3  27
BRANCH   1  29
HETATM   29  OBB   D T1356       8.926   0.274   8.528  1.00 30.55    -0.329 OA
BRANCH  29  30
HETATM   30  CAP   D T1356       8.560  -1.000   7.951  1.00 33.72     0.151 C 
BRANCH  30  31
HETATM   31  CAO   D T1356       9.322  -2.123   8.679  1.00 37.07     0.068 C 
BRANCH  31  32
HETATM   32  CAS   D T1356      10.735  -1.625   9.015  1.00 39.71     0.253 C 
BRANCH  32  33
HETATM   33  NBL   D T1356      11.157  -1.641  10.437  1.00 41.70     0.142 N 
HETATM   34  CAT   D T1356      11.280  -0.305  11.066  1.00 43.12     0.282 C 
HETATM   35  CAQ   D T1356      11.591  -0.456  12.570  1.00 43.52     0.178 C 
HETATM   36  OBA   D T1356      11.583  -1.877  12.951  1.00 44.22    -0.350 OA
HETATM   37  CAR   D T1356      12.540  -2.692  12.190  1.00 43.52     0.178 C 
HETATM   38  CAU   D T1356      12.384  -2.432  10.678  1.00 42.73     0.282 C 
ENDBRANCH  32  33
ENDBRANCH  31  32
ENDBRANCH  30  31
ENDBRANCH  29  30
ENDBRANCH   1  29
TORSDOF 10
ENDMDL
MODEL 9
REMARK VINA RESULT:    -7.235      2.517      3.906
REMARK INTER + INTRA:         -12.456
REMARK INTER:                 -11.237
REMARK INTRA:                  -1.219
REMARK UNBOUND:                -0.992
REMARK  10 active torsions:
REMARK  status: ('A' for Active; 'I' for Inactive)
REMARK    1  A    between atoms: NBL_6  and  CAS_7 
REMARK    2  A    between atoms: CAS_7  and  CAO_8 
REMARK    3  A    between atoms: CAO_8  and  CAP_9 
REMARK    4  A    between atoms: CAP_9  and  OBB_10 
REMARK    5  A    between atoms: OBB_10  and  CBH_11 
REMARK    6  A    between atoms: CBG_13  and  OAZ_14 
REMARK    7  A    between atoms: C6_22  and  NAY_23 
REMARK    8  A    between atoms: NAY_23  and  CBE_24 
REMARK    9  A    between atoms: CBD_29  and  NAX_30 
REMARK       I    between atoms: NAX_30  and  CBC_31 
REMARK   10  A    between atoms: CBC_31  and  CBF_33 
ROOT
HETATM    1  CBH   D T1356      -2.058  -3.748  16.484  1.00 30.53     0.118 A 
HETATM    2  CAM   D T1356      -2.862  -2.643  16.177  1.00 29.88     0.045 A 
HETATM    3  CBG   D T1356      -0.675  -3.690  16.221  1.00 30.48     0.117 A 
HETATM    4  CAN   D T1356      -0.108  -2.551  15.652  1.00 29.67     0.031 A 
HETATM    5  C5    D T1356      -0.906  -1.443  15.347  1.00 29.79     0.056 A 
HETATM    6  C4    D T1356      -2.285  -1.497  15.615  1.00 29.99     0.088 A 
HETATM    7  N3    D T1356      -3.068  -0.445  15.328  1.00 29.16    -0.224 NA
HETATM    8  C2    D T1356      -2.524   0.714  14.763  1.00 30.02     0.200 A 
HETATM    9  N1    D T1356      -1.145   0.774  14.500  1.00 29.74    -0.205 NA
HETATM   10  C6    D T1356      -0.358  -0.278  14.784  1.00 29.94     0.166 A 
ENDROOT
BRANCH  10  11
HETATM   11  NAY   D T1356       0.979  -0.274  14.536  1.00 31.31    -0.227 NA
BRANCH  11  12
HETATM   12  CBE   D T1356       1.487   0.384  13.458  1.00 32.67     0.083 A 
HETATM   13  CAK   D T1356       1.775  -0.330  12.293  1.00 33.73     0.021 A 
HETATM   14  CAI   D T1356       2.290   0.315  11.165  1.00 34.14     0.021 A 
HETATM   15  CBD   D T1356       2.507   1.702  11.175  1.00 33.99     0.085 A 
HETATM   16  CAH   D T1356       2.222   2.415  12.338  1.00 33.61     0.021 A 
HETATM   17  CAJ   D T1356       1.710   1.765  13.463  1.00 33.42     0.021 A 
BRANCH  15  18
HETATM   18  NAX   D T1356       3.028   2.372  10.118  1.00 34.41    -0.208 NA
HETATM   19  CBC   D T1356       4.339   2.706  10.057  1.00 37.04     0.279 C 
HETATM   20  OAB   D T1356       5.180   2.432  10.919  1.00 38.15    -0.265 OA
BRANCH  19  21
HETATM   21  CBF   D T1356       4.707   3.413   8.910  1.00 37.03     0.058 A 
HETATM   22  CAF   D T1356       4.152   4.669   8.655  1.00 38.06     0.005 A 
HETATM   23  CAD   D T1356       4.511   5.372   7.508  1.00 38.28     0.000 A 
HETATM   24  CAC   D T1356       5.424   4.825   6.608  1.00 38.02     0.000 A 
HETATM   25  CAE   D T1356       5.984   3.577   6.863  1.00 37.90     0.000 A 
HETATM   26  CAG   D T1356       5.620   2.869   8.006  1.00 37.23     0.005 A 
ENDBRANCH  19  21
ENDBRANCH  15  18
ENDBRANCH  11  12
ENDBRANCH  10  11
BRANCH   3  27
HETATM   27  OAZ   D T1356       0.110  -4.785  16.501  1.00 30.66    -0.326 OA
HETATM   28  CAA   D T1356       1.326  -4.539  17.215  1.00 33.36     0.181 C 
ENDBRANCH   3  27
BRANCH   1  29
HETATM   29  OBB   D T1356      -2.537  -4.912  17.036  1.00 30.55    -0.329 OA
BRANCH  29  30
HETATM   30  CAP   D T1356      -3.855  -4.926  17.627  1.00 33.72     0.151 C 
BRANCH  30  31
HETATM   31  CAO   D T1356      -3.950  -6.095  18.625  1.00 37.07     0.068 C 
BRANCH  31  32
HETATM   32  CAS   D T1356      -2.538  -6.643  18.880  1.00 39.71     0.253 C 
BRANCH  32  33
HETATM   33  NBL   D T1356      -2.189  -7.963  18.300  1.00 41.70     0.142 N 
HETATM   34  CAT   D T1356      -0.881  -8.012  17.605  1.00 43.12     0.282 C 
HETATM   35  CAQ   D T1356      -0.572  -9.458  17.165  1.00 43.52     0.178 C 
HETATM   36  OBA   D T1356      -1.621 -10.371  17.645  1.00 44.22    -0.350 OA
HETATM   37  CAR   D T1356      -2.966 -10.017  17.174  1.00 43.52     0.178 C 
HETATM   38  CAU   D T1356      -3.248  -8.522  17.432  1.00 42.73     0.282 C 
ENDBRANCH  32  33
ENDBRANCH  31  32
ENDBRANCH  30  31
ENDBRANCH  29  30
ENDBRANCH   1  29
TORSDOF 10
ENDMDL
