MODEL 1
REMARK VINA RESULT:    -8.261      0.000      0.000
REMARK INTER + INTRA:         -14.729
REMARK INTER:                 -13.091
REMARK INTRA:                  -1.638
REMARK UNBOUND:                -1.638
REMARK  10 active torsions:
REMARK  status: ('A' for Active; 'I' for Inactive)
REMARK    1  A    between atoms: NBL_6  and  CAS_7 
REMARK    2  A    between atoms: CAS_7  and  CAO_8 
REMARK    3  A    between atoms: CAO_8  and  CAP_9 
REMARK    4  A    between atoms: CAP_9  and  OBB_10 
REMARK    5  A    between atoms: OBB_10  and  CBH_11 
REMARK    6  A    between atoms: CBG_13  and  OAZ_14 
REMARK    7  A    between atoms: C6_22  and  NAY_23 
REMARK    8  A    between atoms: NAY_23  and  CBE_24 
REMARK    9  A    between atoms: CBD_29  and  NAX_30 
REMARK       I    between atoms: NAX_30  and  CBC_31 
REMARK   10  A    between atoms: CBC_31  and  CBF_33 
ROOT
HETATM    1  CBH   D T1356      -2.819  12.182  -9.417  1.00 30.53     0.118 A 
HETATM    2  CAM   D T1356      -3.053  10.814  -9.230  1.00 29.88     0.045 A 
HETATM    3  CBG   D T1356      -1.998  12.874  -8.504  1.00 30.48     0.117 A 
HETATM    4  CAN   D T1356      -1.430  12.209  -7.416  1.00 29.67     0.031 A 
HETATM    5  C5    D T1356      -1.658  10.842  -7.228  1.00 29.79     0.056 A 
HETATM    6  C4    D T1356      -2.471  10.151  -8.142  1.00 29.99     0.088 A 
HETATM    7  N3    D T1356      -2.704   8.838  -7.977  1.00 29.16    -0.224 NA
HETATM    8  C2    D T1356      -2.141   8.146  -6.898  1.00 30.02     0.200 A 
HETATM    9  N1    D T1356      -1.322   8.834  -5.987  1.00 29.74    -0.205 NA
HETATM   10  C6    D T1356      -1.089  10.149  -6.146  1.00 29.94     0.166 A 
ENDROOT
BRANCH  10  11
HETATM   11  NAY   D T1356      -0.316  10.860  -5.285  1.00 31.31    -0.227 NA
BRANCH  11  12
HETATM   12  CBE   D T1356       1.015  10.599  -5.164  1.00 32.67     0.083 A 
HETATM   13  CAK   D T1356       1.790  10.448  -6.315  1.00 33.73     0.021 A 
HETATM   14  CAI   D T1356       3.161  10.189  -6.227  1.00 34.14     0.021 A 
HETATM   15  CBD   D T1356       3.790  10.097  -4.976  1.00 33.99     0.085 A 
HETATM   16  CAH   D T1356       3.016  10.245  -3.826  1.00 33.61     0.021 A 
HETATM   17  CAJ   D T1356       1.647  10.502  -3.920  1.00 33.42     0.021 A 
BRANCH  15  18
HETATM   18  NAX   D T1356       5.110   9.822  -4.834  1.00 34.41    -0.208 NA
HETATM   19  CBC   D T1356       5.598   8.565  -4.975  1.00 37.04     0.279 C 
HETATM   20  OAB   D T1356       4.923   7.571  -5.256  1.00 38.15    -0.265 OA
BRANCH  19  21
HETATM   21  CBF   D T1356       6.977   8.452  -4.773  1.00 37.03     0.058 A 
HETATM   22  CAF   D T1356       7.528   8.772  -3.530  1.00 38.06     0.005 A 
HETATM   23  CAD   D T1356       8.902   8.669  -3.328  1.00 38.28     0.000 A 
HETATM   24  CAC   D T1356       9.732   8.248  -4.366  1.00 38.02     0.000 A 
HETATM   25  CAE   D T1356       9.185   7.922  -5.603  1.00 37.90     0.000 A 
HETATM   26  CAG   D T1356       7.812   8.033  -5.808  1.00 37.23     0.005 A 
ENDBRANCH  19  21
ENDBRANCH  15  18
ENDBRANCH  11  12
ENDBRANCH  10  11
BRANCH   3  27
HETATM   27  OAZ   D T1356      -1.787  14.222  -8.675  1.00 30.66    -0.326 OA
HETATM   28  CAA   D T1356      -0.429  14.647  -8.824  1.00 33.36     0.181 C 
ENDBRANCH   3  27
BRANCH   1  29
HETATM   29  OBB   D T1356      -3.346  12.913 -10.453  1.00 30.55    -0.329 OA
BRANCH  29  30
HETATM   30  CAP   D T1356      -4.324  12.303 -11.326  1.00 33.72     0.151 C 
BRANCH  30  31
HETATM   31  CAO   D T1356      -3.623  11.808 -12.604  1.00 37.07     0.068 C 
BRANCH  31  32
HETATM   32  CAS   D T1356      -3.924  10.313 -12.787  1.00 39.71     0.253 C 
BRANCH  32  33
HETATM   33  NBL   D T1356      -2.796   9.358 -12.673  1.00 41.70     0.142 N 
HETATM   34  CAT   D T1356      -1.478   9.978 -12.404  1.00 43.12     0.282 C 
HETATM   35  CAQ   D T1356      -0.415   8.882 -12.175  1.00 43.52     0.178 C 
HETATM   36  OBA   D T1356      -1.042   7.552 -12.201  1.00 44.22    -0.350 OA
HETATM   37  CAR   D T1356      -1.750   7.265 -13.456  1.00 43.52     0.178 C 
HETATM   38  CAU   D T1356      -2.697   8.427 -13.819  1.00 42.73     0.282 C 
ENDBRANCH  32  33
ENDBRANCH  31  32
ENDBRANCH  30  31
ENDBRANCH  29  30
ENDBRANCH   1  29
TORSDOF 10
ENDMDL
MODEL 2
REMARK VINA RESULT:    -8.221      2.134      9.984
REMARK INTER + INTRA:         -14.664
REMARK INTER:                 -13.174
REMARK INTRA:                  -1.490
REMARK UNBOUND:                -1.638
REMARK  10 active torsions:
REMARK  status: ('A' for Active; 'I' for Inactive)
REMARK    1  A    between atoms: NBL_6  and  CAS_7 
REMARK    2  A    between atoms: CAS_7  and  CAO_8 
REMARK    3  A    between atoms: CAO_8  and  CAP_9 
REMARK    4  A    between atoms: CAP_9  and  OBB_10 
REMARK    5  A    between atoms: OBB_10  and  CBH_11 
REMARK    6  A    between atoms: CBG_13  and  OAZ_14 
REMARK    7  A    between atoms: C6_22  and  NAY_23 
REMARK    8  A    between atoms: NAY_23  and  CBE_24 
REMARK    9  A    between atoms: CBD_29  and  NAX_30 
REMARK       I    between atoms: NAX_30  and  CBC_31 
REMARK   10  A    between atoms: CBC_31  and  CBF_33 
ROOT
HETATM    1  CBH   D T1356       4.103  10.445  -5.605  1.00 30.53     0.118 A 
HETATM    2  CAM   D T1356       3.561  10.093  -4.363  1.00 29.88     0.045 A 
HETATM    3  CBG   D T1356       3.421  11.369  -6.421  1.00 30.48     0.117 A 
HETATM    4  CAN   D T1356       2.209  11.922  -6.006  1.00 29.67     0.031 A 
HETATM    5  C5    D T1356       1.665  11.576  -4.765  1.00 29.79     0.056 A 
HETATM    6  C4    D T1356       2.348  10.660  -3.948  1.00 29.99     0.088 A 
HETATM    7  N3    D T1356       1.841  10.313  -2.754  1.00 29.16    -0.224 NA
HETATM    8  C2    D T1356       0.630  10.858  -2.310  1.00 30.02     0.200 A 
HETATM    9  N1    D T1356      -0.052  11.780  -3.122  1.00 29.74    -0.205 NA
HETATM   10  C6    D T1356       0.451  12.127  -4.320  1.00 29.94     0.166 A 
ENDROOT
BRANCH  10  11
HETATM   11  NAY   D T1356      -0.178  13.003  -5.147  1.00 31.31    -0.227 NA
BRANCH  11  12
HETATM   12  CBE   D T1356      -0.788  12.572  -6.286  1.00 32.67     0.083 A 
HETATM   13  CAK   D T1356      -0.595  13.277  -7.474  1.00 33.73     0.021 A 
HETATM   14  CAI   D T1356      -1.199  12.859  -8.664  1.00 34.14     0.021 A 
HETATM   15  CBD   D T1356      -1.996  11.705  -8.689  1.00 33.99     0.085 A 
HETATM   16  CAH   D T1356      -2.193  11.001  -7.502  1.00 33.61     0.021 A 
HETATM   17  CAJ   D T1356      -1.589  11.426  -6.317  1.00 33.42     0.021 A 
BRANCH  15  18
HETATM   18  NAX   D T1356      -2.626  11.270  -9.808  1.00 34.41    -0.208 NA
HETATM   19  CBC   D T1356      -2.032  10.414 -10.676  1.00 37.04     0.279 C 
HETATM   20  OAB   D T1356      -0.901   9.939 -10.539  1.00 38.15    -0.265 OA
BRANCH  19  21
HETATM   21  CBF   D T1356      -2.811  10.083 -11.789  1.00 37.03     0.058 A 
HETATM   22  CAF   D T1356      -4.043  10.709 -11.989  1.00 38.06     0.005 A 
HETATM   23  CAD   D T1356      -4.825  10.377 -13.092  1.00 38.28     0.000 A 
HETATM   24  CAC   D T1356      -4.382   9.416 -13.999  1.00 38.02     0.000 A 
HETATM   25  CAE   D T1356      -3.151   8.795 -13.807  1.00 37.90     0.000 A 
HETATM   26  CAG   D T1356      -2.373   9.122 -12.699  1.00 37.23     0.005 A 
ENDBRANCH  19  21
ENDBRANCH  15  18
ENDBRANCH  11  12
ENDBRANCH  10  11
BRANCH   3  27
HETATM   27  OAZ   D T1356       3.943  11.697  -7.650  1.00 30.66    -0.326 OA
HETATM   28  CAA   D T1356       3.333  12.793  -8.337  1.00 33.36     0.181 C 
ENDBRANCH   3  27
BRANCH   1  29
HETATM   29  OBB   D T1356       5.284   9.941  -6.093  1.00 30.55    -0.329 OA
BRANCH  29  30
HETATM   30  CAP   D T1356       5.623   8.558  -5.842  1.00 33.72     0.151 C 
BRANCH  30  31
HETATM   31  CAO   D T1356       7.146   8.437  -5.651  1.00 37.07     0.068 C 
BRANCH  31  32
HETATM   32  CAS   D T1356       7.422   7.683  -4.341  1.00 39.71     0.253 C 
BRANCH  32  33
HETATM   33  NBL   D T1356       6.371   7.698  -3.296  1.00 41.70     0.142 N 
HETATM   34  CAT   D T1356       6.479   8.805  -2.317  1.00 43.12     0.282 C 
HETATM   35  CAQ   D T1356       5.262   8.792  -1.368  1.00 43.52     0.178 C 
HETATM   36  OBA   D T1356       4.313   7.744  -1.773  1.00 44.22    -0.350 OA
HETATM   37  CAR   D T1356       4.903   6.399  -1.797  1.00 43.52     0.178 C 
HETATM   38  CAU   D T1356       6.226   6.406  -2.590  1.00 42.73     0.282 C 
ENDBRANCH  32  33
ENDBRANCH  31  32
ENDBRANCH  30  31
ENDBRANCH  29  30
ENDBRANCH   1  29
TORSDOF 10
ENDMDL
MODEL 3
REMARK VINA RESULT:    -8.194      2.123      9.917
REMARK INTER + INTRA:         -14.622
REMARK INTER:                 -13.469
REMARK INTRA:                  -1.152
REMARK UNBOUND:                -1.638
REMARK  10 active torsions:
REMARK  status: ('A' for Active; 'I' for Inactive)
REMARK    1  A    between atoms: NBL_6  and  CAS_7 
REMARK    2  A    between atoms: CAS_7  and  CAO_8 
REMARK    3  A    between atoms: CAO_8  and  CAP_9 
REMARK    4  A    between atoms: CAP_9  and  OBB_10 
REMARK    5  A    between atoms: OBB_10  and  CBH_11 
REMARK    6  A    between atoms: CBG_13  and  OAZ_14 
REMARK    7  A    between atoms: C6_22  and  NAY_23 
REMARK    8  A    between atoms: NAY_23  and  CBE_24 
REMARK    9  A    between atoms: CBD_29  and  NAX_30 
REMARK       I    between atoms: NAX_30  and  CBC_31 
REMARK   10  A    between atoms: CBC_31  and  CBF_33 
ROOT
HETATM    1  CBH   D T1356       2.679  10.310  -3.299  1.00 30.53     0.118 A 
HETATM    2  CAM   D T1356       1.603  10.487  -2.421  1.00 29.88     0.045 A 
HETATM    3  CBG   D T1356       2.633  10.901  -4.578  1.00 30.48     0.117 A 
HETATM    4  CAN   D T1356       1.522  11.646  -4.975  1.00 29.67     0.031 A 
HETATM    5  C5    D T1356       0.446  11.828  -4.100  1.00 29.79     0.056 A 
HETATM    6  C4    D T1356       0.495  11.245  -2.823  1.00 29.99     0.088 A 
HETATM    7  N3    D T1356      -0.529  11.407  -1.970  1.00 29.16    -0.224 NA
HETATM    8  C2    D T1356      -1.653  12.156  -2.340  1.00 30.02     0.200 A 
HETATM    9  N1    D T1356      -1.701  12.746  -3.614  1.00 29.74    -0.205 NA
HETATM   10  C6    D T1356      -0.678  12.584  -4.473  1.00 29.94     0.166 A 
ENDROOT
BRANCH  10  11
HETATM   11  NAY   D T1356      -0.684  13.123  -5.720  1.00 31.31    -0.227 NA
BRANCH  11  12
HETATM   12  CBE   D T1356      -0.954  12.354  -6.811  1.00 32.67     0.083 A 
HETATM   13  CAK   D T1356      -0.020  12.282  -7.846  1.00 33.73     0.021 A 
HETATM   14  CAI   D T1356      -0.261  11.495  -8.976  1.00 34.14     0.021 A 
HETATM   15  CBD   D T1356      -1.441  10.744  -9.083  1.00 33.99     0.085 A 
HETATM   16  CAH   D T1356      -2.376  10.818  -8.052  1.00 33.61     0.021 A 
HETATM   17  CAJ   D T1356      -2.131  11.606  -6.926  1.00 33.42     0.021 A 
BRANCH  15  18
HETATM   18  NAX   D T1356      -1.737   9.986 -10.167  1.00 34.41    -0.208 NA
HETATM   19  CBC   D T1356      -2.258  10.525 -11.296  1.00 37.04     0.279 C 
HETATM   20  OAB   D T1356      -2.497  11.725 -11.463  1.00 38.15    -0.265 OA
BRANCH  19  21
HETATM   21  CBF   D T1356      -2.525   9.602 -12.311  1.00 37.03     0.058 A 
HETATM   22  CAF   D T1356      -1.629   8.560 -12.559  1.00 38.06     0.005 A 
HETATM   23  CAD   D T1356      -1.887   7.643 -13.575  1.00 38.28     0.000 A 
HETATM   24  CAC   D T1356      -3.040   7.763 -14.350  1.00 38.02     0.000 A 
HETATM   25  CAE   D T1356      -3.938   8.796 -14.101  1.00 37.90     0.000 A 
HETATM   26  CAG   D T1356      -3.676   9.718 -13.090  1.00 37.23     0.005 A 
ENDBRANCH  19  21
ENDBRANCH  15  18
ENDBRANCH  11  12
ENDBRANCH  10  11
BRANCH   3  27
HETATM   27  OAZ   D T1356       3.681  10.708  -5.448  1.00 30.66    -0.326 OA
HETATM   28  CAA   D T1356       3.673  11.486  -6.647  1.00 33.36     0.181 C 
ENDBRANCH   3  27
BRANCH   1  29
HETATM   29  OBB   D T1356       3.804   9.584  -2.992  1.00 30.55    -0.329 OA
BRANCH  29  30
HETATM   30  CAP   D T1356       3.905   8.946  -1.700  1.00 33.72     0.151 C 
BRANCH  30  31
HETATM   31  CAO   D T1356       5.108   7.985  -1.702  1.00 37.07     0.068 C 
BRANCH  31  32
HETATM   32  CAS   D T1356       6.309   8.698  -2.342  1.00 39.71     0.253 C 
BRANCH  32  33
HETATM   33  NBL   D T1356       6.924   8.082  -3.542  1.00 41.70     0.142 N 
HETATM   34  CAT   D T1356       7.051   8.983  -4.711  1.00 43.12     0.282 C 
HETATM   35  CAQ   D T1356       7.821   8.274  -5.845  1.00 43.52     0.178 C 
HETATM   36  OBA   D T1356       8.279   6.949  -5.397  1.00 44.22    -0.350 OA
HETATM   37  CAR   D T1356       7.188   6.074  -4.951  1.00 43.52     0.178 C 
HETATM   38  CAU   D T1356       6.280   6.812  -3.945  1.00 42.73     0.282 C 
ENDBRANCH  32  33
ENDBRANCH  31  32
ENDBRANCH  30  31
ENDBRANCH  29  30
ENDBRANCH   1  29
TORSDOF 10
ENDMDL
MODEL 4
REMARK VINA RESULT:    -8.113      2.344      4.380
REMARK INTER + INTRA:         -14.494
REMARK INTER:                 -13.100
REMARK INTRA:                  -1.395
REMARK UNBOUND:                -1.638
REMARK  10 active torsions:
REMARK  status: ('A' for Active; 'I' for Inactive)
REMARK    1  A    between atoms: NBL_6  and  CAS_7 
REMARK    2  A    between atoms: CAS_7  and  CAO_8 
REMARK    3  A    between atoms: CAO_8  and  CAP_9 
REMARK    4  A    between atoms: CAP_9  and  OBB_10 
REMARK    5  A    between atoms: OBB_10  and  CBH_11 
REMARK    6  A    between atoms: CBG_13  and  OAZ_14 
REMARK    7  A    between atoms: C6_22  and  NAY_23 
REMARK    8  A    between atoms: NAY_23  and  CBE_24 
REMARK    9  A    between atoms: CBD_29  and  NAX_30 
REMARK       I    between atoms: NAX_30  and  CBC_31 
REMARK   10  A    between atoms: CBC_31  and  CBF_33 
ROOT
HETATM    1  CBH   D T1356      -2.392  11.473 -10.691  1.00 30.53     0.118 A 
HETATM    2  CAM   D T1356      -2.170  12.841 -10.494  1.00 29.88     0.045 A 
HETATM    3  CBG   D T1356      -2.049  10.562  -9.671  1.00 30.48     0.117 A 
HETATM    4  CAN   D T1356      -1.481  11.013  -8.479  1.00 29.67     0.031 A 
HETATM    5  C5    D T1356      -1.260  12.380  -8.277  1.00 29.79     0.056 A 
HETATM    6  C4    D T1356      -1.608  13.288  -9.291  1.00 29.99     0.088 A 
HETATM    7  N3    D T1356      -1.402  14.603  -9.116  1.00 29.16    -0.224 NA
HETATM    8  C2    D T1356      -0.840  15.084  -7.927  1.00 30.02     0.200 A 
HETATM    9  N1    D T1356      -0.497  14.178  -6.909  1.00 29.74    -0.205 NA
HETATM   10  C6    D T1356      -0.699  12.859  -7.081  1.00 29.94     0.166 A 
ENDROOT
BRANCH  10  11
HETATM   11  NAY   D T1356      -0.372  11.944  -6.133  1.00 31.31    -0.227 NA
BRANCH  11  12
HETATM   12  CBE   D T1356       0.894  11.449  -6.048  1.00 32.67     0.083 A 
HETATM   13  CAK   D T1356       1.952  12.320  -5.782  1.00 33.73     0.021 A 
HETATM   14  CAI   D T1356       3.263  11.845  -5.679  1.00 34.14     0.021 A 
HETATM   15  CBD   D T1356       3.538  10.477  -5.820  1.00 33.99     0.085 A 
HETATM   16  CAH   D T1356       2.483   9.606  -6.088  1.00 33.61     0.021 A 
HETATM   17  CAJ   D T1356       1.176  10.087  -6.192  1.00 33.42     0.021 A 
BRANCH  15  18
HETATM   18  NAX   D T1356       4.792   9.967  -5.755  1.00 34.41    -0.208 NA
HETATM   19  CBC   D T1356       5.233   9.285  -4.670  1.00 37.04     0.279 C 
HETATM   20  OAB   D T1356       4.560   9.046  -3.663  1.00 38.15    -0.265 OA
BRANCH  19  21
HETATM   21  CBF   D T1356       6.558   8.848  -4.757  1.00 37.03     0.058 A 
HETATM   22  CAF   D T1356       6.982   8.126  -5.875  1.00 38.06     0.005 A 
HETATM   23  CAD   D T1356       8.299   7.681  -5.961  1.00 38.28     0.000 A 
HETATM   24  CAC   D T1356       9.198   7.953  -4.931  1.00 38.02     0.000 A 
HETATM   25  CAE   D T1356       8.781   8.677  -3.819  1.00 37.90     0.000 A 
HETATM   26  CAG   D T1356       7.461   9.115  -3.729  1.00 37.23     0.005 A 
ENDBRANCH  19  21
ENDBRANCH  15  18
ENDBRANCH  11  12
ENDBRANCH  10  11
BRANCH   3  27
HETATM   27  OAZ   D T1356      -2.247   9.216  -9.875  1.00 30.66    -0.326 OA
HETATM   28  CAA   D T1356      -1.076   8.406 -10.006  1.00 33.36     0.181 C 
ENDBRANCH   3  27
BRANCH   1  29
HETATM   29  OBB   D T1356      -2.936  10.944 -11.836  1.00 30.55    -0.329 OA
BRANCH  29  30
HETATM   30  CAP   D T1356      -4.016  11.642 -12.495  1.00 33.72     0.151 C 
BRANCH  30  31
HETATM   31  CAO   D T1356      -5.293  11.519 -11.643  1.00 37.07     0.068 C 
BRANCH  31  32
HETATM   32  CAS   D T1356      -6.222  12.698 -11.971  1.00 39.71     0.253 C 
BRANCH  32  33
HETATM   33  NBL   D T1356      -6.054  13.951 -11.197  1.00 41.70     0.142 N 
HETATM   34  CAT   D T1356      -5.465  13.779  -9.849  1.00 43.12     0.282 C 
HETATM   35  CAQ   D T1356      -5.217  15.157  -9.200  1.00 43.52     0.178 C 
HETATM   36  OBA   D T1356      -5.554  16.232 -10.146  1.00 44.22    -0.350 OA
HETATM   37  CAR   D T1356      -6.943  16.179 -10.620  1.00 43.52     0.178 C 
HETATM   38  CAU   D T1356      -7.291  14.759 -11.114  1.00 42.73     0.282 C 
ENDBRANCH  32  33
ENDBRANCH  31  32
ENDBRANCH  30  31
ENDBRANCH  29  30
ENDBRANCH   1  29
TORSDOF 10
ENDMDL
MODEL 5
REMARK VINA RESULT:    -7.939      3.151     11.378
REMARK INTER + INTRA:         -14.218
REMARK INTER:                 -13.062
REMARK INTRA:                  -1.156
REMARK UNBOUND:                -1.638
REMARK  10 active torsions:
REMARK  status: ('A' for Active; 'I' for Inactive)
REMARK    1  A    between atoms: NBL_6  and  CAS_7 
REMARK    2  A    between atoms: CAS_7  and  CAO_8 
REMARK    3  A    between atoms: CAO_8  and  CAP_9 
REMARK    4  A    between atoms: CAP_9  and  OBB_10 
REMARK    5  A    between atoms: OBB_10  and  CBH_11 
REMARK    6  A    between atoms: CBG_13  and  OAZ_14 
REMARK    7  A    between atoms: C6_22  and  NAY_23 
REMARK    8  A    between atoms: NAY_23  and  CBE_24 
REMARK    9  A    between atoms: CBD_29  and  NAX_30 
REMARK       I    between atoms: NAX_30  and  CBC_31 
REMARK   10  A    between atoms: CBC_31  and  CBF_33 
ROOT
HETATM    1  CBH   D T1356       2.049  10.749  -7.042  1.00 30.53     0.118 A 
HETATM    2  CAM   D T1356       1.251   9.754  -6.463  1.00 29.88     0.045 A 
HETATM    3  CBG   D T1356       1.668  11.309  -8.278  1.00 30.48     0.117 A 
HETATM    4  CAN   D T1356       0.514  10.872  -8.929  1.00 29.67     0.031 A 
HETATM    5  C5    D T1356      -0.287   9.881  -8.353  1.00 29.79     0.056 A 
HETATM    6  C4    D T1356       0.089   9.327  -7.118  1.00 29.99     0.088 A 
HETATM    7  N3    D T1356      -0.667   8.373  -6.550  1.00 29.16    -0.224 NA
HETATM    8  C2    D T1356      -1.834   7.921  -7.178  1.00 30.02     0.200 A 
HETATM    9  N1    D T1356      -2.215   8.478  -8.410  1.00 29.74    -0.205 NA
HETATM   10  C6    D T1356      -1.460   9.431  -8.984  1.00 29.94     0.166 A 
ENDROOT
BRANCH  10  11
HETATM   11  NAY   D T1356      -1.779   9.990 -10.180  1.00 31.31    -0.227 NA
BRANCH  11  12
HETATM   12  CBE   D T1356      -2.796  10.891 -10.281  1.00 32.67     0.083 A 
HETATM   13  CAK   D T1356      -3.217  11.310 -11.544  1.00 33.73     0.021 A 
HETATM   14  CAI   D T1356      -4.264  12.226 -11.684  1.00 34.14     0.021 A 
HETATM   15  CBD   D T1356      -4.928  12.726 -10.554  1.00 33.99     0.085 A 
HETATM   16  CAH   D T1356      -4.507  12.311  -9.292  1.00 33.61     0.021 A 
HETATM   17  CAJ   D T1356      -3.459  11.397  -9.158  1.00 33.42     0.021 A 
BRANCH  15  18
HETATM   18  NAX   D T1356      -5.930  13.635 -10.632  1.00 34.41    -0.208 NA
HETATM   19  CBC   D T1356      -5.694  14.969 -10.573  1.00 37.04     0.279 C 
HETATM   20  OAB   D T1356      -4.578  15.486 -10.465  1.00 38.15    -0.265 OA
BRANCH  19  21
HETATM   21  CBF   D T1356      -6.840  15.766 -10.645  1.00 37.03     0.058 A 
HETATM   22  CAF   D T1356      -7.891  15.402 -11.490  1.00 38.06     0.005 A 
HETATM   23  CAD   D T1356      -9.031  16.197 -11.570  1.00 38.28     0.000 A 
HETATM   24  CAC   D T1356      -9.126  17.361 -10.810  1.00 38.02     0.000 A 
HETATM   25  CAE   D T1356      -8.084  17.724  -9.962  1.00 37.90     0.000 A 
HETATM   26  CAG   D T1356      -6.941  16.931  -9.887  1.00 37.23     0.005 A 
ENDBRANCH  19  21
ENDBRANCH  15  18
ENDBRANCH  11  12
ENDBRANCH  10  11
BRANCH   3  27
HETATM   27  OAZ   D T1356       2.464  12.270  -8.856  1.00 30.66    -0.326 OA
HETATM   28  CAA   D T1356       2.060  13.631  -8.682  1.00 33.36     0.181 C 
ENDBRANCH   3  27
BRANCH   1  29
HETATM   29  OBB   D T1356       3.204  11.229  -6.474  1.00 30.55    -0.329 OA
BRANCH  29  30
HETATM   30  CAP   D T1356       4.065  10.325  -5.746  1.00 33.72     0.151 C 
BRANCH  30  31
HETATM   31  CAO   D T1356       5.384  10.147  -6.522  1.00 37.07     0.068 C 
BRANCH  31  32
HETATM   32  CAS   D T1356       6.035   8.823  -6.095  1.00 39.71     0.253 C 
BRANCH  32  33
HETATM   33  NBL   D T1356       7.179   8.884  -5.154  1.00 41.70     0.142 N 
HETATM   34  CAT   D T1356       8.367   8.101  -5.565  1.00 43.12     0.282 C 
HETATM   35  CAQ   D T1356       9.530   8.349  -4.581  1.00 43.52     0.178 C 
HETATM   36  OBA   D T1356       9.143   9.356  -3.581  1.00 44.22    -0.350 OA
HETATM   37  CAR   D T1356       7.948   8.987  -2.812  1.00 43.52     0.178 C 
HETATM   38  CAU   D T1356       6.809   8.555  -3.760  1.00 42.73     0.282 C 
ENDBRANCH  32  33
ENDBRANCH  31  32
ENDBRANCH  30  31
ENDBRANCH  29  30
ENDBRANCH   1  29
TORSDOF 10
ENDMDL
MODEL 6
REMARK VINA RESULT:    -7.720      3.306     11.438
REMARK INTER + INTRA:         -13.872
REMARK INTER:                 -12.797
REMARK INTRA:                  -1.075
REMARK UNBOUND:                -1.638
REMARK  10 active torsions:
REMARK  status: ('A' for Active; 'I' for Inactive)
REMARK    1  A    between atoms: NBL_6  and  CAS_7 
REMARK    2  A    between atoms: CAS_7  and  CAO_8 
REMARK    3  A    between atoms: CAO_8  and  CAP_9 
REMARK    4  A    between atoms: CAP_9  and  OBB_10 
REMARK    5  A    between atoms: OBB_10  and  CBH_11 
REMARK    6  A    between atoms: CBG_13  and  OAZ_14 
REMARK    7  A    between atoms: C6_22  and  NAY_23 
REMARK    8  A    between atoms: NAY_23  and  CBE_24 
REMARK    9  A    between atoms: CBD_29  and  NAX_30 
REMARK       I    between atoms: NAX_30  and  CBC_31 
REMARK   10  A    between atoms: CBC_31  and  CBF_33 
ROOT
HETATM    1  CBH   D T1356       2.007  10.675  -7.036  1.00 30.53     0.118 A 
HETATM    2  CAM   D T1356       1.169   9.702  -6.477  1.00 29.88     0.045 A 
HETATM    3  CBG   D T1356       1.640  11.286  -8.252  1.00 30.48     0.117 A 
HETATM    4  CAN   D T1356       0.462  10.921  -8.903  1.00 29.67     0.031 A 
HETATM    5  C5    D T1356      -0.379   9.951  -8.346  1.00 29.79     0.056 A 
HETATM    6  C4    D T1356      -0.018   9.347  -7.130  1.00 29.99     0.088 A 
HETATM    7  N3    D T1356      -0.811   8.413  -6.581  1.00 29.16    -0.224 NA
HETATM    8  C2    D T1356      -2.003   8.032  -7.210  1.00 30.02     0.200 A 
HETATM    9  N1    D T1356      -2.370   8.640  -8.422  1.00 29.74    -0.205 NA
HETATM   10  C6    D T1356      -1.577   9.574  -8.977  1.00 29.94     0.166 A 
ENDROOT
BRANCH  10  11
HETATM   11  NAY   D T1356      -1.881  10.181 -10.154  1.00 31.31    -0.227 NA
BRANCH  11  12
HETATM   12  CBE   D T1356      -2.949  11.020 -10.251  1.00 32.67     0.083 A 
HETATM   13  CAK   D T1356      -3.449  11.349 -11.512  1.00 33.73     0.021 A 
HETATM   14  CAI   D T1356      -4.549  12.201 -11.648  1.00 34.14     0.021 A 
HETATM   15  CBD   D T1356      -5.188  12.725 -10.514  1.00 33.99     0.085 A 
HETATM   16  CAH   D T1356      -4.689  12.399  -9.254  1.00 33.61     0.021 A 
HETATM   17  CAJ   D T1356      -3.588  11.550  -9.125  1.00 33.42     0.021 A 
BRANCH  15  18
HETATM   18  NAX   D T1356      -6.241  13.575 -10.589  1.00 34.41    -0.208 NA
HETATM   19  CBC   D T1356      -6.075  14.920 -10.615  1.00 37.04     0.279 C 
HETATM   20  OAB   D T1356      -4.986  15.499 -10.592  1.00 38.15    -0.265 OA
BRANCH  19  21
HETATM   21  CBF   D T1356      -7.266  15.651 -10.671  1.00 37.03     0.058 A 
HETATM   22  CAF   D T1356      -7.705  16.355  -9.548  1.00 38.06     0.005 A 
HETATM   23  CAD   D T1356      -8.895  17.077  -9.596  1.00 38.28     0.000 A 
HETATM   24  CAC   D T1356      -9.652  17.098 -10.766  1.00 38.02     0.000 A 
HETATM   25  CAE   D T1356      -9.214  16.403 -11.890  1.00 37.90     0.000 A 
HETATM   26  CAG   D T1356      -8.028  15.675 -11.838  1.00 37.23     0.005 A 
ENDBRANCH  19  21
ENDBRANCH  15  18
ENDBRANCH  11  12
ENDBRANCH  10  11
BRANCH   3  27
HETATM   27  OAZ   D T1356       2.474  12.226  -8.811  1.00 30.66    -0.326 OA
HETATM   28  CAA   D T1356       2.092  13.596  -8.663  1.00 33.36     0.181 C 
ENDBRANCH   3  27
BRANCH   1  29
HETATM   29  OBB   D T1356       3.187  11.085  -6.467  1.00 30.55    -0.329 OA
BRANCH  29  30
HETATM   30  CAP   D T1356       3.596  10.524  -5.199  1.00 33.72     0.151 C 
BRANCH  30  31
HETATM   31  CAO   D T1356       4.486   9.294  -5.454  1.00 37.07     0.068 C 
BRANCH  31  32
HETATM   32  CAS   D T1356       5.502   9.172  -4.308  1.00 39.71     0.253 C 
BRANCH  32  33
HETATM   33  NBL   D T1356       5.256   8.146  -3.267  1.00 41.70     0.142 N 
HETATM   34  CAT   D T1356       4.444   8.606  -2.117  1.00 43.12     0.282 C 
HETATM   35  CAQ   D T1356       4.145   7.422  -1.173  1.00 43.52     0.178 C 
HETATM   36  OBA   D T1356       4.677   6.173  -1.740  1.00 44.22    -0.350 OA
HETATM   37  CAR   D T1356       6.123   6.217  -1.995  1.00 43.52     0.178 C 
HETATM   38  CAU   D T1356       6.492   7.490  -2.787  1.00 42.73     0.282 C 
ENDBRANCH  32  33
ENDBRANCH  31  32
ENDBRANCH  30  31
ENDBRANCH  29  30
ENDBRANCH   1  29
TORSDOF 10
ENDMDL
MODEL 7
REMARK VINA RESULT:    -7.612      5.018      9.737
REMARK INTER + INTRA:         -13.700
REMARK INTER:                 -12.444
REMARK INTRA:                  -1.255
REMARK UNBOUND:                -1.638
REMARK  10 active torsions:
REMARK  status: ('A' for Active; 'I' for Inactive)
REMARK    1  A    between atoms: NBL_6  and  CAS_7 
REMARK    2  A    between atoms: CAS_7  and  CAO_8 
REMARK    3  A    between atoms: CAO_8  and  CAP_9 
REMARK    4  A    between atoms: CAP_9  and  OBB_10 
REMARK    5  A    between atoms: OBB_10  and  CBH_11 
REMARK    6  A    between atoms: CBG_13  and  OAZ_14 
REMARK    7  A    between atoms: C6_22  and  NAY_23 
REMARK    8  A    between atoms: NAY_23  and  CBE_24 
REMARK    9  A    between atoms: CBD_29  and  NAX_30 
REMARK       I    between atoms: NAX_30  and  CBC_31 
REMARK   10  A    between atoms: CBC_31  and  CBF_33 
ROOT
HETATM    1  CBH   D T1356      -1.328  14.104  -2.870  1.00 30.53     0.118 A 
HETATM    2  CAM   D T1356      -0.854  13.053  -2.077  1.00 29.88     0.045 A 
HETATM    3  CBG   D T1356      -0.765  14.317  -4.145  1.00 30.48     0.117 A 
HETATM    4  CAN   D T1356       0.264  13.498  -4.612  1.00 29.67     0.031 A 
HETATM    5  C5    D T1356       0.738  12.444  -3.824  1.00 29.79     0.056 A 
HETATM    6  C4    D T1356       0.172  12.228  -2.556  1.00 29.99     0.088 A 
HETATM    7  N3    D T1356       0.615  11.222  -1.784  1.00 29.16    -0.224 NA
HETATM    8  C2    D T1356       1.641  10.380  -2.230  1.00 30.02     0.200 A 
HETATM    9  N1    D T1356       2.203  10.591  -3.500  1.00 29.74    -0.205 NA
HETATM   10  C6    D T1356       1.765  11.599  -4.276  1.00 29.94     0.166 A 
ENDROOT
BRANCH  10  11
HETATM   11  NAY   D T1356       2.286  11.851  -5.505  1.00 31.31    -0.227 NA
BRANCH  11  12
HETATM   12  CBE   D T1356       1.737  11.300  -6.623  1.00 32.67     0.083 A 
HETATM   13  CAK   D T1356       1.774  12.009  -7.824  1.00 33.73     0.021 A 
HETATM   14  CAI   D T1356       1.228  11.470  -8.993  1.00 34.14     0.021 A 
HETATM   15  CBD   D T1356       0.649  10.192  -8.984  1.00 33.99     0.085 A 
HETATM   16  CAH   D T1356       0.608   9.484  -7.784  1.00 33.61     0.021 A 
HETATM   17  CAJ   D T1356       1.154  10.029  -6.620  1.00 33.42     0.021 A 
BRANCH  15  18
HETATM   18  NAX   D T1356       0.082   9.634 -10.081  1.00 34.41    -0.208 NA
HETATM   19  CBC   D T1356      -1.210   9.871 -10.419  1.00 37.04     0.279 C 
HETATM   20  OAB   D T1356      -1.980  10.609  -9.798  1.00 38.15    -0.265 OA
BRANCH  19  21
HETATM   21  CBF   D T1356      -1.643   9.198 -11.566  1.00 37.03     0.058 A 
HETATM   22  CAF   D T1356      -2.666   9.740 -12.347  1.00 38.06     0.005 A 
HETATM   23  CAD   D T1356      -3.106   9.069 -13.485  1.00 38.28     0.000 A 
HETATM   24  CAC   D T1356      -2.529   7.853 -13.847  1.00 38.02     0.000 A 
HETATM   25  CAE   D T1356      -1.505   7.314 -13.075  1.00 37.90     0.000 A 
HETATM   26  CAG   D T1356      -1.070   7.982 -11.932  1.00 37.23     0.005 A 
ENDBRANCH  19  21
ENDBRANCH  15  18
ENDBRANCH  11  12
ENDBRANCH  10  11
BRANCH   3  27
HETATM   27  OAZ   D T1356      -1.216  15.364  -4.915  1.00 30.66    -0.326 OA
HETATM   28  CAA   D T1356      -0.995  15.269  -6.324  1.00 33.36     0.181 C 
ENDBRANCH   3  27
BRANCH   1  29
HETATM   29  OBB   D T1356      -2.328  14.962  -2.484  1.00 30.55    -0.329 OA
BRANCH  29  30
HETATM   30  CAP   D T1356      -3.675  14.460  -2.335  1.00 33.72     0.151 C 
BRANCH  30  31
HETATM   31  CAO   D T1356      -4.074  14.512  -0.848  1.00 37.07     0.068 C 
BRANCH  31  32
HETATM   32  CAS   D T1356      -5.591  14.307  -0.735  1.00 39.71     0.253 C 
BRANCH  32  33
HETATM   33  NBL   D T1356      -6.083  13.250   0.181  1.00 41.70     0.142 N 
HETATM   34  CAT   D T1356      -6.903  13.738   1.314  1.00 43.12     0.282 C 
HETATM   35  CAQ   D T1356      -7.464  12.543   2.114  1.00 43.52     0.178 C 
HETATM   36  OBA   D T1356      -7.094  11.277   1.463  1.00 44.22    -0.350 OA
HETATM   37  CAR   D T1356      -5.644  11.100   1.310  1.00 43.52     0.178 C 
HETATM   38  CAU   D T1356      -5.012  12.357   0.675  1.00 42.73     0.282 C 
ENDBRANCH  32  33
ENDBRANCH  31  32
ENDBRANCH  30  31
ENDBRANCH  29  30
ENDBRANCH   1  29
TORSDOF 10
ENDMDL
MODEL 8
REMARK VINA RESULT:    -7.496      5.511      9.920
REMARK INTER + INTRA:         -13.516
REMARK INTER:                 -11.941
REMARK INTRA:                  -1.576
REMARK UNBOUND:                -1.638
REMARK  10 active torsions:
REMARK  status: ('A' for Active; 'I' for Inactive)
REMARK    1  A    between atoms: NBL_6  and  CAS_7 
REMARK    2  A    between atoms: CAS_7  and  CAO_8 
REMARK    3  A    between atoms: CAO_8  and  CAP_9 
REMARK    4  A    between atoms: CAP_9  and  OBB_10 
REMARK    5  A    between atoms: OBB_10  and  CBH_11 
REMARK    6  A    between atoms: CBG_13  and  OAZ_14 
REMARK    7  A    between atoms: C6_22  and  NAY_23 
REMARK    8  A    between atoms: NAY_23  and  CBE_24 
REMARK    9  A    between atoms: CBD_29  and  NAX_30 
REMARK       I    between atoms: NAX_30  and  CBC_31 
REMARK   10  A    between atoms: CBC_31  and  CBF_33 
ROOT
HETATM    1  CBH   D T1356      -1.269  14.276  -1.037  1.00 30.53     0.118 A 
HETATM    2  CAM   D T1356      -0.682  13.082  -0.603  1.00 29.88     0.045 A 
HETATM    3  CBG   D T1356      -0.931  14.792  -2.305  1.00 30.48     0.117 A 
HETATM    4  CAN   D T1356      -0.011  14.128  -3.118  1.00 29.67     0.031 A 
HETATM    5  C5    D T1356       0.575  12.933  -2.689  1.00 29.79     0.056 A 
HETATM    6  C4    D T1356       0.233  12.416  -1.429  1.00 29.99     0.088 A 
HETATM    7  N3    D T1356       0.788  11.270  -0.999  1.00 29.16    -0.224 NA
HETATM    8  C2    D T1356       1.708  10.581  -1.797  1.00 30.02     0.200 A 
HETATM    9  N1    D T1356       2.046  11.093  -3.061  1.00 29.74    -0.205 NA
HETATM   10  C6    D T1356       1.496  12.241  -3.495  1.00 29.94     0.166 A 
ENDROOT
BRANCH  10  11
HETATM   11  NAY   D T1356       1.801  12.784  -4.702  1.00 31.31    -0.227 NA
BRANCH  11  12
HETATM   12  CBE   D T1356       1.384  12.195  -5.857  1.00 32.67     0.083 A 
HETATM   13  CAK   D T1356       2.294  12.009  -6.899  1.00 33.73     0.021 A 
HETATM   14  CAI   D T1356       1.902  11.401  -8.095  1.00 34.14     0.021 A 
HETATM   15  CBD   D T1356       0.587  10.943  -8.262  1.00 33.99     0.085 A 
HETATM   16  CAH   D T1356      -0.324  11.131  -7.225  1.00 33.61     0.021 A 
HETATM   17  CAJ   D T1356       0.073  11.741  -6.034  1.00 33.42     0.021 A 
BRANCH  15  18
HETATM   18  NAX   D T1356       0.147  10.370  -9.410  1.00 34.41    -0.208 NA
HETATM   19  CBC   D T1356       0.164   9.027  -9.591  1.00 37.04     0.279 C 
HETATM   20  OAB   D T1356       0.550   8.205  -8.755  1.00 38.15    -0.265 OA
BRANCH  19  21
HETATM   21  CBF   D T1356      -0.302   8.603 -10.839  1.00 37.03     0.058 A 
HETATM   22  CAF   D T1356      -0.341   9.499 -11.910  1.00 38.06     0.005 A 
HETATM   23  CAD   D T1356      -0.813   9.084 -13.152  1.00 38.28     0.000 A 
HETATM   24  CAC   D T1356      -1.250   7.772 -13.331  1.00 38.02     0.000 A 
HETATM   25  CAE   D T1356      -1.207   6.875 -12.268  1.00 37.90     0.000 A 
HETATM   26  CAG   D T1356      -0.742   7.294 -11.023  1.00 37.23     0.005 A 
ENDBRANCH  19  21
ENDBRANCH  15  18
ENDBRANCH  11  12
ENDBRANCH  10  11
BRANCH   3  27
HETATM   27  OAZ   D T1356      -1.491  15.976  -2.722  1.00 30.66    -0.326 OA
HETATM   28  CAA   D T1356      -0.642  17.127  -2.718  1.00 33.36     0.181 C 
ENDBRANCH   3  27
BRANCH   1  29
HETATM   29  OBB   D T1356      -2.174  14.996  -0.297  1.00 30.55    -0.329 OA
BRANCH  29  30
HETATM   30  CAP   D T1356      -1.942  15.186   1.117  1.00 33.72     0.151 C 
BRANCH  30  31
HETATM   31  CAO   D T1356      -3.290  15.429   1.822  1.00 37.07     0.068 C 
BRANCH  31  32
HETATM   32  CAS   D T1356      -4.426  15.005   0.879  1.00 39.71     0.253 C 
BRANCH  32  33
HETATM   33  NBL   D T1356      -5.154  13.752   1.188  1.00 41.70     0.142 N 
HETATM   34  CAT   D T1356      -4.555  12.524   0.617  1.00 43.12     0.282 C 
HETATM   35  CAQ   D T1356      -5.321  11.280   1.115  1.00 43.52     0.178 C 
HETATM   36  OBA   D T1356      -6.359  11.675   2.079  1.00 44.22    -0.350 OA
HETATM   37  CAR   D T1356      -7.328  12.636   1.534  1.00 43.52     0.178 C 
HETATM   38  CAU   D T1356      -6.596  13.815   0.860  1.00 42.73     0.282 C 
ENDBRANCH  32  33
ENDBRANCH  31  32
ENDBRANCH  30  31
ENDBRANCH  29  30
ENDBRANCH   1  29
TORSDOF 10
ENDMDL
MODEL 9
REMARK VINA RESULT:    -7.472      4.016      7.914
REMARK INTER + INTRA:         -13.477
REMARK INTER:                 -11.602
REMARK INTRA:                  -1.875
REMARK UNBOUND:                -1.638
REMARK  10 active torsions:
REMARK  status: ('A' for Active; 'I' for Inactive)
REMARK    1  A    between atoms: NBL_6  and  CAS_7 
REMARK    2  A    between atoms: CAS_7  and  CAO_8 
REMARK    3  A    between atoms: CAO_8  and  CAP_9 
REMARK    4  A    between atoms: CAP_9  and  OBB_10 
REMARK    5  A    between atoms: OBB_10  and  CBH_11 
REMARK    6  A    between atoms: CBG_13  and  OAZ_14 
REMARK    7  A    between atoms: C6_22  and  NAY_23 
REMARK    8  A    between atoms: NAY_23  and  CBE_24 
REMARK    9  A    between atoms: CBD_29  and  NAX_30 
REMARK       I    between atoms: NAX_30  and  CBC_31 
REMARK   10  A    between atoms: CBC_31  and  CBF_33 
ROOT
HETATM    1  CBH   D T1356      -1.396  14.421  -3.925  1.00 30.53     0.118 A 
HETATM    2  CAM   D T1356      -1.086  13.544  -2.880  1.00 29.88     0.045 A 
HETATM    3  CBG   D T1356      -0.682  14.332  -5.138  1.00 30.48     0.117 A 
HETATM    4  CAN   D T1356       0.334  13.389  -5.295  1.00 29.67     0.031 A 
HETATM    5  C5    D T1356       0.645  12.508  -4.254  1.00 29.79     0.056 A 
HETATM    6  C4    D T1356      -0.071  12.592  -3.048  1.00 29.99     0.088 A 
HETATM    7  N3    D T1356       0.214  11.756  -2.036  1.00 29.16    -0.224 NA
HETATM    8  C2    D T1356       1.224  10.796  -2.169  1.00 30.02     0.200 A 
HETATM    9  N1    D T1356       1.937  10.706  -3.377  1.00 29.74    -0.205 NA
HETATM   10  C6    D T1356       1.656  11.543  -4.392  1.00 29.94     0.166 A 
ENDROOT
BRANCH  10  11
HETATM   11  NAY   D T1356       2.326  11.504  -5.573  1.00 31.31    -0.227 NA
BRANCH  11  12
HETATM   12  CBE   D T1356       1.727  11.031  -6.701  1.00 32.67     0.083 A 
HETATM   13  CAK   D T1356       1.817  11.766  -7.883  1.00 33.73     0.021 A 
HETATM   14  CAI   D T1356       1.221  11.306  -9.061  1.00 34.14     0.021 A 
HETATM   15  CBD   D T1356       0.537  10.081  -9.082  1.00 33.99     0.085 A 
HETATM   16  CAH   D T1356       0.444   9.347  -7.901  1.00 33.61     0.021 A 
HETATM   17  CAJ   D T1356       1.039   9.813  -6.727  1.00 33.42     0.021 A 
BRANCH  15  18
HETATM   18  NAX   D T1356      -0.080   9.601 -10.189  1.00 34.41    -0.208 NA
HETATM   19  CBC   D T1356      -1.303  10.041 -10.574  1.00 37.04     0.279 C 
HETATM   20  OAB   D T1356      -1.959  10.908  -9.990  1.00 38.15    -0.265 OA
BRANCH  19  21
HETATM   21  CBF   D T1356      -1.806   9.426 -11.724  1.00 37.03     0.058 A 
HETATM   22  CAF   D T1356      -2.918   9.966 -12.375  1.00 38.06     0.005 A 
HETATM   23  CAD   D T1356      -3.427   9.352 -13.516  1.00 38.28     0.000 A 
HETATM   24  CAC   D T1356      -2.831   8.193 -14.011  1.00 38.02     0.000 A 
HETATM   25  CAE   D T1356      -1.719   7.656 -13.369  1.00 37.90     0.000 A 
HETATM   26  CAG   D T1356      -1.215   8.266 -12.223  1.00 37.23     0.005 A 
ENDBRANCH  19  21
ENDBRANCH  15  18
ENDBRANCH  11  12
ENDBRANCH  10  11
BRANCH   3  27
HETATM   27  OAZ   D T1356      -0.973  15.209  -6.157  1.00 30.66    -0.326 OA
HETATM   28  CAA   D T1356      -0.618  14.799  -7.480  1.00 33.36     0.181 C 
ENDBRANCH   3  27
BRANCH   1  29
HETATM   29  OBB   D T1356      -2.373  15.384  -3.851  1.00 30.55    -0.329 OA
BRANCH  29  30
HETATM   30  CAP   D T1356      -3.762  14.989  -3.887  1.00 33.72     0.151 C 
BRANCH  30  31
HETATM   31  CAO   D T1356      -4.379  15.428  -5.228  1.00 37.07     0.068 C 
BRANCH  31  32
HETATM   32  CAS   D T1356      -4.364  14.234  -6.194  1.00 39.71     0.253 C 
BRANCH  32  33
HETATM   33  NBL   D T1356      -4.553  14.507  -7.639  1.00 41.70     0.142 N 
HETATM   34  CAT   D T1356      -3.963  13.497  -8.548  1.00 43.12     0.282 C 
HETATM   35  CAQ   D T1356      -4.339  13.818 -10.010  1.00 43.52     0.178 C 
HETATM   36  OBA   D T1356      -5.245  14.976 -10.060  1.00 44.22    -0.350 OA
HETATM   37  CAR   D T1356      -4.681  16.185  -9.444  1.00 43.52     0.178 C 
HETATM   38  CAU   D T1356      -4.125  15.865  -8.040  1.00 42.73     0.282 C 
ENDBRANCH  32  33
ENDBRANCH  31  32
ENDBRANCH  30  31
ENDBRANCH  29  30
ENDBRANCH   1  29
TORSDOF 10
ENDMDL
