MODEL 1
REMARK VINA RESULT:    -8.556      0.000      0.000
REMARK INTER + INTRA:         -14.505
REMARK INTER:                 -13.558
REMARK INTRA:                  -0.947
REMARK UNBOUND:                -0.947
REMARK  10 active torsions:
REMARK  status: ('A' for Active; 'I' for Inactive)
REMARK    1  A    between atoms: NBL_6  and  CAS_7 
REMARK    2  A    between atoms: CAS_7  and  CAO_8 
REMARK    3  A    between atoms: CAO_8  and  CAP_9 
REMARK    4  A    between atoms: CAP_9  and  OBB_10 
REMARK    5  A    between atoms: OBB_10  and  CBH_11 
REMARK    6  A    between atoms: CBG_13  and  OAZ_14 
REMARK    7  A    between atoms: C6_22  and  NAY_23 
REMARK    8  A    between atoms: NAY_23  and  CBE_24 
REMARK    9  A    between atoms: CBD_29  and  NAX_30 
REMARK       I    between atoms: NAX_30  and  CBC_31 
REMARK   10  A    between atoms: CBC_31  and  CBF_33 
ROOT
HETATM    1  CBH   D T1356       6.912   8.855   7.161  1.00 30.53     0.118 A 
HETATM    2  CAM   D T1356       7.333   8.167   8.304  1.00 29.88     0.045 A 
HETATM    3  CBG   D T1356       5.558   8.795   6.777  1.00 30.48     0.117 A 
HETATM    4  CAN   D T1356       4.643   8.049   7.519  1.00 29.67     0.031 A 
HETATM    5  C5    D T1356       5.057   7.362   8.664  1.00 29.79     0.056 A 
HETATM    6  C4    D T1356       6.407   7.428   9.052  1.00 29.99     0.088 A 
HETATM    7  N3    D T1356       6.824   6.773  10.147  1.00 29.16    -0.224 NA
HETATM    8  C2    D T1356       5.926   6.022  10.914  1.00 30.02     0.200 A 
HETATM    9  N1    D T1356       4.576   5.961  10.534  1.00 29.74    -0.205 NA
HETATM   10  C6    D T1356       4.152   6.613   9.435  1.00 29.94     0.166 A 
ENDROOT
BRANCH  10  11
HETATM   11  NAY   D T1356       2.860   6.572   9.018  1.00 31.31    -0.227 NA
BRANCH  11  12
HETATM   12  CBE   D T1356       1.955   5.759   9.628  1.00 32.67     0.083 A 
HETATM   13  CAK   D T1356       1.027   6.309  10.513  1.00 33.73     0.021 A 
HETATM   14  CAI   D T1356       0.077   5.504  11.150  1.00 34.14     0.021 A 
HETATM   15  CBD   D T1356       0.025   4.125  10.893  1.00 33.99     0.085 A 
HETATM   16  CAH   D T1356       0.955   3.574  10.012  1.00 33.61     0.021 A 
HETATM   17  CAJ   D T1356       1.901   4.382   9.381  1.00 33.42     0.021 A 
BRANCH  15  18
HETATM   18  NAX   D T1356      -0.856   3.295  11.503  1.00 34.41    -0.208 NA
HETATM   19  CBC   D T1356      -2.185   3.346  11.242  1.00 37.04     0.279 C 
HETATM   20  OAB   D T1356      -2.720   4.115  10.436  1.00 38.15    -0.265 OA
BRANCH  19  21
HETATM   21  CBF   D T1356      -2.956   2.438  11.972  1.00 37.03     0.058 A 
HETATM   22  CAF   D T1356      -2.338   1.541  12.846  1.00 38.06     0.005 A 
HETATM   23  CAD   D T1356      -3.103   0.630  13.570  1.00 38.28     0.000 A 
HETATM   24  CAC   D T1356      -4.490   0.606  13.420  1.00 38.02     0.000 A 
HETATM   25  CAE   D T1356      -5.109   1.503  12.554  1.00 37.90     0.000 A 
HETATM   26  CAG   D T1356      -4.342   2.410  11.826  1.00 37.23     0.005 A 
ENDBRANCH  19  21
ENDBRANCH  15  18
ENDBRANCH  11  12
ENDBRANCH  10  11
BRANCH   3  27
HETATM   27  OAZ   D T1356       5.150   9.454   5.640  1.00 30.66    -0.326 OA
HETATM   28  CAA   D T1356       5.317   8.761   4.400  1.00 33.36     0.181 C 
ENDBRANCH   3  27
BRANCH   1  29
HETATM   29  OBB   D T1356       7.748   9.604   6.369  1.00 30.55    -0.329 OA
BRANCH  29  30
HETATM   30  CAP   D T1356       8.907  10.235   6.958  1.00 33.72     0.151 C 
BRANCH  30  31
HETATM   31  CAO   D T1356      10.176   9.501   6.489  1.00 37.07     0.068 C 
BRANCH  31  32
HETATM   32  CAS   D T1356      10.014   9.127   5.009  1.00 39.71     0.253 C 
BRANCH  32  33
HETATM   33  NBL   D T1356      11.105   9.496   4.074  1.00 41.70     0.142 N 
HETATM   34  CAT   D T1356      12.123   8.443   3.856  1.00 43.12     0.282 C 
HETATM   35  CAQ   D T1356      13.123   8.892   2.771  1.00 43.52     0.178 C 
HETATM   36  OBA   D T1356      12.718  10.191   2.211  1.00 44.22    -0.350 OA
HETATM   37  CAR   D T1356      12.611  11.254   3.220  1.00 43.52     0.178 C 
HETATM   38  CAU   D T1356      11.761  10.777   4.416  1.00 42.73     0.282 C 
ENDBRANCH  32  33
ENDBRANCH  31  32
ENDBRANCH  30  31
ENDBRANCH  29  30
ENDBRANCH   1  29
TORSDOF 10
ENDMDL
MODEL 2
REMARK VINA RESULT:    -8.495      2.245      3.540
REMARK INTER + INTRA:         -14.409
REMARK INTER:                 -13.108
REMARK INTRA:                  -1.301
REMARK UNBOUND:                -0.947
REMARK  10 active torsions:
REMARK  status: ('A' for Active; 'I' for Inactive)
REMARK    1  A    between atoms: NBL_6  and  CAS_7 
REMARK    2  A    between atoms: CAS_7  and  CAO_8 
REMARK    3  A    between atoms: CAO_8  and  CAP_9 
REMARK    4  A    between atoms: CAP_9  and  OBB_10 
REMARK    5  A    between atoms: OBB_10  and  CBH_11 
REMARK    6  A    between atoms: CBG_13  and  OAZ_14 
REMARK    7  A    between atoms: C6_22  and  NAY_23 
REMARK    8  A    between atoms: NAY_23  and  CBE_24 
REMARK    9  A    between atoms: CBD_29  and  NAX_30 
REMARK       I    between atoms: NAX_30  and  CBC_31 
REMARK   10  A    between atoms: CBC_31  and  CBF_33 
ROOT
HETATM    1  CBH   D T1356       7.050   7.727   5.796  1.00 30.53     0.118 A 
HETATM    2  CAM   D T1356       7.386   6.562   6.495  1.00 29.88     0.045 A 
HETATM    3  CBG   D T1356       5.782   8.309   5.992  1.00 30.48     0.117 A 
HETATM    4  CAN   D T1356       4.862   7.729   6.864  1.00 29.67     0.031 A 
HETATM    5  C5    D T1356       5.195   6.567   7.569  1.00 29.79     0.056 A 
HETATM    6  C4    D T1356       6.462   5.989   7.378  1.00 29.99     0.088 A 
HETATM    7  N3    D T1356       6.798   4.872   8.043  1.00 29.16    -0.224 NA
HETATM    8  C2    D T1356       5.897   4.272   8.930  1.00 30.02     0.200 A 
HETATM    9  N1    D T1356       4.633   4.852   9.128  1.00 29.74    -0.205 NA
HETATM   10  C6    D T1356       4.290   5.969   8.462  1.00 29.94     0.166 A 
ENDROOT
BRANCH  10  11
HETATM   11  NAY   D T1356       3.074   6.559   8.608  1.00 31.31    -0.227 NA
BRANCH  11  12
HETATM   12  CBE   D T1356       2.037   5.886   9.177  1.00 32.67     0.083 A 
HETATM   13  CAK   D T1356       1.526   4.753   8.543  1.00 33.73     0.021 A 
HETATM   14  CAI   D T1356       0.467   4.032   9.104  1.00 34.14     0.021 A 
HETATM   15  CBD   D T1356      -0.090   4.423  10.331  1.00 33.99     0.085 A 
HETATM   16  CAH   D T1356       0.418   5.558  10.963  1.00 33.61     0.021 A 
HETATM   17  CAJ   D T1356       1.473   6.274  10.398  1.00 33.42     0.021 A 
BRANCH  15  18
HETATM   18  NAX   D T1356      -1.134   3.777  10.906  1.00 34.41    -0.208 NA
HETATM   19  CBC   D T1356      -0.952   2.735  11.752  1.00 37.04     0.279 C 
HETATM   20  OAB   D T1356       0.146   2.285  12.096  1.00 38.15    -0.265 OA
BRANCH  19  21
HETATM   21  CBF   D T1356      -2.133   2.167  12.239  1.00 37.03     0.058 A 
HETATM   22  CAF   D T1356      -3.368   2.715  11.884  1.00 38.06     0.005 A 
HETATM   23  CAD   D T1356      -4.546   2.156  12.373  1.00 38.28     0.000 A 
HETATM   24  CAC   D T1356      -4.497   1.051  13.221  1.00 38.02     0.000 A 
HETATM   25  CAE   D T1356      -3.268   0.500  13.571  1.00 37.90     0.000 A 
HETATM   26  CAG   D T1356      -2.089   1.063  13.088  1.00 37.23     0.005 A 
ENDBRANCH  19  21
ENDBRANCH  15  18
ENDBRANCH  11  12
ENDBRANCH  10  11
BRANCH   3  27
HETATM   27  OAZ   D T1356       5.445   9.442   5.287  1.00 30.66    -0.326 OA
HETATM   28  CAA   D T1356       4.974   9.252   3.950  1.00 33.36     0.181 C 
ENDBRANCH   3  27
BRANCH   1  29
HETATM   29  OBB   D T1356       7.891   8.357   4.911  1.00 30.55    -0.329 OA
BRANCH  29  30
HETATM   30  CAP   D T1356       9.190   8.803   5.361  1.00 33.72     0.151 C 
BRANCH  30  31
HETATM   31  CAO   D T1356       9.008   9.927   6.397  1.00 37.07     0.068 C 
BRANCH  31  32
HETATM   32  CAS   D T1356       9.941   9.659   7.588  1.00 39.71     0.253 C 
BRANCH  32  33
HETATM   33  NBL   D T1356       9.508  10.123   8.928  1.00 41.70     0.142 N 
HETATM   34  CAT   D T1356       8.137   9.717   9.316  1.00 43.12     0.282 C 
HETATM   35  CAQ   D T1356       7.854  10.140  10.772  1.00 43.52     0.178 C 
HETATM   36  OBA   D T1356       9.057  10.738  11.372  1.00 44.22    -0.350 OA
HETATM   37  CAR   D T1356       9.559  11.904  10.634  1.00 43.52     0.178 C 
HETATM   38  CAU   D T1356       9.686  11.577   9.132  1.00 42.73     0.282 C 
ENDBRANCH  32  33
ENDBRANCH  31  32
ENDBRANCH  30  31
ENDBRANCH  29  30
ENDBRANCH   1  29
TORSDOF 10
ENDMDL
MODEL 3
REMARK VINA RESULT:    -8.354      2.178      3.403
REMARK INTER + INTRA:         -14.185
REMARK INTER:                 -12.530
REMARK INTRA:                  -1.656
REMARK UNBOUND:                -0.947
REMARK  10 active torsions:
REMARK  status: ('A' for Active; 'I' for Inactive)
REMARK    1  A    between atoms: NBL_6  and  CAS_7 
REMARK    2  A    between atoms: CAS_7  and  CAO_8 
REMARK    3  A    between atoms: CAO_8  and  CAP_9 
REMARK    4  A    between atoms: CAP_9  and  OBB_10 
REMARK    5  A    between atoms: OBB_10  and  CBH_11 
REMARK    6  A    between atoms: CBG_13  and  OAZ_14 
REMARK    7  A    between atoms: C6_22  and  NAY_23 
REMARK    8  A    between atoms: NAY_23  and  CBE_24 
REMARK    9  A    between atoms: CBD_29  and  NAX_30 
REMARK       I    between atoms: NAX_30  and  CBC_31 
REMARK   10  A    between atoms: CBC_31  and  CBF_33 
ROOT
HETATM    1  CBH   D T1356       6.946   8.763   7.660  1.00 30.53     0.118 A 
HETATM    2  CAM   D T1356       7.224   8.050   8.832  1.00 29.88     0.045 A 
HETATM    3  CBG   D T1356       5.659   8.686   7.093  1.00 30.48     0.117 A 
HETATM    4  CAN   D T1356       4.670   7.899   7.682  1.00 29.67     0.031 A 
HETATM    5  C5    D T1356       4.941   7.189   8.855  1.00 29.79     0.056 A 
HETATM    6  C4    D T1356       6.223   7.271   9.426  1.00 29.99     0.088 A 
HETATM    7  N3    D T1356       6.503   6.593  10.551  1.00 29.16    -0.224 NA
HETATM    8  C2    D T1356       5.527   5.801  11.167  1.00 30.02     0.200 A 
HETATM    9  N1    D T1356       4.243   5.724  10.604  1.00 29.74    -0.205 NA
HETATM   10  C6    D T1356       3.958   6.398   9.475  1.00 29.94     0.166 A 
ENDROOT
BRANCH  10  11
HETATM   11  NAY   D T1356       2.736   6.343   8.883  1.00 31.31    -0.227 NA
BRANCH  11  12
HETATM   12  CBE   D T1356       1.726   5.617   9.436  1.00 32.67     0.083 A 
HETATM   13  CAK   D T1356       1.454   4.339   8.945  1.00 33.73     0.021 A 
HETATM   14  CAI   D T1356       0.430   3.562   9.496  1.00 34.14     0.021 A 
HETATM   15  CBD   D T1356      -0.333   4.046  10.570  1.00 33.99     0.085 A 
HETATM   16  CAH   D T1356      -0.064   5.324  11.058  1.00 33.61     0.021 A 
HETATM   17  CAJ   D T1356       0.958   6.095  10.503  1.00 33.42     0.021 A 
BRANCH  15  18
HETATM   18  NAX   D T1356      -1.353   3.346  11.123  1.00 34.41    -0.208 NA
HETATM   19  CBC   D T1356      -1.140   2.380  12.049  1.00 37.04     0.279 C 
HETATM   20  OAB   D T1356      -0.033   2.053  12.489  1.00 38.15    -0.265 OA
BRANCH  19  21
HETATM   21  CBF   D T1356      -2.298   1.740  12.500  1.00 37.03     0.058 A 
HETATM   22  CAF   D T1356      -3.553   2.267  12.188  1.00 38.06     0.005 A 
HETATM   23  CAD   D T1356      -4.708   1.636  12.642  1.00 38.28     0.000 A 
HETATM   24  CAC   D T1356      -4.616   0.478  13.414  1.00 38.02     0.000 A 
HETATM   25  CAE   D T1356      -3.366  -0.052  13.721  1.00 37.90     0.000 A 
HETATM   26  CAG   D T1356      -2.211   0.583  13.272  1.00 37.23     0.005 A 
ENDBRANCH  19  21
ENDBRANCH  15  18
ENDBRANCH  11  12
ENDBRANCH  10  11
BRANCH   3  27
HETATM   27  OAZ   D T1356       5.395   9.369   5.928  1.00 30.66    -0.326 OA
HETATM   28  CAA   D T1356       5.261   8.586   4.738  1.00 33.36     0.181 C 
ENDBRANCH   3  27
BRANCH   1  29
HETATM   29  OBB   D T1356       7.864   9.553   7.010  1.00 30.55    -0.329 OA
BRANCH  29  30
HETATM   30  CAP   D T1356       9.254   9.156   6.991  1.00 33.72     0.151 C 
BRANCH  30  31
HETATM   31  CAO   D T1356       9.452   8.054   5.936  1.00 37.07     0.068 C 
BRANCH  31  32
HETATM   32  CAS   D T1356      10.316   6.938   6.541  1.00 39.71     0.253 C 
BRANCH  32  33
HETATM   33  NBL   D T1356       9.640   5.690   6.970  1.00 41.70     0.142 N 
HETATM   34  CAT   D T1356       8.217   5.582   6.572  1.00 43.12     0.282 C 
HETATM   35  CAQ   D T1356       7.666   4.194   6.955  1.00 43.52     0.178 C 
HETATM   36  OBA   D T1356       8.737   3.357   7.517  1.00 44.22    -0.350 OA
HETATM   37  CAR   D T1356       9.381   3.948   8.698  1.00 43.52     0.178 C 
HETATM   38  CAU   D T1356       9.788   5.409   8.415  1.00 42.73     0.282 C 
ENDBRANCH  32  33
ENDBRANCH  31  32
ENDBRANCH  30  31
ENDBRANCH  29  30
ENDBRANCH   1  29
TORSDOF 10
ENDMDL
MODEL 4
REMARK VINA RESULT:    -7.857      2.735      3.938
REMARK INTER + INTRA:         -13.397
REMARK INTER:                 -11.958
REMARK INTRA:                  -1.439
REMARK UNBOUND:                -0.947
REMARK  10 active torsions:
REMARK  status: ('A' for Active; 'I' for Inactive)
REMARK    1  A    between atoms: NBL_6  and  CAS_7 
REMARK    2  A    between atoms: CAS_7  and  CAO_8 
REMARK    3  A    between atoms: CAO_8  and  CAP_9 
REMARK    4  A    between atoms: CAP_9  and  OBB_10 
REMARK    5  A    between atoms: OBB_10  and  CBH_11 
REMARK    6  A    between atoms: CBG_13  and  OAZ_14 
REMARK    7  A    between atoms: C6_22  and  NAY_23 
REMARK    8  A    between atoms: NAY_23  and  CBE_24 
REMARK    9  A    between atoms: CBD_29  and  NAX_30 
REMARK       I    between atoms: NAX_30  and  CBC_31 
REMARK   10  A    between atoms: CBC_31  and  CBF_33 
ROOT
HETATM    1  CBH   D T1356       7.157   8.785   8.825  1.00 30.53     0.118 A 
HETATM    2  CAM   D T1356       6.250   8.775   7.758  1.00 29.88     0.045 A 
HETATM    3  CBG   D T1356       7.016   7.840   9.860  1.00 30.48     0.117 A 
HETATM    4  CAN   D T1356       5.978   6.909   9.834  1.00 29.67     0.031 A 
HETATM    5  C5    D T1356       5.072   6.892   8.769  1.00 29.79     0.056 A 
HETATM    6  C4    D T1356       5.216   7.830   7.732  1.00 29.99     0.088 A 
HETATM    7  N3    D T1356       4.355   7.832   6.702  1.00 29.16    -0.224 NA
HETATM    8  C2    D T1356       3.308   6.905   6.647  1.00 30.02     0.200 A 
HETATM    9  N1    D T1356       3.166   5.961   7.678  1.00 29.74    -0.205 NA
HETATM   10  C6    D T1356       4.025   5.957   8.714  1.00 29.94     0.166 A 
ENDROOT
BRANCH  10  11
HETATM   11  NAY   D T1356       3.920   5.075   9.742  1.00 31.31    -0.227 NA
BRANCH  11  12
HETATM   12  CBE   D T1356       2.710   4.573  10.109  1.00 32.67     0.083 A 
HETATM   13  CAK   D T1356       1.657   5.449  10.375  1.00 33.73     0.021 A 
HETATM   14  CAI   D T1356       0.398   4.967  10.746  1.00 34.14     0.021 A 
HETATM   15  CBD   D T1356       0.162   3.587  10.837  1.00 33.99     0.085 A 
HETATM   16  CAH   D T1356       1.214   2.711  10.575  1.00 33.61     0.021 A 
HETATM   17  CAJ   D T1356       2.469   3.198  10.207  1.00 33.42     0.021 A 
BRANCH  15  18
HETATM   18  NAX   D T1356      -1.031   3.068  11.217  1.00 34.41    -0.208 NA
HETATM   19  CBC   D T1356      -1.147   2.257  12.297  1.00 37.04     0.279 C 
HETATM   20  OAB   D T1356      -0.215   1.926  13.038  1.00 38.15    -0.265 OA
BRANCH  19  21
HETATM   21  CBF   D T1356      -2.442   1.790  12.537  1.00 37.03     0.058 A 
HETATM   22  CAF   D T1356      -3.539   2.469  12.003  1.00 38.06     0.005 A 
HETATM   23  CAD   D T1356      -4.831   2.010  12.246  1.00 38.28     0.000 A 
HETATM   24  CAC   D T1356      -5.035   0.874  13.029  1.00 38.02     0.000 A 
HETATM   25  CAE   D T1356      -3.943   0.192  13.558  1.00 37.90     0.000 A 
HETATM   26  CAG   D T1356      -2.651   0.655  13.320  1.00 37.23     0.005 A 
ENDBRANCH  19  21
ENDBRANCH  15  18
ENDBRANCH  11  12
ENDBRANCH  10  11
BRANCH   3  27
HETATM   27  OAZ   D T1356       7.894   7.865  10.919  1.00 30.66    -0.326 OA
HETATM   28  CAA   D T1356       8.240   6.604  11.499  1.00 33.36     0.181 C 
ENDBRANCH   3  27
BRANCH   1  29
HETATM   29  OBB   D T1356       8.200   9.673   8.933  1.00 30.55    -0.329 OA
BRANCH  29  30
HETATM   30  CAP   D T1356       9.212   9.708   7.902  1.00 33.72     0.151 C 
BRANCH  30  31
HETATM   31  CAO   D T1356      10.095   8.453   8.016  1.00 37.07     0.068 C 
BRANCH  31  32
HETATM   32  CAS   D T1356       9.872   7.576   6.775  1.00 39.71     0.253 C 
BRANCH  32  33
HETATM   33  NBL   D T1356       9.493   6.157   6.986  1.00 41.70     0.142 N 
HETATM   34  CAT   D T1356       8.082   5.835   6.672  1.00 43.12     0.282 C 
HETATM   35  CAQ   D T1356       7.846   4.316   6.800  1.00 43.52     0.178 C 
HETATM   36  OBA   D T1356       9.110   3.629   7.107  1.00 44.22    -0.350 OA
HETATM   37  CAR   D T1356       9.753   4.110   8.338  1.00 43.52     0.178 C 
HETATM   38  CAU   D T1356       9.845   5.650   8.330  1.00 42.73     0.282 C 
ENDBRANCH  32  33
ENDBRANCH  31  32
ENDBRANCH  30  31
ENDBRANCH  29  30
ENDBRANCH   1  29
TORSDOF 10
ENDMDL
MODEL 5
REMARK VINA RESULT:    -7.772      3.672      4.674
REMARK INTER + INTRA:         -13.263
REMARK INTER:                 -12.154
REMARK INTRA:                  -1.109
REMARK UNBOUND:                -0.947
REMARK  10 active torsions:
REMARK  status: ('A' for Active; 'I' for Inactive)
REMARK    1  A    between atoms: NBL_6  and  CAS_7 
REMARK    2  A    between atoms: CAS_7  and  CAO_8 
REMARK    3  A    between atoms: CAO_8  and  CAP_9 
REMARK    4  A    between atoms: CAP_9  and  OBB_10 
REMARK    5  A    between atoms: OBB_10  and  CBH_11 
REMARK    6  A    between atoms: CBG_13  and  OAZ_14 
REMARK    7  A    between atoms: C6_22  and  NAY_23 
REMARK    8  A    between atoms: NAY_23  and  CBE_24 
REMARK    9  A    between atoms: CBD_29  and  NAX_30 
REMARK       I    between atoms: NAX_30  and  CBC_31 
REMARK   10  A    between atoms: CBC_31  and  CBF_33 
ROOT
HETATM    1  CBH   D T1356       8.381   7.272   7.761  1.00 30.53     0.118 A 
HETATM    2  CAM   D T1356       7.414   7.514   6.778  1.00 29.88     0.045 A 
HETATM    3  CBG   D T1356       7.970   6.984   9.078  1.00 30.48     0.117 A 
HETATM    4  CAN   D T1356       6.616   6.951   9.407  1.00 29.67     0.031 A 
HETATM    5  C5    D T1356       5.646   7.187   8.428  1.00 29.79     0.056 A 
HETATM    6  C4    D T1356       6.054   7.467   7.113  1.00 29.99     0.088 A 
HETATM    7  N3    D T1356       5.138   7.700   6.159  1.00 29.16    -0.224 NA
HETATM    8  C2    D T1356       3.772   7.666   6.461  1.00 30.02     0.200 A 
HETATM    9  N1    D T1356       3.360   7.378   7.773  1.00 29.74    -0.205 NA
HETATM   10  C6    D T1356       4.275   7.147   8.733  1.00 29.94     0.166 A 
ENDROOT
BRANCH  10  11
HETATM   11  NAY   D T1356       3.927   6.880  10.019  1.00 31.31    -0.227 NA
BRANCH  11  12
HETATM   12  CBE   D T1356       2.755   6.253  10.309  1.00 32.67     0.083 A 
HETATM   13  CAK   D T1356       1.720   6.976  10.904  1.00 33.73     0.021 A 
HETATM   14  CAI   D T1356       0.499   6.365  11.207  1.00 34.14     0.021 A 
HETATM   15  CBD   D T1356       0.283   5.013  10.897  1.00 33.99     0.085 A 
HETATM   16  CAH   D T1356       1.318   4.290  10.305  1.00 33.61     0.021 A 
HETATM   17  CAJ   D T1356       2.534   4.904  10.007  1.00 33.42     0.021 A 
BRANCH  15  18
HETATM   18  NAX   D T1356      -0.870   4.366  11.192  1.00 34.41    -0.208 NA
HETATM   19  CBC   D T1356      -0.885   3.233  11.935  1.00 37.04     0.279 C 
HETATM   20  OAB   D T1356       0.113   2.692  12.423  1.00 38.15    -0.265 OA
BRANCH  19  21
HETATM   21  CBF   D T1356      -2.155   2.680  12.128  1.00 37.03     0.058 A 
HETATM   22  CAF   D T1356      -3.201   3.017  11.267  1.00 38.06     0.005 A 
HETATM   23  CAD   D T1356      -4.468   2.473  11.461  1.00 38.28     0.000 A 
HETATM   24  CAC   D T1356      -4.698   1.594  12.518  1.00 38.02     0.000 A 
HETATM   25  CAE   D T1356      -3.656   1.252  13.375  1.00 37.90     0.000 A 
HETATM   26  CAG   D T1356      -2.390   1.801  13.185  1.00 37.23     0.005 A 
ENDBRANCH  19  21
ENDBRANCH  15  18
ENDBRANCH  11  12
ENDBRANCH  10  11
BRANCH   3  27
HETATM   27  OAZ   D T1356       8.922   6.769  10.048  1.00 30.66    -0.326 OA
HETATM   28  CAA   D T1356       9.125   5.415  10.462  1.00 33.36     0.181 C 
ENDBRANCH   3  27
BRANCH   1  29
HETATM   29  OBB   D T1356       9.734   7.296   7.524  1.00 30.55    -0.329 OA
BRANCH  29  30
HETATM   30  CAP   D T1356      10.286   6.463   6.480  1.00 33.72     0.151 C 
BRANCH  30  31
HETATM   31  CAO   D T1356      10.578   5.063   7.049  1.00 37.07     0.068 C 
BRANCH  31  32
HETATM   32  CAS   D T1356       9.404   4.134   6.705  1.00 39.71     0.253 C 
BRANCH  32  33
HETATM   33  NBL   D T1356       9.708   2.718   6.386  1.00 41.70     0.142 N 
HETATM   34  CAT   D T1356      11.094   2.294   6.690  1.00 43.12     0.282 C 
HETATM   35  CAQ   D T1356      11.249   0.779   6.444  1.00 43.52     0.178 C 
HETATM   36  OBA   D T1356       9.955   0.190   6.069  1.00 44.22    -0.350 OA
HETATM   37  CAR   D T1356       9.358   0.801   4.873  1.00 43.52     0.178 C 
HETATM   38  CAU   D T1356       9.350   2.338   5.002  1.00 42.73     0.282 C 
ENDBRANCH  32  33
ENDBRANCH  31  32
ENDBRANCH  30  31
ENDBRANCH  29  30
ENDBRANCH   1  29
TORSDOF 10
ENDMDL
MODEL 6
REMARK VINA RESULT:    -7.767      2.212      2.857
REMARK INTER + INTRA:         -13.256
REMARK INTER:                 -12.747
REMARK INTRA:                  -0.509
REMARK UNBOUND:                -0.947
REMARK  10 active torsions:
REMARK  status: ('A' for Active; 'I' for Inactive)
REMARK    1  A    between atoms: NBL_6  and  CAS_7 
REMARK    2  A    between atoms: CAS_7  and  CAO_8 
REMARK    3  A    between atoms: CAO_8  and  CAP_9 
REMARK    4  A    between atoms: CAP_9  and  OBB_10 
REMARK    5  A    between atoms: OBB_10  and  CBH_11 
REMARK    6  A    between atoms: CBG_13  and  OAZ_14 
REMARK    7  A    between atoms: C6_22  and  NAY_23 
REMARK    8  A    between atoms: NAY_23  and  CBE_24 
REMARK    9  A    between atoms: CBD_29  and  NAX_30 
REMARK       I    between atoms: NAX_30  and  CBC_31 
REMARK   10  A    between atoms: CBC_31  and  CBF_33 
ROOT
HETATM    1  CBH   D T1356       6.402   7.649   6.719  1.00 30.53     0.118 A 
HETATM    2  CAM   D T1356       5.422   8.490   7.257  1.00 29.88     0.045 A 
HETATM    3  CBG   D T1356       6.305   6.258   6.921  1.00 30.48     0.117 A 
HETATM    4  CAN   D T1356       5.253   5.720   7.659  1.00 29.67     0.031 A 
HETATM    5  C5    D T1356       4.268   6.555   8.196  1.00 29.79     0.056 A 
HETATM    6  C4    D T1356       4.360   7.943   7.989  1.00 29.99     0.088 A 
HETATM    7  N3    D T1356       3.426   8.762   8.498  1.00 29.16    -0.224 NA
HETATM    8  C2    D T1356       2.354   8.248   9.238  1.00 30.02     0.200 A 
HETATM    9  N1    D T1356       2.256   6.862   9.439  1.00 29.74    -0.205 NA
HETATM   10  C6    D T1356       3.191   6.036   8.933  1.00 29.94     0.166 A 
ENDROOT
BRANCH  10  11
HETATM   11  NAY   D T1356       3.148   4.690   9.114  1.00 31.31    -0.227 NA
BRANCH  11  12
HETATM   12  CBE   D T1356       2.020   4.084   9.574  1.00 32.67     0.083 A 
HETATM   13  CAK   D T1356       2.124   3.102  10.560  1.00 33.73     0.021 A 
HETATM   14  CAI   D T1356       0.984   2.466  11.063  1.00 34.14     0.021 A 
HETATM   15  CBD   D T1356      -0.292   2.819  10.599  1.00 33.99     0.085 A 
HETATM   16  CAH   D T1356      -0.396   3.797   9.611  1.00 33.61     0.021 A 
HETATM   17  CAJ   D T1356       0.744   4.428   9.112  1.00 33.42     0.021 A 
BRANCH  15  18
HETATM   18  NAX   D T1356      -1.426   2.216  11.032  1.00 34.41    -0.208 NA
HETATM   19  CBC   D T1356      -1.860   2.340  12.309  1.00 37.04     0.279 C 
HETATM   20  OAB   D T1356      -1.300   3.006  13.186  1.00 38.15    -0.265 OA
BRANCH  19  21
HETATM   21  CBF   D T1356      -3.033   1.636  12.597  1.00 37.03     0.058 A 
HETATM   22  CAF   D T1356      -2.979   0.479  13.376  1.00 38.06     0.005 A 
HETATM   23  CAD   D T1356      -4.144  -0.229  13.658  1.00 38.28     0.000 A 
HETATM   24  CAC   D T1356      -5.369   0.213  13.159  1.00 38.02     0.000 A 
HETATM   25  CAE   D T1356      -5.427   1.370  12.388  1.00 37.90     0.000 A 
HETATM   26  CAG   D T1356      -4.260   2.074  12.100  1.00 37.23     0.005 A 
ENDBRANCH  19  21
ENDBRANCH  15  18
ENDBRANCH  11  12
ENDBRANCH  10  11
BRANCH   3  27
HETATM   27  OAZ   D T1356       7.283   5.434   6.410  1.00 30.66    -0.326 OA
HETATM   28  CAA   D T1356       7.573   4.245   7.149  1.00 33.36     0.181 C 
ENDBRANCH   3  27
BRANCH   1  29
HETATM   29  OBB   D T1356       7.477   8.097   5.989  1.00 30.55    -0.329 OA
BRANCH  29  30
HETATM   30  CAP   D T1356       8.683   8.498   6.675  1.00 33.72     0.151 C 
BRANCH  30  31
HETATM   31  CAO   D T1356       8.839  10.026   6.573  1.00 37.07     0.068 C 
BRANCH  31  32
HETATM   32  CAS   D T1356       9.908  10.483   7.577  1.00 39.71     0.253 C 
BRANCH  32  33
HETATM   33  NBL   D T1356      10.904  11.484   7.124  1.00 41.70     0.142 N 
HETATM   34  CAT   D T1356      11.675  11.097   5.920  1.00 43.12     0.282 C 
HETATM   35  CAQ   D T1356      12.576  12.267   5.471  1.00 43.52     0.178 C 
HETATM   36  OBA   D T1356      12.335  13.448   6.315  1.00 44.22    -0.350 OA
HETATM   37  CAR   D T1356      12.564  13.200   7.745  1.00 43.52     0.178 C 
HETATM   38  CAU   D T1356      11.821  11.926   8.197  1.00 42.73     0.282 C 
ENDBRANCH  32  33
ENDBRANCH  31  32
ENDBRANCH  30  31
ENDBRANCH  29  30
ENDBRANCH   1  29
TORSDOF 10
ENDMDL
MODEL 7
REMARK VINA RESULT:    -7.512      2.751      4.813
REMARK INTER + INTRA:         -12.850
REMARK INTER:                 -11.502
REMARK INTRA:                  -1.349
REMARK UNBOUND:                -0.947
REMARK  10 active torsions:
REMARK  status: ('A' for Active; 'I' for Inactive)
REMARK    1  A    between atoms: NBL_6  and  CAS_7 
REMARK    2  A    between atoms: CAS_7  and  CAO_8 
REMARK    3  A    between atoms: CAO_8  and  CAP_9 
REMARK    4  A    between atoms: CAP_9  and  OBB_10 
REMARK    5  A    between atoms: OBB_10  and  CBH_11 
REMARK    6  A    between atoms: CBG_13  and  OAZ_14 
REMARK    7  A    between atoms: C6_22  and  NAY_23 
REMARK    8  A    between atoms: NAY_23  and  CBE_24 
REMARK    9  A    between atoms: CBD_29  and  NAX_30 
REMARK       I    between atoms: NAX_30  and  CBC_31 
REMARK   10  A    between atoms: CBC_31  and  CBF_33 
ROOT
HETATM    1  CBH   D T1356       7.950   8.541   7.922  1.00 30.53     0.118 A 
HETATM    2  CAM   D T1356       6.941   8.605   6.954  1.00 29.88     0.045 A 
HETATM    3  CBG   D T1356       7.746   7.767   9.082  1.00 30.48     0.117 A 
HETATM    4  CAN   D T1356       6.549   7.079   9.275  1.00 29.67     0.031 A 
HETATM    5  C5    D T1356       5.540   7.137   8.309  1.00 29.79     0.056 A 
HETATM    6  C4    D T1356       5.744   7.902   7.149  1.00 29.99     0.088 A 
HETATM    7  N3    D T1356       4.786   7.972   6.211  1.00 29.16    -0.224 NA
HETATM    8  C2    D T1356       3.577   7.287   6.375  1.00 30.02     0.200 A 
HETATM    9  N1    D T1356       3.372   6.514   7.530  1.00 29.74    -0.205 NA
HETATM   10  C6    D T1356       4.329   6.443   8.475  1.00 29.94     0.166 A 
ENDROOT
BRANCH  10  11
HETATM   11  NAY   D T1356       4.172   5.722   9.616  1.00 31.31    -0.227 NA
BRANCH  11  12
HETATM   12  CBE   D T1356       2.956   5.220   9.962  1.00 32.67     0.083 A 
HETATM   13  CAK   D T1356       2.749   3.840   9.924  1.00 33.73     0.021 A 
HETATM   14  CAI   D T1356       1.514   3.289  10.282  1.00 34.14     0.021 A 
HETATM   15  CBD   D T1356       0.463   4.115  10.710  1.00 33.99     0.085 A 
HETATM   16  CAH   D T1356       0.669   5.493  10.745  1.00 33.61     0.021 A 
HETATM   17  CAJ   D T1356       1.902   6.037  10.385  1.00 33.42     0.021 A 
BRANCH  15  18
HETATM   18  NAX   D T1356      -0.760   3.636  11.043  1.00 34.41    -0.208 NA
HETATM   19  CBC   D T1356      -0.927   2.722  12.029  1.00 37.04     0.279 C 
HETATM   20  OAB   D T1356      -0.017   2.252  12.721  1.00 38.15    -0.265 OA
BRANCH  19  21
HETATM   21  CBF   D T1356      -2.250   2.317  12.230  1.00 37.03     0.058 A 
HETATM   22  CAF   D T1356      -3.273   2.863  11.452  1.00 38.06     0.005 A 
HETATM   23  CAD   D T1356      -4.592   2.467  11.654  1.00 38.28     0.000 A 
HETATM   24  CAC   D T1356      -4.898   1.528  12.638  1.00 38.02     0.000 A 
HETATM   25  CAE   D T1356      -3.880   0.978  13.411  1.00 37.90     0.000 A 
HETATM   26  CAG   D T1356      -2.560   1.379  13.213  1.00 37.23     0.005 A 
ENDBRANCH  19  21
ENDBRANCH  15  18
ENDBRANCH  11  12
ENDBRANCH  10  11
BRANCH   3  27
HETATM   27  OAZ   D T1356       8.730   7.723  10.043  1.00 30.66    -0.326 OA
HETATM   28  CAA   D T1356       8.376   7.141  11.301  1.00 33.36     0.181 C 
ENDBRANCH   3  27
BRANCH   1  29
HETATM   29  OBB   D T1356       9.154   9.195   7.816  1.00 30.55    -0.329 OA
BRANCH  29  30
HETATM   30  CAP   D T1356       9.188  10.533   7.273  1.00 33.72     0.151 C 
BRANCH  30  31
HETATM   31  CAO   D T1356       9.026  11.549   8.418  1.00 37.07     0.068 C 
BRANCH  31  32
HETATM   32  CAS   D T1356       9.870  11.086   9.615  1.00 39.71     0.253 C 
BRANCH  32  33
HETATM   33  NBL   D T1356       9.192  10.930  10.925  1.00 41.70     0.142 N 
HETATM   34  CAT   D T1356       8.255  12.022  11.276  1.00 43.12     0.282 C 
HETATM   35  CAQ   D T1356       7.517  11.682  12.587  1.00 43.52     0.178 C 
HETATM   36  OBA   D T1356       7.894  10.338  13.051  1.00 44.22    -0.350 OA
HETATM   37  CAR   D T1356       9.339  10.180  13.270  1.00 43.52     0.178 C 
HETATM   38  CAU   D T1356      10.128  10.681  12.043  1.00 42.73     0.282 C 
ENDBRANCH  32  33
ENDBRANCH  31  32
ENDBRANCH  30  31
ENDBRANCH  29  30
ENDBRANCH   1  29
TORSDOF 10
ENDMDL
MODEL 8
REMARK VINA RESULT:    -7.497      4.370      7.267
REMARK INTER + INTRA:         -12.828
REMARK INTER:                 -11.341
REMARK INTRA:                  -1.487
REMARK UNBOUND:                -0.947
REMARK  10 active torsions:
REMARK  status: ('A' for Active; 'I' for Inactive)
REMARK    1  A    between atoms: NBL_6  and  CAS_7 
REMARK    2  A    between atoms: CAS_7  and  CAO_8 
REMARK    3  A    between atoms: CAO_8  and  CAP_9 
REMARK    4  A    between atoms: CAP_9  and  OBB_10 
REMARK    5  A    between atoms: OBB_10  and  CBH_11 
REMARK    6  A    between atoms: CBG_13  and  OAZ_14 
REMARK    7  A    between atoms: C6_22  and  NAY_23 
REMARK    8  A    between atoms: NAY_23  and  CBE_24 
REMARK    9  A    between atoms: CBD_29  and  NAX_30 
REMARK       I    between atoms: NAX_30  and  CBC_31 
REMARK   10  A    between atoms: CBC_31  and  CBF_33 
ROOT
HETATM    1  CBH   D T1356       8.646   5.384  10.556  1.00 30.53     0.118 A 
HETATM    2  CAM   D T1356       8.269   6.685  10.202  1.00 29.88     0.045 A 
HETATM    3  CBG   D T1356       7.838   4.299  10.161  1.00 30.48     0.117 A 
HETATM    4  CAN   D T1356       6.667   4.514   9.436  1.00 29.67     0.031 A 
HETATM    5  C5    D T1356       6.288   5.811   9.076  1.00 29.79     0.056 A 
HETATM    6  C4    D T1356       7.097   6.893   9.464  1.00 29.99     0.088 A 
HETATM    7  N3    D T1356       6.748   8.146   9.131  1.00 29.16    -0.224 NA
HETATM    8  C2    D T1356       5.581   8.390   8.397  1.00 30.02     0.200 A 
HETATM    9  N1    D T1356       4.775   7.310   8.002  1.00 29.74    -0.205 NA
HETATM   10  C6    D T1356       5.118   6.052   8.335  1.00 29.94     0.166 A 
ENDROOT
BRANCH  10  11
HETATM   11  NAY   D T1356       4.364   4.976   7.990  1.00 31.31    -0.227 NA
BRANCH  11  12
HETATM   12  CBE   D T1356       3.277   4.621   8.727  1.00 32.67     0.083 A 
HETATM   13  CAK   D T1356       3.368   3.540   9.605  1.00 33.73     0.021 A 
HETATM   14  CAI   D T1356       2.274   3.154  10.385  1.00 34.14     0.021 A 
HETATM   15  CBD   D T1356       1.064   3.862  10.316  1.00 33.99     0.085 A 
HETATM   16  CAH   D T1356       0.971   4.940   9.437  1.00 33.61     0.021 A 
HETATM   17  CAJ   D T1356       2.066   5.320   8.660  1.00 33.42     0.021 A 
BRANCH  15  18
HETATM   18  NAX   D T1356      -0.034   3.515  11.029  1.00 34.41    -0.208 NA
HETATM   19  CBC   D T1356      -0.670   2.334  10.834  1.00 37.04     0.279 C 
HETATM   20  OAB   D T1356      -0.322   1.467  10.026  1.00 38.15    -0.265 OA
BRANCH  19  21
HETATM   21  CBF   D T1356      -1.799   2.142  11.636  1.00 37.03     0.058 A 
HETATM   22  CAF   D T1356      -3.020   2.713  11.271  1.00 38.06     0.005 A 
HETATM   23  CAD   D T1356      -4.144   2.529  12.071  1.00 38.28     0.000 A 
HETATM   24  CAC   D T1356      -4.055   1.778  13.243  1.00 38.02     0.000 A 
HETATM   25  CAE   D T1356      -2.841   1.202  13.606  1.00 37.90     0.000 A 
HETATM   26  CAG   D T1356      -1.714   1.392  12.808  1.00 37.23     0.005 A 
ENDBRANCH  19  21
ENDBRANCH  15  18
ENDBRANCH  11  12
ENDBRANCH  10  11
BRANCH   3  27
HETATM   27  OAZ   D T1356       8.198   3.023  10.529  1.00 30.66    -0.326 OA
HETATM   28  CAA   D T1356       7.211   2.002  10.361  1.00 33.36     0.181 C 
ENDBRANCH   3  27
BRANCH   1  29
HETATM   29  OBB   D T1356       9.777   5.085  11.277  1.00 30.55    -0.329 OA
BRANCH  29  30
HETATM   30  CAP   D T1356       9.848   5.458  12.671  1.00 33.72     0.151 C 
BRANCH  30  31
HETATM   31  CAO   D T1356       9.356   4.284  13.535  1.00 37.07     0.068 C 
BRANCH  31  32
HETATM   32  CAS   D T1356       8.287   4.800  14.510  1.00 39.71     0.253 C 
BRANCH  32  33
HETATM   33  NBL   D T1356       7.144   3.908  14.824  1.00 41.70     0.142 N 
HETATM   34  CAT   D T1356       7.352   3.014  15.987  1.00 43.12     0.282 C 
HETATM   35  CAQ   D T1356       6.054   2.238  16.295  1.00 43.52     0.178 C 
HETATM   36  OBA   D T1356       4.973   2.681  15.402  1.00 44.22    -0.350 OA
HETATM   37  CAR   D T1356       5.289   2.520  13.976  1.00 43.52     0.178 C 
HETATM   38  CAU   D T1356       6.671   3.128  13.660  1.00 42.73     0.282 C 
ENDBRANCH  32  33
ENDBRANCH  31  32
ENDBRANCH  30  31
ENDBRANCH  29  30
ENDBRANCH   1  29
TORSDOF 10
ENDMDL
MODEL 9
REMARK VINA RESULT:    -7.339      3.601      5.037
REMARK INTER + INTRA:         -12.577
REMARK INTER:                 -11.468
REMARK INTRA:                  -1.109
REMARK UNBOUND:                -0.947
REMARK  10 active torsions:
REMARK  status: ('A' for Active; 'I' for Inactive)
REMARK    1  A    between atoms: NBL_6  and  CAS_7 
REMARK    2  A    between atoms: CAS_7  and  CAO_8 
REMARK    3  A    between atoms: CAO_8  and  CAP_9 
REMARK    4  A    between atoms: CAP_9  and  OBB_10 
REMARK    5  A    between atoms: OBB_10  and  CBH_11 
REMARK    6  A    between atoms: CBG_13  and  OAZ_14 
REMARK    7  A    between atoms: C6_22  and  NAY_23 
REMARK    8  A    between atoms: NAY_23  and  CBE_24 
REMARK    9  A    between atoms: CBD_29  and  NAX_30 
REMARK       I    between atoms: NAX_30  and  CBC_31 
REMARK   10  A    between atoms: CBC_31  and  CBF_33 
ROOT
HETATM    1  CBH   D T1356       8.713   7.251   8.646  1.00 30.53     0.118 A 
HETATM    2  CAM   D T1356       8.633   7.409   7.257  1.00 29.88     0.045 A 
HETATM    3  CBG   D T1356       7.578   7.516   9.437  1.00 30.48     0.117 A 
HETATM    4  CAN   D T1356       6.388   7.942   8.851  1.00 29.67     0.031 A 
HETATM    5  C5    D T1356       6.301   8.097   7.464  1.00 29.79     0.056 A 
HETATM    6  C4    D T1356       7.431   7.826   6.672  1.00 29.99     0.088 A 
HETATM    7  N3    D T1356       7.369   7.972   5.339  1.00 29.16    -0.224 NA
HETATM    8  C2    D T1356       6.184   8.392   4.722  1.00 30.02     0.200 A 
HETATM    9  N1    D T1356       5.051   8.655   5.510  1.00 29.74    -0.205 NA
HETATM   10  C6    D T1356       5.109   8.514   6.847  1.00 29.94     0.166 A 
ENDROOT
BRANCH  10  11
HETATM   11  NAY   D T1356       4.046   8.771   7.652  1.00 31.31    -0.227 NA
BRANCH  11  12
HETATM   12  CBE   D T1356       3.399   7.762   8.297  1.00 32.67     0.083 A 
HETATM   13  CAK   D T1356       2.696   8.039   9.471  1.00 33.73     0.021 A 
HETATM   14  CAI   D T1356       2.013   7.028  10.154  1.00 34.14     0.021 A 
HETATM   15  CBD   D T1356       2.002   5.715   9.659  1.00 33.99     0.085 A 
HETATM   16  CAH   D T1356       2.707   5.437   8.488  1.00 33.61     0.021 A 
HETATM   17  CAJ   D T1356       3.389   6.450   7.812  1.00 33.42     0.021 A 
BRANCH  15  18
HETATM   18  NAX   D T1356       1.379   4.694  10.294  1.00 34.41    -0.208 NA
HETATM   19  CBC   D T1356       0.028   4.592  10.333  1.00 37.04     0.279 C 
HETATM   20  OAB   D T1356      -0.757   5.382   9.798  1.00 38.15    -0.265 OA
BRANCH  19  21
HETATM   21  CBF   D T1356      -0.453   3.492  11.048  1.00 37.03     0.058 A 
HETATM   22  CAF   D T1356       0.417   2.461  11.412  1.00 38.06     0.005 A 
HETATM   23  CAD   D T1356      -0.061   1.360  12.118  1.00 38.28     0.000 A 
HETATM   24  CAC   D T1356      -1.410   1.281  12.462  1.00 38.02     0.000 A 
HETATM   25  CAE   D T1356      -2.277   2.309  12.106  1.00 37.90     0.000 A 
HETATM   26  CAG   D T1356      -1.801   3.407  11.393  1.00 37.23     0.005 A 
ENDBRANCH  19  21
ENDBRANCH  15  18
ENDBRANCH  11  12
ENDBRANCH  10  11
BRANCH   3  27
HETATM   27  OAZ   D T1356       7.665   7.382  10.804  1.00 30.66    -0.326 OA
HETATM   28  CAA   D T1356       7.041   6.231  11.380  1.00 33.36     0.181 C 
ENDBRANCH   3  27
BRANCH   1  29
HETATM   29  OBB   D T1356       9.849   6.846   9.305  1.00 30.55    -0.329 OA
BRANCH  29  30
HETATM   30  CAP   D T1356      10.597   5.717   8.801  1.00 33.72     0.151 C 
BRANCH  30  31
HETATM   31  CAO   D T1356      10.125   4.437   9.516  1.00 37.07     0.068 C 
BRANCH  31  32
HETATM   32  CAS   D T1356       9.002   3.793   8.690  1.00 39.71     0.253 C 
BRANCH  32  33
HETATM   33  NBL   D T1356       9.387   2.864   7.599  1.00 41.70     0.142 N 
HETATM   34  CAT   D T1356      10.750   2.298   7.714  1.00 43.12     0.282 C 
HETATM   35  CAQ   D T1356      10.982   1.251   6.604  1.00 43.52     0.178 C 
HETATM   36  OBA   D T1356       9.752   1.061   5.819  1.00 44.22    -0.350 OA
HETATM   37  CAR   D T1356       9.256   2.298   5.201  1.00 43.52     0.178 C 
HETATM   38  CAU   D T1356       9.181   3.429   6.248  1.00 42.73     0.282 C 
ENDBRANCH  32  33
ENDBRANCH  31  32
ENDBRANCH  30  31
ENDBRANCH  29  30
ENDBRANCH   1  29
TORSDOF 10
ENDMDL
