MODEL 1
REMARK VINA RESULT:    -7.734      0.000      0.000
REMARK INTER + INTRA:         -13.748
REMARK INTER:                 -12.256
REMARK INTRA:                  -1.492
REMARK UNBOUND:                -1.492
REMARK  10 active torsions:
REMARK  status: ('A' for Active; 'I' for Inactive)
REMARK    1  A    between atoms: NBL_6  and  CAS_7 
REMARK    2  A    between atoms: CAS_7  and  CAO_8 
REMARK    3  A    between atoms: CAO_8  and  CAP_9 
REMARK    4  A    between atoms: CAP_9  and  OBB_10 
REMARK    5  A    between atoms: OBB_10  and  CBH_11 
REMARK    6  A    between atoms: CBG_13  and  OAZ_14 
REMARK    7  A    between atoms: C6_22  and  NAY_23 
REMARK    8  A    between atoms: NAY_23  and  CBE_24 
REMARK    9  A    between atoms: CBD_29  and  NAX_30 
REMARK       I    between atoms: NAX_30  and  CBC_31 
REMARK   10  A    between atoms: CBC_31  and  CBF_33 
ROOT
HETATM    1  CBH   D T1356      -1.214   4.688 -20.217  1.00 30.53     0.118 A 
HETATM    2  CAM   D T1356       0.111   4.640 -20.666  1.00 29.88     0.045 A 
HETATM    3  CBG   D T1356      -1.671   5.835 -19.537  1.00 30.48     0.117 A 
HETATM    4  CAN   D T1356      -0.813   6.908 -19.301  1.00 29.67     0.031 A 
HETATM    5  C5    D T1356       0.510   6.866 -19.751  1.00 29.79     0.056 A 
HETATM    6  C4    D T1356       0.966   5.726 -20.435  1.00 29.99     0.088 A 
HETATM    7  N3    D T1356       2.234   5.665 -20.874  1.00 29.16    -0.224 NA
HETATM    8  C2    D T1356       3.113   6.731 -20.657  1.00 30.02     0.200 A 
HETATM    9  N1    D T1356       2.660   7.875 -19.979  1.00 29.74    -0.205 NA
HETATM   10  C6    D T1356       1.392   7.939 -19.536  1.00 29.94     0.166 A 
ENDROOT
BRANCH  10  11
HETATM   11  NAY   D T1356       0.911   9.018 -18.863  1.00 31.31    -0.227 NA
BRANCH  11  12
HETATM   12  CBE   D T1356       1.380   9.335 -17.626  1.00 32.67     0.083 A 
HETATM   13  CAK   D T1356       1.149  10.613 -17.113  1.00 33.73     0.021 A 
HETATM   14  CAI   D T1356       1.609  10.969 -15.842  1.00 34.14     0.021 A 
HETATM   15  CBD   D T1356       2.294  10.039 -15.045  1.00 33.99     0.085 A 
HETATM   16  CAH   D T1356       2.528   8.764 -15.558  1.00 33.61     0.021 A 
HETATM   17  CAJ   D T1356       2.068   8.414 -16.829  1.00 33.42     0.021 A 
BRANCH  15  18
HETATM   18  NAX   D T1356       2.783  10.341 -13.818  1.00 34.41    -0.208 NA
HETATM   19  CBC   D T1356       2.021  10.253 -12.702  1.00 37.04     0.279 C 
HETATM   20  OAB   D T1356       0.842   9.888 -12.676  1.00 38.15    -0.265 OA
BRANCH  19  21
HETATM   21  CBF   D T1356       2.673  10.621 -11.522  1.00 37.03     0.058 A 
HETATM   22  CAF   D T1356       3.506  11.742 -11.505  1.00 38.06     0.005 A 
HETATM   23  CAD   D T1356       4.164  12.108 -10.334  1.00 38.28     0.000 A 
HETATM   24  CAC   D T1356       3.998  11.353  -9.175  1.00 38.02     0.000 A 
HETATM   25  CAE   D T1356       3.165  10.238  -9.185  1.00 37.90     0.000 A 
HETATM   26  CAG   D T1356       2.512   9.869 -10.358  1.00 37.23     0.005 A 
ENDBRANCH  19  21
ENDBRANCH  15  18
ENDBRANCH  11  12
ENDBRANCH  10  11
BRANCH   3  27
HETATM   27  OAZ   D T1356      -2.966   5.873 -19.076  1.00 30.66    -0.326 OA
HETATM   28  CAA   D T1356      -3.143   6.030 -17.665  1.00 33.36     0.181 C 
ENDBRANCH   3  27
BRANCH   1  29
HETATM   29  OBB   D T1356      -2.120   3.672 -20.398  1.00 30.55    -0.329 OA
BRANCH  29  30
HETATM   30  CAP   D T1356      -1.660   2.302 -20.386  1.00 33.72     0.151 C 
BRANCH  30  31
HETATM   31  CAO   D T1356      -2.796   1.391 -19.885  1.00 37.07     0.068 C 
BRANCH  31  32
HETATM   32  CAS   D T1356      -3.954   2.271 -19.389  1.00 39.71     0.253 C 
BRANCH  32  33
HETATM   33  NBL   D T1356      -4.394   2.112 -17.983  1.00 41.70     0.142 N 
HETATM   34  CAT   D T1356      -5.419   3.084 -17.535  1.00 43.12     0.282 C 
HETATM   35  CAQ   D T1356      -5.891   2.735 -16.107  1.00 43.52     0.178 C 
HETATM   36  OBA   D T1356      -5.251   1.491 -15.650  1.00 44.22    -0.350 OA
HETATM   37  CAR   D T1356      -3.783   1.553 -15.658  1.00 43.52     0.178 C 
HETATM   38  CAU   D T1356      -3.273   2.073 -17.017  1.00 42.73     0.282 C 
ENDBRANCH  32  33
ENDBRANCH  31  32
ENDBRANCH  30  31
ENDBRANCH  29  30
ENDBRANCH   1  29
TORSDOF 10
ENDMDL
MODEL 2
REMARK VINA RESULT:    -7.703     18.748     22.993
REMARK INTER + INTRA:         -13.698
REMARK INTER:                 -12.179
REMARK INTRA:                  -1.519
REMARK UNBOUND:                -1.492
REMARK  10 active torsions:
REMARK  status: ('A' for Active; 'I' for Inactive)
REMARK    1  A    between atoms: NBL_6  and  CAS_7 
REMARK    2  A    between atoms: CAS_7  and  CAO_8 
REMARK    3  A    between atoms: CAO_8  and  CAP_9 
REMARK    4  A    between atoms: CAP_9  and  OBB_10 
REMARK    5  A    between atoms: OBB_10  and  CBH_11 
REMARK    6  A    between atoms: CBG_13  and  OAZ_14 
REMARK    7  A    between atoms: C6_22  and  NAY_23 
REMARK    8  A    between atoms: NAY_23  and  CBE_24 
REMARK    9  A    between atoms: CBD_29  and  NAX_30 
REMARK       I    between atoms: NAX_30  and  CBC_31 
REMARK   10  A    between atoms: CBC_31  and  CBF_33 
ROOT
HETATM    1  CBH   D T1356       9.626  -5.687   2.198  1.00 30.53     0.118 A 
HETATM    2  CAM   D T1356      10.261  -4.515   2.626  1.00 29.88     0.045 A 
HETATM    3  CBG   D T1356       9.441  -5.908   0.819  1.00 30.48     0.117 A 
HETATM    4  CAN   D T1356       9.874  -4.966  -0.114  1.00 29.67     0.031 A 
HETATM    5  C5    D T1356      10.512  -3.797   0.308  1.00 29.79     0.056 A 
HETATM    6  C4    D T1356      10.703  -3.578   1.683  1.00 29.99     0.088 A 
HETATM    7  N3    D T1356      11.312  -2.459   2.109  1.00 29.16    -0.224 NA
HETATM    8  C2    D T1356      11.762  -1.502   1.194  1.00 30.02     0.200 A 
HETATM    9  N1    D T1356      11.580  -1.719  -0.182  1.00 29.74    -0.205 NA
HETATM   10  C6    D T1356      10.968  -2.838  -0.613  1.00 29.94     0.166 A 
ENDROOT
BRANCH  10  11
HETATM   11  NAY   D T1356      10.755  -3.087  -1.932  1.00 31.31    -0.227 NA
BRANCH  11  12
HETATM   12  CBE   D T1356      10.344  -2.099  -2.772  1.00 32.67     0.083 A 
HETATM   13  CAK   D T1356      11.184  -1.687  -3.809  1.00 33.73     0.021 A 
HETATM   14  CAI   D T1356      10.789  -0.681  -4.695  1.00 34.14     0.021 A 
HETATM   15  CBD   D T1356       9.528  -0.079  -4.574  1.00 33.99     0.085 A 
HETATM   16  CAH   D T1356       8.690  -0.487  -3.536  1.00 33.61     0.021 A 
HETATM   17  CAJ   D T1356       9.090  -1.490  -2.653  1.00 33.42     0.021 A 
BRANCH  15  18
HETATM   18  NAX   D T1356       9.107   0.918  -5.389  1.00 34.41    -0.208 NA
HETATM   19  CBC   D T1356       8.339   0.676  -6.479  1.00 37.04     0.279 C 
HETATM   20  OAB   D T1356       7.940  -0.438  -6.830  1.00 38.15    -0.265 OA
BRANCH  19  21
HETATM   21  CBF   D T1356       8.011   1.813  -7.223  1.00 37.03     0.058 A 
HETATM   22  CAF   D T1356       6.834   1.839  -7.974  1.00 38.06     0.005 A 
HETATM   23  CAD   D T1356       6.507   2.966  -8.724  1.00 38.28     0.000 A 
HETATM   24  CAC   D T1356       7.357   4.071  -8.730  1.00 38.02     0.000 A 
HETATM   25  CAE   D T1356       8.528   4.050  -7.979  1.00 37.90     0.000 A 
HETATM   26  CAG   D T1356       8.858   2.921  -7.235  1.00 37.23     0.005 A 
ENDBRANCH  19  21
ENDBRANCH  15  18
ENDBRANCH  11  12
ENDBRANCH  10  11
BRANCH   3  27
HETATM   27  OAZ   D T1356       8.797  -7.049   0.400  1.00 30.66    -0.326 OA
HETATM   28  CAA   D T1356       7.843  -6.899  -0.655  1.00 33.36     0.181 C 
ENDBRANCH   3  27
BRANCH   1  29
HETATM   29  OBB   D T1356       9.160  -6.659   3.050  1.00 30.55    -0.329 OA
BRANCH  29  30
HETATM   30  CAP   D T1356      10.103  -7.522   3.724  1.00 33.72     0.151 C 
BRANCH  30  31
HETATM   31  CAO   D T1356       9.613  -7.783   5.160  1.00 37.07     0.068 C 
BRANCH  31  32
HETATM   32  CAS   D T1356       9.093  -6.465   5.753  1.00 39.71     0.253 C 
BRANCH  32  33
HETATM   33  NBL   D T1356       9.895  -5.819   6.819  1.00 41.70     0.142 N 
HETATM   34  CAT   D T1356       9.106  -5.100   7.846  1.00 43.12     0.282 C 
HETATM   35  CAQ   D T1356      10.038  -4.588   8.966  1.00 43.52     0.178 C 
HETATM   36  OBA   D T1356      11.416  -5.042   8.727  1.00 44.22    -0.350 OA
HETATM   37  CAR   D T1356      11.958  -4.610   7.432  1.00 43.52     0.178 C 
HETATM   38  CAU   D T1356      10.969  -4.943   6.296  1.00 42.73     0.282 C 
ENDBRANCH  32  33
ENDBRANCH  31  32
ENDBRANCH  30  31
ENDBRANCH  29  30
ENDBRANCH   1  29
TORSDOF 10
ENDMDL
MODEL 3
REMARK VINA RESULT:    -7.566     20.352     23.508
REMARK INTER + INTRA:         -13.482
REMARK INTER:                 -11.297
REMARK INTRA:                  -2.185
REMARK UNBOUND:                -1.492
REMARK  10 active torsions:
REMARK  status: ('A' for Active; 'I' for Inactive)
REMARK    1  A    between atoms: NBL_6  and  CAS_7 
REMARK    2  A    between atoms: CAS_7  and  CAO_8 
REMARK    3  A    between atoms: CAO_8  and  CAP_9 
REMARK    4  A    between atoms: CAP_9  and  OBB_10 
REMARK    5  A    between atoms: OBB_10  and  CBH_11 
REMARK    6  A    between atoms: CBG_13  and  OAZ_14 
REMARK    7  A    between atoms: C6_22  and  NAY_23 
REMARK    8  A    between atoms: NAY_23  and  CBE_24 
REMARK    9  A    between atoms: CBD_29  and  NAX_30 
REMARK       I    between atoms: NAX_30  and  CBC_31 
REMARK   10  A    between atoms: CBC_31  and  CBF_33 
ROOT
HETATM    1  CBH   D T1356      11.467  -9.523   0.075  1.00 30.53     0.118 A 
HETATM    2  CAM   D T1356      10.084  -9.637  -0.110  1.00 29.88     0.045 A 
HETATM    3  CBG   D T1356      12.066  -8.247   0.039  1.00 30.48     0.117 A 
HETATM    4  CAN   D T1356      11.295  -7.108  -0.190  1.00 29.67     0.031 A 
HETATM    5  C5    D T1356       9.913  -7.216  -0.371  1.00 29.79     0.056 A 
HETATM    6  C4    D T1356       9.313  -8.487  -0.329  1.00 29.99     0.088 A 
HETATM    7  N3    D T1356       7.988  -8.612  -0.503  1.00 29.16    -0.224 NA
HETATM    8  C2    D T1356       7.190  -7.485  -0.727  1.00 30.02     0.200 A 
HETATM    9  N1    D T1356       7.784  -6.212  -0.763  1.00 29.74    -0.205 NA
HETATM   10  C6    D T1356       9.112  -6.083  -0.592  1.00 29.94     0.166 A 
ENDROOT
BRANCH  10  11
HETATM   11  NAY   D T1356       9.736  -4.876  -0.632  1.00 31.31    -0.227 NA
BRANCH  11  12
HETATM   12  CBE   D T1356       9.451  -3.976  -1.612  1.00 32.67     0.083 A 
HETATM   13  CAK   D T1356       8.789  -2.791  -1.283  1.00 33.73     0.021 A 
HETATM   14  CAI   D T1356       8.490  -1.841  -2.264  1.00 34.14     0.021 A 
HETATM   15  CBD   D T1356       8.871  -2.049  -3.598  1.00 33.99     0.085 A 
HETATM   16  CAH   D T1356       9.529  -3.233  -3.928  1.00 33.61     0.021 A 
HETATM   17  CAJ   D T1356       9.824  -4.180  -2.945  1.00 33.42     0.021 A 
BRANCH  15  18
HETATM   18  NAX   D T1356       8.582  -1.174  -4.591  1.00 34.41    -0.208 NA
HETATM   19  CBC   D T1356       9.379  -0.112  -4.863  1.00 37.04     0.279 C 
HETATM   20  OAB   D T1356      10.426   0.158  -4.269  1.00 38.15    -0.265 OA
BRANCH  19  21
HETATM   21  CBF   D T1356       8.925   0.704  -5.904  1.00 37.03     0.058 A 
HETATM   22  CAF   D T1356       9.598   1.890  -6.205  1.00 38.06     0.005 A 
HETATM   23  CAD   D T1356       9.145   2.709  -7.235  1.00 38.28     0.000 A 
HETATM   24  CAC   D T1356       8.014   2.350  -7.967  1.00 38.02     0.000 A 
HETATM   25  CAE   D T1356       7.344   1.167  -7.674  1.00 37.90     0.000 A 
HETATM   26  CAG   D T1356       7.793   0.351  -6.639  1.00 37.23     0.005 A 
ENDBRANCH  19  21
ENDBRANCH  15  18
ENDBRANCH  11  12
ENDBRANCH  10  11
BRANCH   3  27
HETATM   27  OAZ   D T1356      13.428  -8.138   0.198  1.00 30.66    -0.326 OA
HETATM   28  CAA   D T1356      14.120  -7.303  -0.734  1.00 33.36     0.181 C 
ENDBRANCH   3  27
BRANCH   1  29
HETATM   29  OBB   D T1356      12.300 -10.593   0.294  1.00 30.55    -0.329 OA
BRANCH  29  30
HETATM   30  CAP   D T1356      11.908 -11.614   1.238  1.00 33.72     0.151 C 
BRANCH  30  31
HETATM   31  CAO   D T1356      12.579 -11.334   2.595  1.00 37.07     0.068 C 
BRANCH  31  32
HETATM   32  CAS   D T1356      11.491 -11.237   3.675  1.00 39.71     0.253 C 
BRANCH  32  33
HETATM   33  NBL   D T1356      10.483 -10.157   3.550  1.00 41.70     0.142 N 
HETATM   34  CAT   D T1356      11.019  -8.783   3.683  1.00 43.12     0.282 C 
HETATM   35  CAQ   D T1356       9.905  -7.751   3.404  1.00 43.52     0.178 C 
HETATM   36  OBA   D T1356       8.668  -8.436   3.001  1.00 44.22    -0.350 OA
HETATM   37  CAR   D T1356       8.179  -9.396   4.000  1.00 43.52     0.178 C 
HETATM   38  CAU   D T1356       9.316 -10.338   4.444  1.00 42.73     0.282 C 
ENDBRANCH  32  33
ENDBRANCH  31  32
ENDBRANCH  30  31
ENDBRANCH  29  30
ENDBRANCH   1  29
TORSDOF 10
ENDMDL
MODEL 4
REMARK VINA RESULT:    -7.559      2.072      2.480
REMARK INTER + INTRA:         -13.471
REMARK INTER:                 -11.840
REMARK INTRA:                  -1.630
REMARK UNBOUND:                -1.492
REMARK  10 active torsions:
REMARK  status: ('A' for Active; 'I' for Inactive)
REMARK    1  A    between atoms: NBL_6  and  CAS_7 
REMARK    2  A    between atoms: CAS_7  and  CAO_8 
REMARK    3  A    between atoms: CAO_8  and  CAP_9 
REMARK    4  A    between atoms: CAP_9  and  OBB_10 
REMARK    5  A    between atoms: OBB_10  and  CBH_11 
REMARK    6  A    between atoms: CBG_13  and  OAZ_14 
REMARK    7  A    between atoms: C6_22  and  NAY_23 
REMARK    8  A    between atoms: NAY_23  and  CBE_24 
REMARK    9  A    between atoms: CBD_29  and  NAX_30 
REMARK       I    between atoms: NAX_30  and  CBC_31 
REMARK   10  A    between atoms: CBC_31  and  CBF_33 
ROOT
HETATM    1  CBH   D T1356      -0.748   4.303 -20.423  1.00 30.53     0.118 A 
HETATM    2  CAM   D T1356       0.579   4.419 -20.853  1.00 29.88     0.045 A 
HETATM    3  CBG   D T1356      -1.336   5.363 -19.703  1.00 30.48     0.117 A 
HETATM    4  CAN   D T1356      -0.603   6.513 -19.410  1.00 29.67     0.031 A 
HETATM    5  C5    D T1356       0.721   6.635 -19.841  1.00 29.79     0.056 A 
HETATM    6  C4    D T1356       1.306   5.581 -20.564  1.00 29.99     0.088 A 
HETATM    7  N3    D T1356       2.578   5.678 -20.985  1.00 29.16    -0.224 NA
HETATM    8  C2    D T1356       3.333   6.823 -20.710  1.00 30.02     0.200 A 
HETATM    9  N1    D T1356       2.750   7.881 -19.993  1.00 29.74    -0.205 NA
HETATM   10  C6    D T1356       1.477   7.787 -19.568  1.00 29.94     0.166 A 
ENDROOT
BRANCH  10  11
HETATM   11  NAY   D T1356       0.873   8.777 -18.859  1.00 31.31    -0.227 NA
BRANCH  11  12
HETATM   12  CBE   D T1356       1.376   9.186 -17.663  1.00 32.67     0.083 A 
HETATM   13  CAK   D T1356       0.980  10.418 -17.138  1.00 33.73     0.021 A 
HETATM   14  CAI   D T1356       1.470  10.864 -15.907  1.00 34.14     0.021 A 
HETATM   15  CBD   D T1356       2.354  10.070 -15.162  1.00 33.99     0.085 A 
HETATM   16  CAH   D T1356       2.753   8.841 -15.687  1.00 33.61     0.021 A 
HETATM   17  CAJ   D T1356       2.262   8.401 -16.917  1.00 33.42     0.021 A 
BRANCH  15  18
HETATM   18  NAX   D T1356       2.880  10.466 -13.977  1.00 34.41    -0.208 NA
HETATM   19  CBC   D T1356       2.185  10.368 -12.818  1.00 37.04     0.279 C 
HETATM   20  OAB   D T1356       1.044   9.909 -12.713  1.00 38.15    -0.265 OA
BRANCH  19  21
HETATM   21  CBF   D T1356       2.864  10.841 -11.691  1.00 37.03     0.058 A 
HETATM   22  CAF   D T1356       3.818  11.853 -11.826  1.00 38.06     0.005 A 
HETATM   23  CAD   D T1356       4.502  12.322 -10.708  1.00 38.28     0.000 A 
HETATM   24  CAC   D T1356       4.242  11.780  -9.451  1.00 38.02     0.000 A 
HETATM   25  CAE   D T1356       3.289  10.775  -9.312  1.00 37.90     0.000 A 
HETATM   26  CAG   D T1356       2.609  10.301 -10.431  1.00 37.23     0.005 A 
ENDBRANCH  19  21
ENDBRANCH  15  18
ENDBRANCH  11  12
ENDBRANCH  10  11
BRANCH   3  27
HETATM   27  OAZ   D T1356      -2.633   5.240 -19.262  1.00 30.66    -0.326 OA
HETATM   28  CAA   D T1356      -3.126   6.281 -18.414  1.00 33.36     0.181 C 
ENDBRANCH   3  27
BRANCH   1  29
HETATM   29  OBB   D T1356      -1.535   3.203 -20.659  1.00 30.55    -0.329 OA
BRANCH  29  30
HETATM   30  CAP   D T1356      -1.412   2.500 -21.916  1.00 33.72     0.151 C 
BRANCH  30  31
HETATM   31  CAO   D T1356      -2.653   2.787 -22.781  1.00 37.07     0.068 C 
BRANCH  31  32
HETATM   32  CAS   D T1356      -3.910   2.622 -21.913  1.00 39.71     0.253 C 
BRANCH  32  33
HETATM   33  NBL   D T1356      -4.688   3.839 -21.579  1.00 41.70     0.142 N 
HETATM   34  CAT   D T1356      -6.159   3.664 -21.595  1.00 43.12     0.282 C 
HETATM   35  CAQ   D T1356      -6.850   4.954 -21.104  1.00 43.52     0.178 C 
HETATM   36  OBA   D T1356      -5.844   5.941 -20.682  1.00 44.22    -0.350 OA
HETATM   37  CAR   D T1356      -4.891   6.294 -21.743  1.00 43.52     0.178 C 
HETATM   38  CAU   D T1356      -4.307   5.020 -22.388  1.00 42.73     0.282 C 
ENDBRANCH  32  33
ENDBRANCH  31  32
ENDBRANCH  30  31
ENDBRANCH  29  30
ENDBRANCH   1  29
TORSDOF 10
ENDMDL
MODEL 5
REMARK VINA RESULT:    -7.529     18.185     23.158
REMARK INTER + INTRA:         -13.423
REMARK INTER:                 -11.292
REMARK INTRA:                  -2.130
REMARK UNBOUND:                -1.492
REMARK  10 active torsions:
REMARK  status: ('A' for Active; 'I' for Inactive)
REMARK    1  A    between atoms: NBL_6  and  CAS_7 
REMARK    2  A    between atoms: CAS_7  and  CAO_8 
REMARK    3  A    between atoms: CAO_8  and  CAP_9 
REMARK    4  A    between atoms: CAP_9  and  OBB_10 
REMARK    5  A    between atoms: OBB_10  and  CBH_11 
REMARK    6  A    between atoms: CBG_13  and  OAZ_14 
REMARK    7  A    between atoms: C6_22  and  NAY_23 
REMARK    8  A    between atoms: NAY_23  and  CBE_24 
REMARK    9  A    between atoms: CBD_29  and  NAX_30 
REMARK       I    between atoms: NAX_30  and  CBC_31 
REMARK   10  A    between atoms: CBC_31  and  CBF_33 
ROOT
HETATM    1  CBH   D T1356      14.029  -3.718   2.442  1.00 30.53     0.118 A 
HETATM    2  CAM   D T1356      13.929  -4.860   1.640  1.00 29.88     0.045 A 
HETATM    3  CBG   D T1356      12.954  -2.807   2.485  1.00 30.48     0.117 A 
HETATM    4  CAN   D T1356      11.804  -3.032   1.728  1.00 29.67     0.031 A 
HETATM    5  C5    D T1356      11.697  -4.174   0.929  1.00 29.79     0.056 A 
HETATM    6  C4    D T1356      12.766  -5.086   0.890  1.00 29.99     0.088 A 
HETATM    7  N3    D T1356      12.684  -6.188   0.127  1.00 29.16    -0.224 NA
HETATM    8  C2    D T1356      11.540  -6.441  -0.636  1.00 30.02     0.200 A 
HETATM    9  N1    D T1356      10.466  -5.536  -0.595  1.00 29.74    -0.205 NA
HETATM   10  C6    D T1356      10.545  -4.429   0.166  1.00 29.94     0.166 A 
ENDROOT
BRANCH  10  11
HETATM   11  NAY   D T1356       9.540  -3.517   0.228  1.00 31.31    -0.227 NA
BRANCH  11  12
HETATM   12  CBE   D T1356       9.251  -2.724  -0.839  1.00 32.67     0.083 A 
HETATM   13  CAK   D T1356       9.790  -1.437  -0.902  1.00 33.73     0.021 A 
HETATM   14  CAI   D T1356       9.521  -0.599  -1.989  1.00 34.14     0.021 A 
HETATM   15  CBD   D T1356       8.720  -1.045  -3.051  1.00 33.99     0.085 A 
HETATM   16  CAH   D T1356       8.178  -2.328  -2.987  1.00 33.61     0.021 A 
HETATM   17  CAJ   D T1356       8.448  -3.160  -1.899  1.00 33.42     0.021 A 
BRANCH  15  18
HETATM   18  NAX   D T1356       8.407  -0.265  -4.113  1.00 34.41    -0.208 NA
HETATM   19  CBC   D T1356       9.294  -0.020  -5.108  1.00 37.04     0.279 C 
HETATM   20  OAB   D T1356      10.440  -0.476  -5.163  1.00 38.15    -0.265 OA
BRANCH  19  21
HETATM   21  CBF   D T1356       8.818   0.822  -6.117  1.00 37.03     0.058 A 
HETATM   22  CAF   D T1356       7.753   0.413  -6.922  1.00 38.06     0.005 A 
HETATM   23  CAD   D T1356       7.280   1.245  -7.934  1.00 38.28     0.000 A 
HETATM   24  CAC   D T1356       7.873   2.488  -8.149  1.00 38.02     0.000 A 
HETATM   25  CAE   D T1356       8.931   2.901  -7.346  1.00 37.90     0.000 A 
HETATM   26  CAG   D T1356       9.408   2.066  -6.339  1.00 37.23     0.005 A 
ENDBRANCH  19  21
ENDBRANCH  15  18
ENDBRANCH  11  12
ENDBRANCH  10  11
BRANCH   3  27
HETATM   27  OAZ   D T1356      13.062  -1.673   3.256  1.00 30.66    -0.326 OA
HETATM   28  CAA   D T1356      12.125  -0.625   2.993  1.00 33.36     0.181 C 
ENDBRANCH   3  27
BRANCH   1  29
HETATM   29  OBB   D T1356      15.128  -3.415   3.208  1.00 30.55    -0.329 OA
BRANCH  29  30
HETATM   30  CAP   D T1356      16.433  -3.372   2.589  1.00 33.72     0.151 C 
BRANCH  30  31
HETATM   31  CAO   D T1356      16.763  -1.917   2.204  1.00 37.07     0.068 C 
BRANCH  31  32
HETATM   32  CAS   D T1356      16.884  -1.825   0.676  1.00 39.71     0.253 C 
BRANCH  32  33
HETATM   33  NBL   D T1356      15.761  -1.213  -0.074  1.00 41.70     0.142 N 
HETATM   34  CAT   D T1356      14.868  -2.177  -0.757  1.00 43.12     0.282 C 
HETATM   35  CAQ   D T1356      13.671  -1.434  -1.388  1.00 43.52     0.178 C 
HETATM   36  OBA   D T1356      13.724  -0.004  -1.047  1.00 44.22    -0.350 OA
HETATM   37  CAR   D T1356      14.965   0.654  -1.478  1.00 43.52     0.178 C 
HETATM   38  CAU   D T1356      16.193  -0.160  -1.021  1.00 42.73     0.282 C 
ENDBRANCH  32  33
ENDBRANCH  31  32
ENDBRANCH  30  31
ENDBRANCH  29  30
ENDBRANCH   1  29
TORSDOF 10
ENDMDL
MODEL 6
REMARK VINA RESULT:    -7.482     19.446     22.666
REMARK INTER + INTRA:         -13.349
REMARK INTER:                 -11.934
REMARK INTRA:                  -1.415
REMARK UNBOUND:                -1.492
REMARK  10 active torsions:
REMARK  status: ('A' for Active; 'I' for Inactive)
REMARK    1  A    between atoms: NBL_6  and  CAS_7 
REMARK    2  A    between atoms: CAS_7  and  CAO_8 
REMARK    3  A    between atoms: CAO_8  and  CAP_9 
REMARK    4  A    between atoms: CAP_9  and  OBB_10 
REMARK    5  A    between atoms: OBB_10  and  CBH_11 
REMARK    6  A    between atoms: CBG_13  and  OAZ_14 
REMARK    7  A    between atoms: C6_22  and  NAY_23 
REMARK    8  A    between atoms: NAY_23  and  CBE_24 
REMARK    9  A    between atoms: CBD_29  and  NAX_30 
REMARK       I    between atoms: NAX_30  and  CBC_31 
REMARK   10  A    between atoms: CBC_31  and  CBF_33 
ROOT
HETATM    1  CBH   D T1356      10.974  -7.201   0.522  1.00 30.53     0.118 A 
HETATM    2  CAM   D T1356      12.358  -6.999   0.490  1.00 29.88     0.045 A 
HETATM    3  CBG   D T1356      10.113  -6.085   0.522  1.00 30.48     0.117 A 
HETATM    4  CAN   D T1356      10.630  -4.790   0.502  1.00 29.67     0.031 A 
HETATM    5  C5    D T1356      12.012  -4.583   0.465  1.00 29.79     0.056 A 
HETATM    6  C4    D T1356      12.872  -5.695   0.459  1.00 29.99     0.088 A 
HETATM    7  N3    D T1356      14.203  -5.517   0.426  1.00 29.16    -0.224 NA
HETATM    8  C2    D T1356      14.748  -4.229   0.397  1.00 30.02     0.200 A 
HETATM    9  N1    D T1356      13.892  -3.115   0.397  1.00 29.74    -0.205 NA
HETATM   10  C6    D T1356      12.558  -3.289   0.432  1.00 29.94     0.166 A 
ENDROOT
BRANCH  10  11
HETATM   11  NAY   D T1356      11.689  -2.244   0.447  1.00 31.31    -0.227 NA
BRANCH  11  12
HETATM   12  CBE   D T1356      11.153  -1.766  -0.708  1.00 32.67     0.083 A 
HETATM   13  CAK   D T1356      11.949  -1.687  -1.852  1.00 33.73     0.021 A 
HETATM   14  CAI   D T1356      11.427  -1.210  -3.058  1.00 34.14     0.021 A 
HETATM   15  CBD   D T1356      10.082  -0.821  -3.148  1.00 33.99     0.085 A 
HETATM   16  CAH   D T1356       9.287  -0.897  -2.006  1.00 33.61     0.021 A 
HETATM   17  CAJ   D T1356       9.814  -1.372  -0.803  1.00 33.42     0.021 A 
BRANCH  15  18
HETATM   18  NAX   D T1356       9.534  -0.327  -4.284  1.00 34.41    -0.208 NA
HETATM   19  CBC   D T1356       9.572   0.994  -4.582  1.00 37.04     0.279 C 
HETATM   20  OAB   D T1356      10.104   1.862  -3.884  1.00 38.15    -0.265 OA
BRANCH  19  21
HETATM   21  CBF   D T1356       8.940   1.338  -5.781  1.00 37.03     0.058 A 
HETATM   22  CAF   D T1356       7.916   0.534  -6.286  1.00 38.06     0.005 A 
HETATM   23  CAD   D T1356       7.289   0.869  -7.483  1.00 38.28     0.000 A 
HETATM   24  CAC   D T1356       7.686   2.006  -8.185  1.00 38.02     0.000 A 
HETATM   25  CAE   D T1356       8.702   2.813  -7.682  1.00 37.90     0.000 A 
HETATM   26  CAG   D T1356       9.333   2.474  -6.488  1.00 37.23     0.005 A 
ENDBRANCH  19  21
ENDBRANCH  15  18
ENDBRANCH  11  12
ENDBRANCH  10  11
BRANCH   3  27
HETATM   27  OAZ   D T1356       8.753  -6.284   0.577  1.00 30.66    -0.326 OA
HETATM   28  CAA   D T1356       8.008  -5.965  -0.601  1.00 33.36     0.181 C 
ENDBRANCH   3  27
BRANCH   1  29
HETATM   29  OBB   D T1356      10.383  -8.440   0.556  1.00 30.55    -0.329 OA
BRANCH  29  30
HETATM   30  CAP   D T1356      10.251  -9.195  -0.669  1.00 33.72     0.151 C 
BRANCH  30  31
HETATM   31  CAO   D T1356       8.763  -9.511  -0.911  1.00 37.07     0.068 C 
BRANCH  31  32
HETATM   32  CAS   D T1356       8.458 -10.911  -0.357  1.00 39.71     0.253 C 
BRANCH  32  33
HETATM   33  NBL   D T1356       7.950 -11.014   1.032  1.00 41.70     0.142 N 
HETATM   34  CAT   D T1356       7.336  -9.776   1.565  1.00 43.12     0.282 C 
HETATM   35  CAQ   D T1356       6.730 -10.045   2.960  1.00 43.52     0.178 C 
HETATM   36  OBA   D T1356       6.860 -11.469   3.304  1.00 44.22    -0.350 OA
HETATM   37  CAR   D T1356       8.249 -11.947   3.297  1.00 43.52     0.178 C 
HETATM   38  CAU   D T1356       8.953 -11.538   1.986  1.00 42.73     0.282 C 
ENDBRANCH  32  33
ENDBRANCH  31  32
ENDBRANCH  30  31
ENDBRANCH  29  30
ENDBRANCH   1  29
TORSDOF 10
ENDMDL
MODEL 7
REMARK VINA RESULT:    -7.463      3.125     11.258
REMARK INTER + INTRA:         -13.319
REMARK INTER:                 -11.576
REMARK INTRA:                  -1.742
REMARK UNBOUND:                -1.492
REMARK  10 active torsions:
REMARK  status: ('A' for Active; 'I' for Inactive)
REMARK    1  A    between atoms: NBL_6  and  CAS_7 
REMARK    2  A    between atoms: CAS_7  and  CAO_8 
REMARK    3  A    between atoms: CAO_8  and  CAP_9 
REMARK    4  A    between atoms: CAP_9  and  OBB_10 
REMARK    5  A    between atoms: OBB_10  and  CBH_11 
REMARK    6  A    between atoms: CBG_13  and  OAZ_14 
REMARK    7  A    between atoms: C6_22  and  NAY_23 
REMARK    8  A    between atoms: NAY_23  and  CBE_24 
REMARK    9  A    between atoms: CBD_29  and  NAX_30 
REMARK       I    between atoms: NAX_30  and  CBC_31 
REMARK   10  A    between atoms: CBC_31  and  CBF_33 
ROOT
HETATM    1  CBH   D T1356       1.744  10.284 -11.429  1.00 30.53     0.118 A 
HETATM    2  CAM   D T1356       2.836   9.636 -12.017  1.00 29.88     0.045 A 
HETATM    3  CBG   D T1356       0.633  10.626 -12.226  1.00 30.48     0.117 A 
HETATM    4  CAN   D T1356       0.623  10.336 -13.590  1.00 29.67     0.031 A 
HETATM    5  C5    D T1356       1.709   9.685 -14.181  1.00 29.79     0.056 A 
HETATM    6  C4    D T1356       2.815   9.337 -13.386  1.00 29.99     0.088 A 
HETATM    7  N3    D T1356       3.870   8.713 -13.935  1.00 29.16    -0.224 NA
HETATM    8  C2    D T1356       3.883   8.403 -15.299  1.00 30.02     0.200 A 
HETATM    9  N1    D T1356       2.777   8.743 -16.096  1.00 29.74    -0.205 NA
HETATM   10  C6    D T1356       1.719   9.370 -15.550  1.00 29.94     0.166 A 
ENDROOT
BRANCH  10  11
HETATM   11  NAY   D T1356       0.632   9.732 -16.282  1.00 31.31    -0.227 NA
BRANCH  11  12
HETATM   12  CBE   D T1356       0.052   8.858 -17.149  1.00 32.67     0.083 A 
HETATM   13  CAK   D T1356      -0.621   7.742 -16.649  1.00 33.73     0.021 A 
HETATM   14  CAI   D T1356      -1.236   6.830 -17.512  1.00 34.14     0.021 A 
HETATM   15  CBD   D T1356      -1.208   7.031 -18.900  1.00 33.99     0.085 A 
HETATM   16  CAH   D T1356      -0.532   8.143 -19.400  1.00 33.61     0.021 A 
HETATM   17  CAJ   D T1356       0.082   9.050 -18.535  1.00 33.42     0.021 A 
BRANCH  15  18
HETATM   18  NAX   D T1356      -1.764   6.164 -19.780  1.00 34.41    -0.208 NA
HETATM   19  CBC   D T1356      -1.034   5.203 -20.397  1.00 37.04     0.279 C 
HETATM   20  OAB   D T1356       0.172   5.008 -20.222  1.00 38.15    -0.265 OA
BRANCH  19  21
HETATM   21  CBF   D T1356      -1.757   4.409 -21.292  1.00 37.03     0.058 A 
HETATM   22  CAF   D T1356      -3.119   4.647 -21.493  1.00 38.06     0.005 A 
HETATM   23  CAD   D T1356      -3.845   3.853 -22.377  1.00 38.28     0.000 A 
HETATM   24  CAC   D T1356      -3.216   2.814 -23.060  1.00 38.02     0.000 A 
HETATM   25  CAE   D T1356      -1.859   2.577 -22.866  1.00 37.90     0.000 A 
HETATM   26  CAG   D T1356      -1.134   3.366 -21.978  1.00 37.23     0.005 A 
ENDBRANCH  19  21
ENDBRANCH  15  18
ENDBRANCH  11  12
ENDBRANCH  10  11
BRANCH   3  27
HETATM   27  OAZ   D T1356      -0.431  11.284 -11.653  1.00 30.66    -0.326 OA
HETATM   28  CAA   D T1356      -0.555  12.679 -11.939  1.00 33.36     0.181 C 
ENDBRANCH   3  27
BRANCH   1  29
HETATM   29  OBB   D T1356       1.678  10.617 -10.098  1.00 30.55    -0.329 OA
BRANCH  29  30
HETATM   30  CAP   D T1356       2.355  11.804  -9.630  1.00 33.72     0.151 C 
BRANCH  30  31
HETATM   31  CAO   D T1356       3.866  11.521  -9.538  1.00 37.07     0.068 C 
BRANCH  31  32
HETATM   32  CAS   D T1356       4.622  12.603 -10.323  1.00 39.71     0.253 C 
BRANCH  32  33
HETATM   33  NBL   D T1356       5.202  12.231 -11.636  1.00 41.70     0.142 N 
HETATM   34  CAT   D T1356       6.674  12.362 -11.728  1.00 43.12     0.282 C 
HETATM   35  CAQ   D T1356       7.169  11.822 -13.087  1.00 43.52     0.178 C 
HETATM   36  OBA   D T1356       6.045  11.257 -13.849  1.00 44.22    -0.350 OA
HETATM   37  CAR   D T1356       4.962  12.219 -14.092  1.00 43.52     0.178 C 
HETATM   38  CAU   D T1356       4.557  12.918 -12.778  1.00 42.73     0.282 C 
ENDBRANCH  32  33
ENDBRANCH  31  32
ENDBRANCH  30  31
ENDBRANCH  29  30
ENDBRANCH   1  29
TORSDOF 10
ENDMDL
MODEL 8
REMARK VINA RESULT:    -7.404     19.183     23.294
REMARK INTER + INTRA:         -13.225
REMARK INTER:                 -11.604
REMARK INTRA:                  -1.621
REMARK UNBOUND:                -1.492
REMARK  10 active torsions:
REMARK  status: ('A' for Active; 'I' for Inactive)
REMARK    1  A    between atoms: NBL_6  and  CAS_7 
REMARK    2  A    between atoms: CAS_7  and  CAO_8 
REMARK    3  A    between atoms: CAO_8  and  CAP_9 
REMARK    4  A    between atoms: CAP_9  and  OBB_10 
REMARK    5  A    between atoms: OBB_10  and  CBH_11 
REMARK    6  A    between atoms: CBG_13  and  OAZ_14 
REMARK    7  A    between atoms: C6_22  and  NAY_23 
REMARK    8  A    between atoms: NAY_23  and  CBE_24 
REMARK    9  A    between atoms: CBD_29  and  NAX_30 
REMARK       I    between atoms: NAX_30  and  CBC_31 
REMARK   10  A    between atoms: CBC_31  and  CBF_33 
ROOT
HETATM    1  CBH   D T1356      10.210  -4.545   3.443  1.00 30.53     0.118 A 
HETATM    2  CAM   D T1356       9.421  -5.313   2.580  1.00 29.88     0.045 A 
HETATM    3  CBG   D T1356      11.041  -3.540   2.908  1.00 30.48     0.117 A 
HETATM    4  CAN   D T1356      11.089  -3.318   1.532  1.00 29.67     0.031 A 
HETATM    5  C5    D T1356      10.299  -4.079   0.667  1.00 29.79     0.056 A 
HETATM    6  C4    D T1356       9.465  -5.078   1.200  1.00 29.99     0.088 A 
HETATM    7  N3    D T1356       8.700  -5.822   0.384  1.00 29.16    -0.224 NA
HETATM    8  C2    D T1356       8.723  -5.615  -0.999  1.00 30.02     0.200 A 
HETATM    9  N1    D T1356       9.550  -4.613  -1.535  1.00 29.74    -0.205 NA
HETATM   10  C6    D T1356      10.320  -3.867  -0.722  1.00 29.94     0.166 A 
ENDROOT
BRANCH  10  11
HETATM   11  NAY   D T1356      11.147  -2.897  -1.194  1.00 31.31    -0.227 NA
BRANCH  11  12
HETATM   12  CBE   D T1356      10.720  -2.014  -2.136  1.00 32.67     0.083 A 
HETATM   13  CAK   D T1356      11.374  -1.957  -3.368  1.00 33.73     0.021 A 
HETATM   14  CAI   D T1356      10.956  -1.068  -4.363  1.00 34.14     0.021 A 
HETATM   15  CBD   D T1356       9.852  -0.229  -4.150  1.00 33.99     0.085 A 
HETATM   16  CAH   D T1356       9.200  -0.283  -2.919  1.00 33.61     0.021 A 
HETATM   17  CAJ   D T1356       9.623  -1.171  -1.928  1.00 33.42     0.021 A 
BRANCH  15  18
HETATM   18  NAX   D T1356       9.422   0.669  -5.069  1.00 34.41    -0.208 NA
HETATM   19  CBC   D T1356       8.461   0.362  -5.975  1.00 37.04     0.279 C 
HETATM   20  OAB   D T1356       7.882  -0.725  -6.051  1.00 38.15    -0.265 OA
BRANCH  19  21
HETATM   21  CBF   D T1356       8.151   1.394  -6.865  1.00 37.03     0.058 A 
HETATM   22  CAF   D T1356       8.901   2.572  -6.856  1.00 38.06     0.005 A 
HETATM   23  CAD   D T1356       8.590   3.606  -7.735  1.00 38.28     0.000 A 
HETATM   24  CAC   D T1356       7.525   3.470  -8.625  1.00 38.02     0.000 A 
HETATM   25  CAE   D T1356       6.779   2.296  -8.640  1.00 37.90     0.000 A 
HETATM   26  CAG   D T1356       7.085   1.265  -7.756  1.00 37.23     0.005 A 
ENDBRANCH  19  21
ENDBRANCH  15  18
ENDBRANCH  11  12
ENDBRANCH  10  11
BRANCH   3  27
HETATM   27  OAZ   D T1356      11.834  -2.800   3.755  1.00 30.66    -0.326 OA
HETATM   28  CAA   D T1356      13.195  -3.220   3.893  1.00 33.36     0.181 C 
ENDBRANCH   3  27
BRANCH   1  29
HETATM   29  OBB   D T1356      10.232  -4.706   4.807  1.00 30.55    -0.329 OA
BRANCH  29  30
HETATM   30  CAP   D T1356       9.032  -5.133   5.489  1.00 33.72     0.151 C 
BRANCH  30  31
HETATM   31  CAO   D T1356       9.362  -6.341   6.386  1.00 37.07     0.068 C 
BRANCH  31  32
HETATM   32  CAS   D T1356      10.709  -6.932   5.944  1.00 39.71     0.253 C 
BRANCH  32  33
HETATM   33  NBL   D T1356      10.690  -8.139   5.084  1.00 41.70     0.142 N 
HETATM   34  CAT   D T1356      10.914  -9.418   5.797  1.00 43.12     0.282 C 
HETATM   35  CAQ   D T1356      10.739 -10.604   4.824  1.00 43.52     0.178 C 
HETATM   36  OBA   D T1356      10.313 -10.118   3.503  1.00 44.22    -0.350 OA
HETATM   37  CAR   D T1356      11.247  -9.155   2.905  1.00 43.52     0.178 C 
HETATM   38  CAU   D T1356      11.593  -8.042   3.915  1.00 42.73     0.282 C 
ENDBRANCH  32  33
ENDBRANCH  31  32
ENDBRANCH  30  31
ENDBRANCH  29  30
ENDBRANCH   1  29
TORSDOF 10
ENDMDL
MODEL 9
REMARK VINA RESULT:    -7.167     19.681     23.339
REMARK INTER + INTRA:         -12.849
REMARK INTER:                 -11.201
REMARK INTRA:                  -1.649
REMARK UNBOUND:                -1.492
REMARK  10 active torsions:
REMARK  status: ('A' for Active; 'I' for Inactive)
REMARK    1  A    between atoms: NBL_6  and  CAS_7 
REMARK    2  A    between atoms: CAS_7  and  CAO_8 
REMARK    3  A    between atoms: CAO_8  and  CAP_9 
REMARK    4  A    between atoms: CAP_9  and  OBB_10 
REMARK    5  A    between atoms: OBB_10  and  CBH_11 
REMARK    6  A    between atoms: CBG_13  and  OAZ_14 
REMARK    7  A    between atoms: C6_22  and  NAY_23 
REMARK    8  A    between atoms: NAY_23  and  CBE_24 
REMARK    9  A    between atoms: CBD_29  and  NAX_30 
REMARK       I    between atoms: NAX_30  and  CBC_31 
REMARK   10  A    between atoms: CBC_31  and  CBF_33 
ROOT
HETATM    1  CBH   D T1356      10.872  -8.867   1.250  1.00 30.53     0.118 A 
HETATM    2  CAM   D T1356      11.882  -7.898   1.271  1.00 29.88     0.045 A 
HETATM    3  CBG   D T1356       9.614  -8.542   0.703  1.00 30.48     0.117 A 
HETATM    4  CAN   D T1356       9.370  -7.265   0.197  1.00 29.67     0.031 A 
HETATM    5  C5    D T1356      10.377  -6.296   0.212  1.00 29.79     0.056 A 
HETATM    6  C4    D T1356      11.633  -6.620   0.752  1.00 29.99     0.088 A 
HETATM    7  N3    D T1356      12.613  -5.702   0.778  1.00 29.16    -0.224 NA
HETATM    8  C2    D T1356      12.397  -4.417   0.270  1.00 30.02     0.200 A 
HETATM    9  N1    D T1356      11.144  -4.090  -0.276  1.00 29.74    -0.205 NA
HETATM   10  C6    D T1356      10.159  -5.006  -0.301  1.00 29.94     0.166 A 
ENDROOT
BRANCH  10  11
HETATM   11  NAY   D T1356       8.927  -4.734  -0.806  1.00 31.31    -0.227 NA
BRANCH  11  12
HETATM   12  CBE   D T1356       8.767  -3.826  -1.807  1.00 32.67     0.083 A 
HETATM   13  CAK   D T1356       8.194  -2.585  -1.521  1.00 33.73     0.021 A 
HETATM   14  CAI   D T1356       8.024  -1.625  -2.523  1.00 34.14     0.021 A 
HETATM   15  CBD   D T1356       8.449  -1.882  -3.835  1.00 33.99     0.085 A 
HETATM   16  CAH   D T1356       9.018  -3.122  -4.122  1.00 33.61     0.021 A 
HETATM   17  CAJ   D T1356       9.184  -4.078  -3.118  1.00 33.42     0.021 A 
BRANCH  15  18
HETATM   18  NAX   D T1356       8.284  -0.998  -4.848  1.00 34.41    -0.208 NA
HETATM   19  CBC   D T1356       9.018   0.138  -4.934  1.00 37.04     0.279 C 
HETATM   20  OAB   D T1356       9.897   0.475  -4.136  1.00 38.15    -0.265 OA
BRANCH  19  21
HETATM   21  CBF   D T1356       8.707   0.950  -6.029  1.00 37.03     0.058 A 
HETATM   22  CAF   D T1356       9.441   2.114  -6.265  1.00 38.06     0.005 A 
HETATM   23  CAD   D T1356       9.130   2.929  -7.350  1.00 38.28     0.000 A 
HETATM   24  CAC   D T1356       8.079   2.589  -8.200  1.00 38.02     0.000 A 
HETATM   25  CAE   D T1356       7.348   1.428  -7.971  1.00 37.90     0.000 A 
HETATM   26  CAG   D T1356       7.656   0.616  -6.883  1.00 37.23     0.005 A 
ENDBRANCH  19  21
ENDBRANCH  15  18
ENDBRANCH  11  12
ENDBRANCH  10  11
BRANCH   3  27
HETATM   27  OAZ   D T1356       8.615  -9.487   0.703  1.00 30.66    -0.326 OA
HETATM   28  CAA   D T1356       8.187  -9.971  -0.573  1.00 33.36     0.181 C 
ENDBRANCH   3  27
BRANCH   1  29
HETATM   29  OBB   D T1356      11.025 -10.142   1.736  1.00 30.55    -0.329 OA
BRANCH  29  30
HETATM   30  CAP   D T1356      11.262 -10.338   3.148  1.00 33.72     0.151 C 
BRANCH  30  31
HETATM   31  CAO   D T1356      10.165  -9.613   3.951  1.00 37.07     0.068 C 
BRANCH  31  32
HETATM   32  CAS   D T1356      10.816  -8.498   4.783  1.00 39.71     0.253 C 
BRANCH  32  33
HETATM   33  NBL   D T1356      10.258  -7.129   4.668  1.00 41.70     0.142 N 
HETATM   34  CAT   D T1356      11.251  -6.073   4.366  1.00 43.12     0.282 C 
HETATM   35  CAQ   D T1356      10.536  -4.724   4.139  1.00 43.52     0.178 C 
HETATM   36  OBA   D T1356       9.078  -4.905   4.200  1.00 44.22    -0.350 OA
HETATM   37  CAR   D T1356       8.612  -5.475   5.472  1.00 43.52     0.178 C 
HETATM   38  CAU   D T1356       9.429  -6.733   5.829  1.00 42.73     0.282 C 
ENDBRANCH  32  33
ENDBRANCH  31  32
ENDBRANCH  30  31
ENDBRANCH  29  30
ENDBRANCH   1  29
TORSDOF 10
ENDMDL
