MODEL 1
REMARK VINA RESULT:    -8.583      0.000      0.000
REMARK INTER + INTRA:         -15.187
REMARK INTER:                 -13.601
REMARK INTRA:                  -1.586
REMARK UNBOUND:                -1.586
REMARK  10 active torsions:
REMARK  status: ('A' for Active; 'I' for Inactive)
REMARK    1  A    between atoms: NBL_6  and  CAS_7 
REMARK    2  A    between atoms: CAS_7  and  CAO_8 
REMARK    3  A    between atoms: CAO_8  and  CAP_9 
REMARK    4  A    between atoms: CAP_9  and  OBB_10 
REMARK    5  A    between atoms: OBB_10  and  CBH_11 
REMARK    6  A    between atoms: CBG_13  and  OAZ_14 
REMARK    7  A    between atoms: C6_22  and  NAY_23 
REMARK    8  A    between atoms: NAY_23  and  CBE_24 
REMARK    9  A    between atoms: CBD_29  and  NAX_30 
REMARK       I    between atoms: NAX_30  and  CBC_31 
REMARK   10  A    between atoms: CBC_31  and  CBF_33 
ROOT
HETATM    1  CBH   D T1356       5.073  16.922  -3.750  1.00 30.53     0.118 A 
HETATM    2  CAM   D T1356       3.856  17.047  -3.070  1.00 29.88     0.045 A 
HETATM    3  CBG   D T1356       5.808  15.725  -3.636  1.00 30.48     0.117 A 
HETATM    4  CAN   D T1356       5.339  14.676  -2.845  1.00 29.67     0.031 A 
HETATM    5  C5    D T1356       4.122  14.795  -2.167  1.00 29.79     0.056 A 
HETATM    6  C4    D T1356       3.384  15.987  -2.286  1.00 29.99     0.088 A 
HETATM    7  N3    D T1356       2.215  16.121  -1.640  1.00 29.16    -0.224 NA
HETATM    8  C2    D T1356       1.716  15.081  -0.845  1.00 30.02     0.200 A 
HETATM    9  N1    D T1356       2.448  13.888  -0.731  1.00 29.74    -0.205 NA
HETATM   10  C6    D T1356       3.621  13.750  -1.373  1.00 29.94     0.166 A 
ENDROOT
BRANCH  10  11
HETATM   11  NAY   D T1356       4.372  12.620  -1.282  1.00 31.31    -0.227 NA
BRANCH  11  12
HETATM   12  CBE   D T1356       5.276  12.462  -0.277  1.00 32.67     0.083 A 
HETATM   13  CAK   D T1356       6.626  12.292  -0.591  1.00 33.73     0.021 A 
HETATM   14  CAI   D T1356       7.582  12.137   0.417  1.00 34.14     0.021 A 
HETATM   15  CBD   D T1356       7.205  12.172   1.767  1.00 33.99     0.085 A 
HETATM   16  CAH   D T1356       5.858  12.339   2.082  1.00 33.61     0.021 A 
HETATM   17  CAJ   D T1356       4.907  12.492   1.072  1.00 33.42     0.021 A 
BRANCH  15  18
HETATM   18  NAX   D T1356       8.088  12.000   2.782  1.00 34.41    -0.208 NA
HETATM   19  CBC   D T1356       8.444  10.769   3.221  1.00 37.04     0.279 C 
HETATM   20  OAB   D T1356       8.031   9.704   2.753  1.00 38.15    -0.265 OA
BRANCH  19  21
HETATM   21  CBF   D T1356       9.346  10.770   4.288  1.00 37.03     0.058 A 
HETATM   22  CAF   D T1356       9.293   9.759   5.249  1.00 38.06     0.005 A 
HETATM   23  CAD   D T1356      10.185   9.762   6.318  1.00 38.28     0.000 A 
HETATM   24  CAC   D T1356      11.135  10.776   6.434  1.00 38.02     0.000 A 
HETATM   25  CAE   D T1356      11.195  11.782   5.474  1.00 37.90     0.000 A 
HETATM   26  CAG   D T1356      10.298  11.784   4.410  1.00 37.23     0.005 A 
ENDBRANCH  19  21
ENDBRANCH  15  18
ENDBRANCH  11  12
ENDBRANCH  10  11
BRANCH   3  27
HETATM   27  OAZ   D T1356       7.015  15.612  -4.287  1.00 30.66    -0.326 OA
HETATM   28  CAA   D T1356       7.272  14.375  -4.957  1.00 33.36     0.181 C 
ENDBRANCH   3  27
BRANCH   1  29
HETATM   29  OBB   D T1356       5.612  17.908  -4.540  1.00 30.55    -0.329 OA
BRANCH  29  30
HETATM   30  CAP   D T1356       4.963  18.254  -5.784  1.00 33.72     0.151 C 
BRANCH  30  31
HETATM   31  CAO   D T1356       5.569  17.412  -6.922  1.00 37.07     0.068 C 
BRANCH  31  32
HETATM   32  CAS   D T1356       6.910  18.035  -7.340  1.00 39.71     0.253 C 
BRANCH  32  33
HETATM   33  NBL   D T1356       8.125  17.191  -7.246  1.00 41.70     0.142 N 
HETATM   34  CAT   D T1356       9.139  17.662  -6.272  1.00 43.12     0.282 C 
HETATM   35  CAQ   D T1356      10.287  16.636  -6.167  1.00 43.52     0.178 C 
HETATM   36  OBA   D T1356       9.991  15.456  -6.995  1.00 44.22    -0.350 OA
HETATM   37  CAR   D T1356       9.775  15.774  -8.412  1.00 43.52     0.178 C 
HETATM   38  CAU   D T1356       8.761  16.929  -8.555  1.00 42.73     0.282 C 
ENDBRANCH  32  33
ENDBRANCH  31  32
ENDBRANCH  30  31
ENDBRANCH  29  30
ENDBRANCH   1  29
TORSDOF 10
ENDMDL
MODEL 2
REMARK VINA RESULT:    -8.141      3.504      5.497
REMARK INTER + INTRA:         -14.485
REMARK INTER:                 -12.887
REMARK INTRA:                  -1.598
REMARK UNBOUND:                -1.586
REMARK  10 active torsions:
REMARK  status: ('A' for Active; 'I' for Inactive)
REMARK    1  A    between atoms: NBL_6  and  CAS_7 
REMARK    2  A    between atoms: CAS_7  and  CAO_8 
REMARK    3  A    between atoms: CAO_8  and  CAP_9 
REMARK    4  A    between atoms: CAP_9  and  OBB_10 
REMARK    5  A    between atoms: OBB_10  and  CBH_11 
REMARK    6  A    between atoms: CBG_13  and  OAZ_14 
REMARK    7  A    between atoms: C6_22  and  NAY_23 
REMARK    8  A    between atoms: NAY_23  and  CBE_24 
REMARK    9  A    between atoms: CBD_29  and  NAX_30 
REMARK       I    between atoms: NAX_30  and  CBC_31 
REMARK   10  A    between atoms: CBC_31  and  CBF_33 
ROOT
HETATM    1  CBH   D T1356      10.019  15.768  -5.767  1.00 30.53     0.118 A 
HETATM    2  CAM   D T1356       8.888  15.899  -6.582  1.00 29.88     0.045 A 
HETATM    3  CBG   D T1356       9.906  16.023  -4.386  1.00 30.48     0.117 A 
HETATM    4  CAN   D T1356       8.687  16.412  -3.832  1.00 29.67     0.031 A 
HETATM    5  C5    D T1356       7.554  16.540  -4.642  1.00 29.79     0.056 A 
HETATM    6  C4    D T1356       7.664  16.280  -6.019  1.00 29.99     0.088 A 
HETATM    7  N3    D T1356       6.588  16.401  -6.814  1.00 29.16    -0.224 NA
HETATM    8  C2    D T1356       5.349  16.783  -6.284  1.00 30.02     0.200 A 
HETATM    9  N1    D T1356       5.236  17.036  -4.907  1.00 29.74    -0.205 NA
HETATM   10  C6    D T1356       6.312  16.920  -4.107  1.00 29.94     0.166 A 
ENDROOT
BRANCH  10  11
HETATM   11  NAY   D T1356       6.255  17.168  -2.772  1.00 31.31    -0.227 NA
BRANCH  11  12
HETATM   12  CBE   D T1356       5.960  16.175  -1.890  1.00 32.67     0.083 A 
HETATM   13  CAK   D T1356       6.432  16.261  -0.578  1.00 33.73     0.021 A 
HETATM   14  CAI   D T1356       6.138  15.263   0.355  1.00 34.14     0.021 A 
HETATM   15  CBD   D T1356       5.343  14.165  -0.002  1.00 33.99     0.085 A 
HETATM   16  CAH   D T1356       4.874  14.076  -1.311  1.00 33.61     0.021 A 
HETATM   17  CAJ   D T1356       5.171  15.074  -2.240  1.00 33.42     0.021 A 
BRANCH  15  18
HETATM   18  NAX   D T1356       5.052  13.158   0.858  1.00 34.41    -0.208 NA
HETATM   19  CBC   D T1356       3.777  12.856   1.203  1.00 37.04     0.279 C 
HETATM   20  OAB   D T1356       2.773  13.433   0.775  1.00 38.15    -0.265 OA
BRANCH  19  21
HETATM   21  CBF   D T1356       3.654  11.806   2.116  1.00 37.03     0.058 A 
HETATM   22  CAF   D T1356       2.530  10.978   2.081  1.00 38.06     0.005 A 
HETATM   23  CAD   D T1356       2.400   9.936   2.994  1.00 38.28     0.000 A 
HETATM   24  CAC   D T1356       3.391   9.715   3.950  1.00 38.02     0.000 A 
HETATM   25  CAE   D T1356       4.515  10.534   3.983  1.00 37.90     0.000 A 
HETATM   26  CAG   D T1356       4.641  11.581   3.075  1.00 37.23     0.005 A 
ENDBRANCH  19  21
ENDBRANCH  15  18
ENDBRANCH  11  12
ENDBRANCH  10  11
BRANCH   3  27
HETATM   27  OAZ   D T1356      11.024  15.915  -3.589  1.00 30.66    -0.326 OA
HETATM   28  CAA   D T1356      10.828  16.074  -2.182  1.00 33.36     0.181 C 
ENDBRANCH   3  27
BRANCH   1  29
HETATM   29  OBB   D T1356      11.257  15.401  -6.231  1.00 30.55    -0.329 OA
BRANCH  29  30
HETATM   30  CAP   D T1356      11.812  16.075  -7.383  1.00 33.72     0.151 C 
BRANCH  30  31
HETATM   31  CAO   D T1356      12.300  17.474  -6.964  1.00 37.07     0.068 C 
BRANCH  31  32
HETATM   32  CAS   D T1356      11.386  18.530  -7.605  1.00 39.71     0.253 C 
BRANCH  32  33
HETATM   33  NBL   D T1356      10.738  19.520  -6.711  1.00 41.70     0.142 N 
HETATM   34  CAT   D T1356      11.106  19.406  -5.281  1.00 43.12     0.282 C 
HETATM   35  CAQ   D T1356      10.480  20.566  -4.479  1.00 43.52     0.178 C 
HETATM   36  OBA   D T1356       9.780  21.490  -5.385  1.00 44.22    -0.350 OA
HETATM   37  CAR   D T1356       8.725  20.845  -6.179  1.00 43.52     0.178 C 
HETATM   38  CAU   D T1356       9.267  19.569  -6.856  1.00 42.73     0.282 C 
ENDBRANCH  32  33
ENDBRANCH  31  32
ENDBRANCH  30  31
ENDBRANCH  29  30
ENDBRANCH   1  29
TORSDOF 10
ENDMDL
MODEL 3
REMARK VINA RESULT:    -8.048      2.069      9.112
REMARK INTER + INTRA:         -14.339
REMARK INTER:                 -13.222
REMARK INTRA:                  -1.117
REMARK UNBOUND:                -1.586
REMARK  10 active torsions:
REMARK  status: ('A' for Active; 'I' for Inactive)
REMARK    1  A    between atoms: NBL_6  and  CAS_7 
REMARK    2  A    between atoms: CAS_7  and  CAO_8 
REMARK    3  A    between atoms: CAO_8  and  CAP_9 
REMARK    4  A    between atoms: CAP_9  and  OBB_10 
REMARK    5  A    between atoms: OBB_10  and  CBH_11 
REMARK    6  A    between atoms: CBG_13  and  OAZ_14 
REMARK    7  A    between atoms: C6_22  and  NAY_23 
REMARK    8  A    between atoms: NAY_23  and  CBE_24 
REMARK    9  A    between atoms: CBD_29  and  NAX_30 
REMARK       I    between atoms: NAX_30  and  CBC_31 
REMARK   10  A    between atoms: CBC_31  and  CBF_33 
ROOT
HETATM    1  CBH   D T1356       5.446  12.763   1.473  1.00 30.53     0.118 A 
HETATM    2  CAM   D T1356       4.193  12.248   1.120  1.00 29.88     0.045 A 
HETATM    3  CBG   D T1356       5.867  13.990   0.924  1.00 30.48     0.117 A 
HETATM    4  CAN   D T1356       5.054  14.685   0.029  1.00 29.67     0.031 A 
HETATM    5  C5    D T1356       3.800  14.176  -0.324  1.00 29.79     0.056 A 
HETATM    6  C4    D T1356       3.376  12.954   0.229  1.00 29.99     0.088 A 
HETATM    7  N3    D T1356       2.176  12.447  -0.100  1.00 29.16    -0.224 NA
HETATM    8  C2    D T1356       1.336  13.126  -0.991  1.00 30.02     0.200 A 
HETATM    9  N1    D T1356       1.754  14.350  -1.538  1.00 29.74    -0.205 NA
HETATM   10  C6    D T1356       2.956  14.860  -1.215  1.00 29.94     0.166 A 
ENDROOT
BRANCH  10  11
HETATM   11  NAY   D T1356       3.411  16.033  -1.729  1.00 31.31    -0.227 NA
BRANCH  11  12
HETATM   12  CBE   D T1356       4.442  16.052  -2.617  1.00 32.67     0.083 A 
HETATM   13  CAK   D T1356       4.582  15.002  -3.527  1.00 33.73     0.021 A 
HETATM   14  CAI   D T1356       5.625  14.996  -4.459  1.00 34.14     0.021 A 
HETATM   15  CBD   D T1356       6.538  16.059  -4.512  1.00 33.99     0.085 A 
HETATM   16  CAH   D T1356       6.401  17.106  -3.604  1.00 33.61     0.021 A 
HETATM   17  CAJ   D T1356       5.359  17.107  -2.674  1.00 33.42     0.021 A 
BRANCH  15  18
HETATM   18  NAX   D T1356       7.581  16.088  -5.378  1.00 34.41    -0.208 NA
HETATM   19  CBC   D T1356       8.768  15.504  -5.091  1.00 37.04     0.279 C 
HETATM   20  OAB   D T1356       9.020  14.886  -4.052  1.00 38.15    -0.265 OA
BRANCH  19  21
HETATM   21  CBF   D T1356       9.743  15.647  -6.082  1.00 37.03     0.058 A 
HETATM   22  CAF   D T1356      11.095  15.673  -5.734  1.00 38.06     0.005 A 
HETATM   23  CAD   D T1356      12.068  15.824  -6.718  1.00 38.28     0.000 A 
HETATM   24  CAC   D T1356      11.697  15.951  -8.056  1.00 38.02     0.000 A 
HETATM   25  CAE   D T1356      10.351  15.918  -8.407  1.00 37.90     0.000 A 
HETATM   26  CAG   D T1356       9.377  15.775  -7.422  1.00 37.23     0.005 A 
ENDBRANCH  19  21
ENDBRANCH  15  18
ENDBRANCH  11  12
ENDBRANCH  10  11
BRANCH   3  27
HETATM   27  OAZ   D T1356       7.108  14.485   1.255  1.00 30.66    -0.326 OA
HETATM   28  CAA   D T1356       8.136  14.358   0.270  1.00 33.36     0.181 C 
ENDBRANCH   3  27
BRANCH   1  29
HETATM   29  OBB   D T1356       6.313  12.141   2.338  1.00 30.55    -0.329 OA
BRANCH  29  30
HETATM   30  CAP   D T1356       5.787  11.444   3.490  1.00 33.72     0.151 C 
BRANCH  30  31
HETATM   31  CAO   D T1356       6.859  10.480   4.032  1.00 37.07     0.068 C 
BRANCH  31  32
HETATM   32  CAS   D T1356       7.721   9.990   2.859  1.00 39.71     0.253 C 
BRANCH  32  33
HETATM   33  NBL   D T1356       9.142  10.411   2.819  1.00 41.70     0.142 N 
HETATM   34  CAT   D T1356       9.497  11.499   3.761  1.00 43.12     0.282 C 
HETATM   35  CAQ   D T1356      11.019  11.755   3.724  1.00 43.52     0.178 C 
HETATM   36  OBA   D T1356      11.675  10.784   2.833  1.00 44.22    -0.350 OA
HETATM   37  CAR   D T1356      11.161  10.811   1.457  1.00 43.52     0.178 C 
HETATM   38  CAU   D T1356       9.620  10.741   1.458  1.00 42.73     0.282 C 
ENDBRANCH  32  33
ENDBRANCH  31  32
ENDBRANCH  30  31
ENDBRANCH  29  30
ENDBRANCH   1  29
TORSDOF 10
ENDMDL
MODEL 4
REMARK VINA RESULT:    -8.028      3.477      6.209
REMARK INTER + INTRA:         -14.308
REMARK INTER:                 -12.637
REMARK INTRA:                  -1.671
REMARK UNBOUND:                -1.586
REMARK  10 active torsions:
REMARK  status: ('A' for Active; 'I' for Inactive)
REMARK    1  A    between atoms: NBL_6  and  CAS_7 
REMARK    2  A    between atoms: CAS_7  and  CAO_8 
REMARK    3  A    between atoms: CAO_8  and  CAP_9 
REMARK    4  A    between atoms: CAP_9  and  OBB_10 
REMARK    5  A    between atoms: OBB_10  and  CBH_11 
REMARK    6  A    between atoms: CBG_13  and  OAZ_14 
REMARK    7  A    between atoms: C6_22  and  NAY_23 
REMARK    8  A    between atoms: NAY_23  and  CBE_24 
REMARK    9  A    between atoms: CBD_29  and  NAX_30 
REMARK       I    between atoms: NAX_30  and  CBC_31 
REMARK   10  A    between atoms: CBC_31  and  CBF_33 
ROOT
HETATM    1  CBH   D T1356      10.493  18.008  -7.200  1.00 30.53     0.118 A 
HETATM    2  CAM   D T1356       9.288  17.728  -7.857  1.00 29.88     0.045 A 
HETATM    3  CBG   D T1356      10.498  18.145  -5.798  1.00 30.48     0.117 A 
HETATM    4  CAN   D T1356       9.317  18.016  -5.066  1.00 29.67     0.031 A 
HETATM    5  C5    D T1356       8.113  17.733  -5.718  1.00 29.79     0.056 A 
HETATM    6  C4    D T1356       8.108  17.589  -7.117  1.00 29.99     0.088 A 
HETATM    7  N3    D T1356       6.960  17.320  -7.761  1.00 29.16    -0.224 NA
HETATM    8  C2    D T1356       5.761  17.178  -7.052  1.00 30.02     0.200 A 
HETATM    9  N1    D T1356       5.766  17.314  -5.654  1.00 29.74    -0.205 NA
HETATM   10  C6    D T1356       6.912  17.587  -5.004  1.00 29.94     0.166 A 
ENDROOT
BRANCH  10  11
HETATM   11  NAY   D T1356       6.964  17.742  -3.655  1.00 31.31    -0.227 NA
BRANCH  11  12
HETATM   12  CBE   D T1356       6.421  16.811  -2.825  1.00 32.67     0.083 A 
HETATM   13  CAK   D T1356       7.052  15.574  -2.676  1.00 33.73     0.021 A 
HETATM   14  CAI   D T1356       6.525  14.599  -1.824  1.00 34.14     0.021 A 
HETATM   15  CBD   D T1356       5.363  14.853  -1.082  1.00 33.99     0.085 A 
HETATM   16  CAH   D T1356       4.730  16.086  -1.232  1.00 33.61     0.021 A 
HETATM   17  CAJ   D T1356       5.259  17.056  -2.085  1.00 33.42     0.021 A 
BRANCH  15  18
HETATM   18  NAX   D T1356       4.797  13.933  -0.263  1.00 34.41    -0.208 NA
HETATM   19  CBC   D T1356       5.267  13.701   0.987  1.00 37.04     0.279 C 
HETATM   20  OAB   D T1356       6.218  14.292   1.506  1.00 38.15    -0.265 OA
BRANCH  19  21
HETATM   21  CBF   D T1356       4.584  12.705   1.690  1.00 37.03     0.058 A 
HETATM   22  CAF   D T1356       3.350  12.245   1.227  1.00 38.06     0.005 A 
HETATM   23  CAD   D T1356       2.663  11.259   1.930  1.00 38.28     0.000 A 
HETATM   24  CAC   D T1356       3.203  10.728   3.100  1.00 38.02     0.000 A 
HETATM   25  CAE   D T1356       4.437  11.180   3.560  1.00 37.90     0.000 A 
HETATM   26  CAG   D T1356       5.120  12.172   2.862  1.00 37.23     0.005 A 
ENDBRANCH  19  21
ENDBRANCH  15  18
ENDBRANCH  11  12
ENDBRANCH  10  11
BRANCH   3  27
HETATM   27  OAZ   D T1356      11.679  18.441  -5.155  1.00 30.66    -0.326 OA
HETATM   28  CAA   D T1356      11.817  19.768  -4.642  1.00 33.36     0.181 C 
ENDBRANCH   3  27
BRANCH   1  29
HETATM   29  OBB   D T1356      11.697  18.160  -7.843  1.00 30.55    -0.329 OA
BRANCH  29  30
HETATM   30  CAP   D T1356      12.716  17.147  -7.689  1.00 33.72     0.151 C 
BRANCH  30  31
HETATM   31  CAO   D T1356      12.104  15.765  -7.985  1.00 37.07     0.068 C 
BRANCH  31  32
HETATM   32  CAS   D T1356      12.808  14.715  -7.111  1.00 39.71     0.253 C 
BRANCH  32  33
HETATM   33  NBL   D T1356      12.797  14.916  -5.642  1.00 41.70     0.142 N 
HETATM   34  CAT   D T1356      13.793  14.114  -4.895  1.00 43.12     0.282 C 
HETATM   35  CAQ   D T1356      13.777  14.507  -3.403  1.00 43.52     0.178 C 
HETATM   36  OBA   D T1356      12.843  15.623  -3.182  1.00 44.22    -0.350 OA
HETATM   37  CAR   D T1356      11.468  15.328  -3.604  1.00 43.52     0.178 C 
HETATM   38  CAU   D T1356      11.457  14.756  -5.037  1.00 42.73     0.282 C 
ENDBRANCH  32  33
ENDBRANCH  31  32
ENDBRANCH  30  31
ENDBRANCH  29  30
ENDBRANCH   1  29
TORSDOF 10
ENDMDL
MODEL 5
REMARK VINA RESULT:    -7.832      1.720      2.376
REMARK INTER + INTRA:         -13.997
REMARK INTER:                 -12.677
REMARK INTRA:                  -1.320
REMARK UNBOUND:                -1.586
REMARK  10 active torsions:
REMARK  status: ('A' for Active; 'I' for Inactive)
REMARK    1  A    between atoms: NBL_6  and  CAS_7 
REMARK    2  A    between atoms: CAS_7  and  CAO_8 
REMARK    3  A    between atoms: CAO_8  and  CAP_9 
REMARK    4  A    between atoms: CAP_9  and  OBB_10 
REMARK    5  A    between atoms: OBB_10  and  CBH_11 
REMARK    6  A    between atoms: CBG_13  and  OAZ_14 
REMARK    7  A    between atoms: C6_22  and  NAY_23 
REMARK    8  A    between atoms: NAY_23  and  CBE_24 
REMARK    9  A    between atoms: CBD_29  and  NAX_30 
REMARK       I    between atoms: NAX_30  and  CBC_31 
REMARK   10  A    between atoms: CBC_31  and  CBF_33 
ROOT
HETATM    1  CBH   D T1356       6.023  16.796  -4.748  1.00 30.53     0.118 A 
HETATM    2  CAM   D T1356       5.056  17.558  -4.082  1.00 29.88     0.045 A 
HETATM    3  CBG   D T1356       6.097  15.410  -4.504  1.00 30.48     0.117 A 
HETATM    4  CAN   D T1356       5.227  14.800  -3.600  1.00 29.67     0.031 A 
HETATM    5  C5    D T1356       4.257  15.557  -2.936  1.00 29.79     0.056 A 
HETATM    6  C4    D T1356       4.178  16.939  -3.184  1.00 29.99     0.088 A 
HETATM    7  N3    D T1356       3.255  17.684  -2.553  1.00 29.16    -0.224 NA
HETATM    8  C2    D T1356       2.364  17.097  -1.647  1.00 30.02     0.200 A 
HETATM    9  N1    D T1356       2.437  15.716  -1.403  1.00 29.74    -0.205 NA
HETATM   10  C6    D T1356       3.361  14.966  -2.029  1.00 29.94     0.166 A 
ENDROOT
BRANCH  10  11
HETATM   11  NAY   D T1356       3.480  13.629  -1.816  1.00 31.31    -0.227 NA
BRANCH  11  12
HETATM   12  CBE   D T1356       4.301  13.148  -0.844  1.00 32.67     0.083 A 
HETATM   13  CAK   D T1356       3.942  13.306   0.497  1.00 33.73     0.021 A 
HETATM   14  CAI   D T1356       4.759  12.815   1.520  1.00 34.14     0.021 A 
HETATM   15  CBD   D T1356       5.947  12.133   1.218  1.00 33.99     0.085 A 
HETATM   16  CAH   D T1356       6.307  11.977  -0.119  1.00 33.61     0.021 A 
HETATM   17  CAJ   D T1356       5.489  12.470  -1.137  1.00 33.42     0.021 A 
BRANCH  15  18
HETATM   18  NAX   D T1356       6.786  11.661   2.172  1.00 34.41    -0.208 NA
HETATM   19  CBC   D T1356       7.955  12.278   2.467  1.00 37.04     0.279 C 
HETATM   20  OAB   D T1356       8.365  13.312   1.930  1.00 38.15    -0.265 OA
BRANCH  19  21
HETATM   21  CBF   D T1356       8.712  11.649   3.459  1.00 37.03     0.058 A 
HETATM   22  CAF   D T1356       8.243  10.478   4.058  1.00 38.06     0.005 A 
HETATM   23  CAD   D T1356       8.990   9.853   5.053  1.00 38.28     0.000 A 
HETATM   24  CAC   D T1356      10.209  10.396   5.457  1.00 38.02     0.000 A 
HETATM   25  CAE   D T1356      10.683  11.559   4.857  1.00 37.90     0.000 A 
HETATM   26  CAG   D T1356       9.932  12.188   3.868  1.00 37.23     0.005 A 
ENDBRANCH  19  21
ENDBRANCH  15  18
ENDBRANCH  11  12
ENDBRANCH  10  11
BRANCH   3  27
HETATM   27  OAZ   D T1356       7.062  14.664  -5.142  1.00 30.66    -0.326 OA
HETATM   28  CAA   D T1356       8.156  14.207  -4.344  1.00 33.36     0.181 C 
ENDBRANCH   3  27
BRANCH   1  29
HETATM   29  OBB   D T1356       6.924  17.316  -5.643  1.00 30.55    -0.329 OA
BRANCH  29  30
HETATM   30  CAP   D T1356       7.810  18.378  -5.222  1.00 33.72     0.151 C 
BRANCH  30  31
HETATM   31  CAO   D T1356       9.109  17.762  -4.667  1.00 37.07     0.068 C 
BRANCH  31  32
HETATM   32  CAS   D T1356       9.892  17.130  -5.828  1.00 39.71     0.253 C 
BRANCH  32  33
HETATM   33  NBL   D T1356      11.081  16.309  -5.496  1.00 41.70     0.142 N 
HETATM   34  CAT   D T1356      12.003  16.916  -4.508  1.00 43.12     0.282 C 
HETATM   35  CAQ   D T1356      13.121  15.916  -4.145  1.00 43.52     0.178 C 
HETATM   36  OBA   D T1356      12.889  14.627  -4.818  1.00 44.22    -0.350 OA
HETATM   37  CAR   D T1356      12.813  14.736  -6.280  1.00 43.52     0.178 C 
HETATM   38  CAU   D T1356      11.835  15.858  -6.686  1.00 42.73     0.282 C 
ENDBRANCH  32  33
ENDBRANCH  31  32
ENDBRANCH  30  31
ENDBRANCH  29  30
ENDBRANCH   1  29
TORSDOF 10
ENDMDL
MODEL 6
REMARK VINA RESULT:    -7.797     17.321     21.482
REMARK INTER + INTRA:         -13.941
REMARK INTER:                 -12.674
REMARK INTRA:                  -1.267
REMARK UNBOUND:                -1.586
REMARK  10 active torsions:
REMARK  status: ('A' for Active; 'I' for Inactive)
REMARK    1  A    between atoms: NBL_6  and  CAS_7 
REMARK    2  A    between atoms: CAS_7  and  CAO_8 
REMARK    3  A    between atoms: CAO_8  and  CAP_9 
REMARK    4  A    between atoms: CAP_9  and  OBB_10 
REMARK    5  A    between atoms: OBB_10  and  CBH_11 
REMARK    6  A    between atoms: CBG_13  and  OAZ_14 
REMARK    7  A    between atoms: C6_22  and  NAY_23 
REMARK    8  A    between atoms: NAY_23  and  CBE_24 
REMARK    9  A    between atoms: CBD_29  and  NAX_30 
REMARK       I    between atoms: NAX_30  and  CBC_31 
REMARK   10  A    between atoms: CBC_31  and  CBF_33 
ROOT
HETATM    1  CBH   D T1356       2.075   4.965  13.822  1.00 30.53     0.118 A 
HETATM    2  CAM   D T1356       1.667   5.158  12.496  1.00 29.88     0.045 A 
HETATM    3  CBG   D T1356       1.177   4.389  14.743  1.00 30.48     0.117 A 
HETATM    4  CAN   D T1356      -0.110   4.023  14.347  1.00 29.67     0.031 A 
HETATM    5  C5    D T1356      -0.520   4.211  13.023  1.00 29.79     0.056 A 
HETATM    6  C4    D T1356       0.378   4.780  12.102  1.00 29.99     0.088 A 
HETATM    7  N3    D T1356       0.002   4.970  10.827  1.00 29.16    -0.224 NA
HETATM    8  C2    D T1356      -1.281   4.606  10.400  1.00 30.02     0.200 A 
HETATM    9  N1    D T1356      -2.177   4.031  11.317  1.00 29.74    -0.205 NA
HETATM   10  C6    D T1356      -1.806   3.841  12.596  1.00 29.94     0.166 A 
ENDROOT
BRANCH  10  11
HETATM   11  NAY   D T1356      -2.641   3.302  13.523  1.00 31.31    -0.227 NA
BRANCH  11  12
HETATM   12  CBE   D T1356      -3.548   4.076  14.179  1.00 32.67     0.083 A 
HETATM   13  CAK   D T1356      -4.741   4.423  13.542  1.00 33.73     0.021 A 
HETATM   14  CAI   D T1356      -5.698   5.209  14.192  1.00 34.14     0.021 A 
HETATM   15  CBD   D T1356      -5.486   5.646  15.507  1.00 33.99     0.085 A 
HETATM   16  CAH   D T1356      -4.295   5.304  16.143  1.00 33.61     0.021 A 
HETATM   17  CAJ   D T1356      -3.342   4.520  15.490  1.00 33.42     0.021 A 
BRANCH  15  18
HETATM   18  NAX   D T1356      -6.370   6.432  16.172  1.00 34.41    -0.208 NA
HETATM   19  CBC   D T1356      -7.154   7.330  15.530  1.00 37.04     0.279 C 
HETATM   20  OAB   D T1356      -7.164   7.517  14.309  1.00 38.15    -0.265 OA
BRANCH  19  21
HETATM   21  CBF   D T1356      -7.991   8.074  16.365  1.00 37.03     0.058 A 
HETATM   22  CAF   D T1356      -9.338   8.240  16.037  1.00 38.06     0.005 A 
HETATM   23  CAD   D T1356     -10.173   8.987  16.862  1.00 38.28     0.000 A 
HETATM   24  CAC   D T1356      -9.668   9.575  18.021  1.00 38.02     0.000 A 
HETATM   25  CAE   D T1356      -8.328   9.406  18.356  1.00 37.90     0.000 A 
HETATM   26  CAG   D T1356      -7.491   8.666  17.525  1.00 37.23     0.005 A 
ENDBRANCH  19  21
ENDBRANCH  15  18
ENDBRANCH  11  12
ENDBRANCH  10  11
BRANCH   3  27
HETATM   27  OAZ   D T1356       1.571   4.220  16.051  1.00 30.66    -0.326 OA
HETATM   28  CAA   D T1356       0.532   4.113  17.027  1.00 33.36     0.181 C 
ENDBRANCH   3  27
BRANCH   1  29
HETATM   29  OBB   D T1356       3.317   5.306  14.297  1.00 30.55    -0.329 OA
BRANCH  29  30
HETATM   30  CAP   D T1356       4.494   4.886  13.571  1.00 33.72     0.151 C 
BRANCH  30  31
HETATM   31  CAO   D T1356       5.203   3.769  14.359  1.00 37.07     0.068 C 
BRANCH  31  32
HETATM   32  CAS   D T1356       5.144   2.471  13.539  1.00 39.71     0.253 C 
BRANCH  32  33
HETATM   33  NBL   D T1356       4.367   2.483  12.276  1.00 41.70     0.142 N 
HETATM   34  CAT   D T1356       3.117   1.687  12.304  1.00 43.12     0.282 C 
HETATM   35  CAQ   D T1356       2.333   1.887  10.990  1.00 43.52     0.178 C 
HETATM   36  OBA   D T1356       3.014   2.876  10.138  1.00 44.22    -0.350 OA
HETATM   37  CAR   D T1356       4.398   2.512   9.809  1.00 43.52     0.178 C 
HETATM   38  CAU   D T1356       5.171   2.126  11.087  1.00 42.73     0.282 C 
ENDBRANCH  32  33
ENDBRANCH  31  32
ENDBRANCH  30  31
ENDBRANCH  29  30
ENDBRANCH   1  29
TORSDOF 10
ENDMDL
MODEL 7
REMARK VINA RESULT:    -7.600      5.578     11.501
REMARK INTER + INTRA:         -13.629
REMARK INTER:                 -11.964
REMARK INTRA:                  -1.665
REMARK UNBOUND:                -1.586
REMARK  10 active torsions:
REMARK  status: ('A' for Active; 'I' for Inactive)
REMARK    1  A    between atoms: NBL_6  and  CAS_7 
REMARK    2  A    between atoms: CAS_7  and  CAO_8 
REMARK    3  A    between atoms: CAO_8  and  CAP_9 
REMARK    4  A    between atoms: CAP_9  and  OBB_10 
REMARK    5  A    between atoms: OBB_10  and  CBH_11 
REMARK    6  A    between atoms: CBG_13  and  OAZ_14 
REMARK    7  A    between atoms: C6_22  and  NAY_23 
REMARK    8  A    between atoms: NAY_23  and  CBE_24 
REMARK    9  A    between atoms: CBD_29  and  NAX_30 
REMARK       I    between atoms: NAX_30  and  CBC_31 
REMARK   10  A    between atoms: CBC_31  and  CBF_33 
ROOT
HETATM    1  CBH   D T1356      12.253  12.064   6.132  1.00 30.53     0.118 A 
HETATM    2  CAM   D T1356      12.709  12.972   5.168  1.00 29.88     0.045 A 
HETATM    3  CBG   D T1356      11.263  11.125   5.781  1.00 30.48     0.117 A 
HETATM    4  CAN   D T1356      10.731  11.101   4.491  1.00 29.67     0.031 A 
HETATM    5  C5    D T1356      11.187  12.003   3.524  1.00 29.79     0.056 A 
HETATM    6  C4    D T1356      12.180  12.936   3.872  1.00 29.99     0.088 A 
HETATM    7  N3    D T1356      12.629  13.812   2.958  1.00 29.16    -0.224 NA
HETATM    8  C2    D T1356      12.118  13.806   1.655  1.00 30.02     0.200 A 
HETATM    9  N1    D T1356      11.132  12.870   1.303  1.00 29.74    -0.205 NA
HETATM   10  C6    D T1356      10.677  11.993   2.216  1.00 29.94     0.166 A 
ENDROOT
BRANCH  10  11
HETATM   11  NAY   D T1356       9.714  11.078   1.928  1.00 31.31    -0.227 NA
BRANCH  11  12
HETATM   12  CBE   D T1356       8.403  11.437   1.879  1.00 32.67     0.083 A 
HETATM   13  CAK   D T1356       7.887  11.988   0.704  1.00 33.73     0.021 A 
HETATM   14  CAI   D T1356       6.542  12.359   0.617  1.00 34.14     0.021 A 
HETATM   15  CBD   D T1356       5.677  12.163   1.704  1.00 33.99     0.085 A 
HETATM   16  CAH   D T1356       6.191  11.615   2.877  1.00 33.61     0.021 A 
HETATM   17  CAJ   D T1356       7.535  11.248   2.960  1.00 33.42     0.021 A 
BRANCH  15  18
HETATM   18  NAX   D T1356       4.372  12.529   1.680  1.00 34.41    -0.208 NA
HETATM   19  CBC   D T1356       3.590  12.325   0.593  1.00 37.04     0.279 C 
HETATM   20  OAB   D T1356       3.960  11.787  -0.454  1.00 38.15    -0.265 OA
BRANCH  19  21
HETATM   21  CBF   D T1356       2.276  12.781   0.728  1.00 37.03     0.058 A 
HETATM   22  CAF   D T1356       1.486  12.981  -0.406  1.00 38.06     0.005 A 
HETATM   23  CAD   D T1356       0.180  13.444  -0.277  1.00 38.28     0.000 A 
HETATM   24  CAC   D T1356      -0.346  13.712   0.986  1.00 38.02     0.000 A 
HETATM   25  CAE   D T1356       0.436  13.506   2.119  1.00 37.90     0.000 A 
HETATM   26  CAG   D T1356       1.745  13.052   1.989  1.00 37.23     0.005 A 
ENDBRANCH  19  21
ENDBRANCH  15  18
ENDBRANCH  11  12
ENDBRANCH  10  11
BRANCH   3  27
HETATM   27  OAZ   D T1356      10.799  10.248   6.735  1.00 30.66    -0.326 OA
HETATM   28  CAA   D T1356      10.005   9.153   6.271  1.00 33.36     0.181 C 
ENDBRANCH   3  27
BRANCH   1  29
HETATM   29  OBB   D T1356      12.713  12.026   7.425  1.00 30.55    -0.329 OA
BRANCH  29  30
HETATM   30  CAP   D T1356      14.050  11.542   7.687  1.00 33.72     0.151 C 
BRANCH  30  31
HETATM   31  CAO   D T1356      13.965  10.211   8.456  1.00 37.07     0.068 C 
BRANCH  31  32
HETATM   32  CAS   D T1356      14.578   9.100   7.591  1.00 39.71     0.253 C 
BRANCH  32  33
HETATM   33  NBL   D T1356      14.367   9.166   6.124  1.00 41.70     0.142 N 
HETATM   34  CAT   D T1356      13.486   8.110   5.572  1.00 43.12     0.282 C 
HETATM   35  CAQ   D T1356      13.234   8.363   4.071  1.00 43.52     0.178 C 
HETATM   36  OBA   D T1356      13.868   9.625   3.655  1.00 44.22    -0.350 OA
HETATM   37  CAR   D T1356      15.316   9.661   3.901  1.00 43.52     0.178 C 
HETATM   38  CAU   D T1356      15.626   9.234   5.351  1.00 42.73     0.282 C 
ENDBRANCH  32  33
ENDBRANCH  31  32
ENDBRANCH  30  31
ENDBRANCH  29  30
ENDBRANCH   1  29
TORSDOF 10
ENDMDL
MODEL 8
REMARK VINA RESULT:    -7.580      4.003      6.356
REMARK INTER + INTRA:         -13.596
REMARK INTER:                 -12.510
REMARK INTRA:                  -1.087
REMARK UNBOUND:                -1.586
REMARK  10 active torsions:
REMARK  status: ('A' for Active; 'I' for Inactive)
REMARK    1  A    between atoms: NBL_6  and  CAS_7 
REMARK    2  A    between atoms: CAS_7  and  CAO_8 
REMARK    3  A    between atoms: CAO_8  and  CAP_9 
REMARK    4  A    between atoms: CAP_9  and  OBB_10 
REMARK    5  A    between atoms: OBB_10  and  CBH_11 
REMARK    6  A    between atoms: CBG_13  and  OAZ_14 
REMARK    7  A    between atoms: C6_22  and  NAY_23 
REMARK    8  A    between atoms: NAY_23  and  CBE_24 
REMARK    9  A    between atoms: CBD_29  and  NAX_30 
REMARK       I    between atoms: NAX_30  and  CBC_31 
REMARK   10  A    between atoms: CBC_31  and  CBF_33 
ROOT
HETATM    1  CBH   D T1356      10.459  15.965  -4.675  1.00 30.53     0.118 A 
HETATM    2  CAM   D T1356       9.601  15.986  -5.782  1.00 29.88     0.045 A 
HETATM    3  CBG   D T1356       9.942  16.254  -3.396  1.00 30.48     0.117 A 
HETATM    4  CAN   D T1356       8.593  16.570  -3.229  1.00 29.67     0.031 A 
HETATM    5  C5    D T1356       7.733  16.589  -4.332  1.00 29.79     0.056 A 
HETATM    6  C4    D T1356       8.246  16.294  -5.607  1.00 29.99     0.088 A 
HETATM    7  N3    D T1356       7.436  16.310  -6.679  1.00 29.16    -0.224 NA
HETATM    8  C2    D T1356       6.077  16.617  -6.540  1.00 30.02     0.200 A 
HETATM    9  N1    D T1356       5.561  16.905  -5.266  1.00 29.74    -0.205 NA
HETATM   10  C6    D T1356       6.369  16.894  -4.190  1.00 29.94     0.166 A 
ENDROOT
BRANCH  10  11
HETATM   11  NAY   D T1356       5.919  17.179  -2.940  1.00 31.31    -0.227 NA
BRANCH  11  12
HETATM   12  CBE   D T1356       5.722  16.190  -2.026  1.00 32.67     0.083 A 
HETATM   13  CAK   D T1356       6.172  16.368  -0.716  1.00 33.73     0.021 A 
HETATM   14  CAI   D T1356       5.977  15.376   0.249  1.00 34.14     0.021 A 
HETATM   15  CBD   D T1356       5.305  14.189  -0.075  1.00 33.99     0.085 A 
HETATM   16  CAH   D T1356       4.858  14.009  -1.382  1.00 33.61     0.021 A 
HETATM   17  CAJ   D T1356       5.056  15.002  -2.343  1.00 33.42     0.021 A 
BRANCH  15  18
HETATM   18  NAX   D T1356       5.113  13.185   0.816  1.00 34.41    -0.208 NA
HETATM   19  CBC   D T1356       3.889  12.898   1.320  1.00 37.04     0.279 C 
HETATM   20  OAB   D T1356       2.845  13.486   1.022  1.00 38.15    -0.265 OA
BRANCH  19  21
HETATM   21  CBF   D T1356       3.871  11.849   2.243  1.00 37.03     0.058 A 
HETATM   22  CAF   D T1356       4.963  11.643   3.088  1.00 38.06     0.005 A 
HETATM   23  CAD   D T1356       4.953  10.594   4.003  1.00 38.28     0.000 A 
HETATM   24  CAC   D T1356       3.851   9.743   4.079  1.00 38.02     0.000 A 
HETATM   25  CAE   D T1356       2.757   9.950   3.243  1.00 37.90     0.000 A 
HETATM   26  CAG   D T1356       2.772  10.994   2.322  1.00 37.23     0.005 A 
ENDBRANCH  19  21
ENDBRANCH  15  18
ENDBRANCH  11  12
ENDBRANCH  10  11
BRANCH   3  27
HETATM   27  OAZ   D T1356      10.790  16.254  -2.312  1.00 30.66    -0.326 OA
HETATM   28  CAA   D T1356      10.191  16.071  -1.027  1.00 33.36     0.181 C 
ENDBRANCH   3  27
BRANCH   1  29
HETATM   29  OBB   D T1356      11.798  15.674  -4.751  1.00 30.55    -0.329 OA
BRANCH  29  30
HETATM   30  CAP   D T1356      12.426  15.557  -6.048  1.00 33.72     0.151 C 
BRANCH  30  31
HETATM   31  CAO   D T1356      13.194  14.224  -6.120  1.00 37.07     0.068 C 
BRANCH  31  32
HETATM   32  CAS   D T1356      13.718  13.879  -4.718  1.00 39.71     0.253 C 
BRANCH  32  33
HETATM   33  NBL   D T1356      15.121  14.237  -4.395  1.00 41.70     0.142 N 
HETATM   34  CAT   D T1356      15.940  13.127  -3.854  1.00 43.12     0.282 C 
HETATM   35  CAQ   D T1356      17.405  13.584  -3.686  1.00 43.52     0.178 C 
HETATM   36  OBA   D T1356      17.571  14.954  -4.197  1.00 44.22    -0.350 OA
HETATM   37  CAR   D T1356      16.696  15.934  -3.540  1.00 43.52     0.178 C 
HETATM   38  CAU   D T1356      15.238  15.427  -3.524  1.00 42.73     0.282 C 
ENDBRANCH  32  33
ENDBRANCH  31  32
ENDBRANCH  30  31
ENDBRANCH  29  30
ENDBRANCH   1  29
TORSDOF 10
ENDMDL
MODEL 9
REMARK VINA RESULT:    -7.572      3.404      6.702
REMARK INTER + INTRA:         -13.584
REMARK INTER:                 -11.856
REMARK INTRA:                  -1.729
REMARK UNBOUND:                -1.586
REMARK  10 active torsions:
REMARK  status: ('A' for Active; 'I' for Inactive)
REMARK    1  A    between atoms: NBL_6  and  CAS_7 
REMARK    2  A    between atoms: CAS_7  and  CAO_8 
REMARK    3  A    between atoms: CAO_8  and  CAP_9 
REMARK    4  A    between atoms: CAP_9  and  OBB_10 
REMARK    5  A    between atoms: OBB_10  and  CBH_11 
REMARK    6  A    between atoms: CBG_13  and  OAZ_14 
REMARK    7  A    between atoms: C6_22  and  NAY_23 
REMARK    8  A    between atoms: NAY_23  and  CBE_24 
REMARK    9  A    between atoms: CBD_29  and  NAX_30 
REMARK       I    between atoms: NAX_30  and  CBC_31 
REMARK   10  A    between atoms: CBC_31  and  CBF_33 
ROOT
HETATM    1  CBH   D T1356      11.640  16.550  -5.837  1.00 30.53     0.118 A 
HETATM    2  CAM   D T1356      12.524  15.521  -5.491  1.00 29.88     0.045 A 
HETATM    3  CBG   D T1356      10.896  17.189  -4.825  1.00 30.48     0.117 A 
HETATM    4  CAN   D T1356      11.026  16.798  -3.492  1.00 29.67     0.031 A 
HETATM    5  C5    D T1356      11.911  15.773  -3.142  1.00 29.79     0.056 A 
HETATM    6  C4    D T1356      12.658  15.139  -4.150  1.00 29.99     0.088 A 
HETATM    7  N3    D T1356      13.511  14.151  -3.834  1.00 29.16    -0.224 NA
HETATM    8  C2    D T1356      13.667  13.743  -2.504  1.00 30.02     0.200 A 
HETATM    9  N1    D T1356      12.926  14.380  -1.495  1.00 29.74    -0.205 NA
HETATM   10  C6    D T1356      12.068  15.368  -1.806  1.00 29.94     0.166 A 
ENDROOT
BRANCH  10  11
HETATM   11  NAY   D T1356      11.320  16.004  -0.867  1.00 31.31    -0.227 NA
BRANCH  11  12
HETATM   12  CBE   D T1356      10.141  15.476  -0.440  1.00 32.67     0.083 A 
HETATM   13  CAK   D T1356      10.153  14.468   0.527  1.00 33.73     0.021 A 
HETATM   14  CAI   D T1356       8.959  13.911   0.995  1.00 34.14     0.021 A 
HETATM   15  CBD   D T1356       7.723  14.371   0.518  1.00 33.99     0.085 A 
HETATM   16  CAH   D T1356       7.710  15.374  -0.448  1.00 33.61     0.021 A 
HETATM   17  CAJ   D T1356       8.904  15.927  -0.914  1.00 33.42     0.021 A 
BRANCH  15  18
HETATM   18  NAX   D T1356       6.539  13.846   0.920  1.00 34.41    -0.208 NA
HETATM   19  CBC   D T1356       5.888  12.907   0.193  1.00 37.04     0.279 C 
HETATM   20  OAB   D T1356       6.293  12.428  -0.870  1.00 38.15    -0.265 OA
BRANCH  19  21
HETATM   21  CBF   D T1356       4.670  12.490   0.738  1.00 37.03     0.058 A 
HETATM   22  CAF   D T1356       4.562  12.256   2.110  1.00 38.06     0.005 A 
HETATM   23  CAD   D T1356       3.354  11.832   2.655  1.00 38.28     0.000 A 
HETATM   24  CAC   D T1356       2.245  11.638   1.832  1.00 38.02     0.000 A 
HETATM   25  CAE   D T1356       2.347  11.877   0.465  1.00 37.90     0.000 A 
HETATM   26  CAG   D T1356       3.558  12.292  -0.081  1.00 37.23     0.005 A 
ENDBRANCH  19  21
ENDBRANCH  15  18
ENDBRANCH  11  12
ENDBRANCH  10  11
BRANCH   3  27
HETATM   27  OAZ   D T1356      10.011  18.186  -5.168  1.00 30.66    -0.326 OA
HETATM   28  CAA   D T1356      10.422  19.530  -4.909  1.00 33.36     0.181 C 
ENDBRANCH   3  27
BRANCH   1  29
HETATM   29  OBB   D T1356      11.443  16.989  -7.122  1.00 30.55    -0.329 OA
BRANCH  29  30
HETATM   30  CAP   D T1356      11.398  16.028  -8.201  1.00 33.72     0.151 C 
BRANCH  30  31
HETATM   31  CAO   D T1356       9.930  15.766  -8.584  1.00 37.07     0.068 C 
BRANCH  31  32
HETATM   32  CAS   D T1356       9.107  17.028  -8.285  1.00 39.71     0.253 C 
BRANCH  32  33
HETATM   33  NBL   D T1356       7.789  16.856  -7.628  1.00 41.70     0.142 N 
HETATM   34  CAT   D T1356       7.156  18.112  -7.159  1.00 43.12     0.282 C 
HETATM   35  CAQ   D T1356       5.740  17.821  -6.620  1.00 43.52     0.178 C 
HETATM   36  OBA   D T1356       5.404  16.401  -6.814  1.00 44.22    -0.350 OA
HETATM   37  CAR   D T1356       6.351  15.482  -6.167  1.00 43.52     0.178 C 
HETATM   38  CAU   D T1356       7.801  15.856  -6.538  1.00 42.73     0.282 C 
ENDBRANCH  32  33
ENDBRANCH  31  32
ENDBRANCH  30  31
ENDBRANCH  29  30
ENDBRANCH   1  29
TORSDOF 10
ENDMDL
