MODEL 1
REMARK VINA RESULT:    -9.038      0.000      0.000
REMARK INTER + INTRA:         -15.277
REMARK INTER:                 -14.322
REMARK INTRA:                  -0.954
REMARK UNBOUND:                -0.954
REMARK  10 active torsions:
REMARK  status: ('A' for Active; 'I' for Inactive)
REMARK    1  A    between atoms: NBL_6  and  CAS_7 
REMARK    2  A    between atoms: CAS_7  and  CAO_8 
REMARK    3  A    between atoms: CAO_8  and  CAP_9 
REMARK    4  A    between atoms: CAP_9  and  OBB_10 
REMARK    5  A    between atoms: OBB_10  and  CBH_11 
REMARK    6  A    between atoms: CBG_13  and  OAZ_14 
REMARK    7  A    between atoms: C6_22  and  NAY_23 
REMARK    8  A    between atoms: NAY_23  and  CBE_24 
REMARK    9  A    between atoms: CBD_29  and  NAX_30 
REMARK       I    between atoms: NAX_30  and  CBC_31 
REMARK   10  A    between atoms: CBC_31  and  CBF_33 
ROOT
HETATM    1  CBH   D T1356       8.073  -1.069   3.966  1.00 30.53     0.118 A 
HETATM    2  CAM   D T1356       9.010  -1.914   4.572  1.00 29.88     0.045 A 
HETATM    3  CBG   D T1356       8.398   0.286   3.759  1.00 30.48     0.117 A 
HETATM    4  CAN   D T1356       9.635   0.789   4.161  1.00 29.67     0.031 A 
HETATM    5  C5    D T1356      10.576  -0.053   4.763  1.00 29.79     0.056 A 
HETATM    6  C4    D T1356      10.254  -1.406   4.965  1.00 29.99     0.088 A 
HETATM    7  N3    D T1356      11.143  -2.230   5.543  1.00 29.16    -0.224 NA
HETATM    8  C2    D T1356      12.395  -1.754   5.950  1.00 30.02     0.200 A 
HETATM    9  N1    D T1356      12.722  -0.403   5.744  1.00 29.74    -0.205 NA
HETATM   10  C6    D T1356      11.834   0.426   5.167  1.00 29.94     0.166 A 
ENDROOT
BRANCH  10  11
HETATM   11  NAY   D T1356      12.097   1.743   4.959  1.00 31.31    -0.227 NA
BRANCH  11  12
HETATM   12  CBE   D T1356      11.283   2.707   5.471  1.00 32.67     0.083 A 
HETATM   13  CAK   D T1356      11.237   2.900   6.853  1.00 33.73     0.021 A 
HETATM   14  CAI   D T1356      10.419   3.887   7.412  1.00 34.14     0.021 A 
HETATM   15  CBD   D T1356       9.644   4.719   6.591  1.00 33.99     0.085 A 
HETATM   16  CAH   D T1356       9.687   4.525   5.211  1.00 33.61     0.021 A 
HETATM   17  CAJ   D T1356      10.504   3.537   4.658  1.00 33.42     0.021 A 
BRANCH  15  18
HETATM   18  NAX   D T1356       8.815   5.673   7.082  1.00 34.41    -0.208 NA
HETATM   19  CBC   D T1356       7.547   5.390   7.465  1.00 37.04     0.279 C 
HETATM   20  OAB   D T1356       7.028   4.270   7.427  1.00 38.15    -0.265 OA
BRANCH  19  21
HETATM   21  CBF   D T1356       6.820   6.491   7.927  1.00 37.03     0.058 A 
HETATM   22  CAF   D T1356       6.459   7.510   7.043  1.00 38.06     0.005 A 
HETATM   23  CAD   D T1356       5.742   8.612   7.502  1.00 38.28     0.000 A 
HETATM   24  CAC   D T1356       5.385   8.704   8.846  1.00 38.02     0.000 A 
HETATM   25  CAE   D T1356       5.738   7.687   9.728  1.00 37.90     0.000 A 
HETATM   26  CAG   D T1356       6.461   6.589   9.271  1.00 37.23     0.005 A 
ENDBRANCH  19  21
ENDBRANCH  15  18
ENDBRANCH  11  12
ENDBRANCH  10  11
BRANCH   3  27
HETATM   27  OAZ   D T1356       7.468   1.122   3.183  1.00 30.66    -0.326 OA
HETATM   28  CAA   D T1356       6.905   2.133   4.023  1.00 33.36     0.181 C 
ENDBRANCH   3  27
BRANCH   1  29
HETATM   29  OBB   D T1356       6.829  -1.478   3.550  1.00 30.55    -0.329 OA
BRANCH  29  30
HETATM   30  CAP   D T1356       5.956  -2.153   4.484  1.00 33.72     0.151 C 
BRANCH  30  31
HETATM   31  CAO   D T1356       4.970  -1.134   5.082  1.00 37.07     0.068 C 
BRANCH  31  32
HETATM   32  CAS   D T1356       3.920  -0.778   4.019  1.00 39.71     0.253 C 
BRANCH  32  33
HETATM   33  NBL   D T1356       3.581   0.654   3.831  1.00 41.70     0.142 N 
HETATM   34  CAT   D T1356       2.305   1.080   4.451  1.00 43.12     0.282 C 
HETATM   35  CAQ   D T1356       2.129   2.606   4.303  1.00 43.52     0.178 C 
HETATM   36  OBA   D T1356       3.320   3.196   3.672  1.00 44.22    -0.350 OA
HETATM   37  CAR   D T1356       3.624   2.629   2.352  1.00 43.52     0.178 C 
HETATM   38  CAU   D T1356       3.630   1.087   2.417  1.00 42.73     0.282 C 
ENDBRANCH  32  33
ENDBRANCH  31  32
ENDBRANCH  30  31
ENDBRANCH  29  30
ENDBRANCH   1  29
TORSDOF 10
ENDMDL
MODEL 2
REMARK VINA RESULT:    -8.912      1.753      2.256
REMARK INTER + INTRA:         -15.076
REMARK INTER:                 -14.511
REMARK INTRA:                  -0.565
REMARK UNBOUND:                -0.954
REMARK  10 active torsions:
REMARK  status: ('A' for Active; 'I' for Inactive)
REMARK    1  A    between atoms: NBL_6  and  CAS_7 
REMARK    2  A    between atoms: CAS_7  and  CAO_8 
REMARK    3  A    between atoms: CAO_8  and  CAP_9 
REMARK    4  A    between atoms: CAP_9  and  OBB_10 
REMARK    5  A    between atoms: OBB_10  and  CBH_11 
REMARK    6  A    between atoms: CBG_13  and  OAZ_14 
REMARK    7  A    between atoms: C6_22  and  NAY_23 
REMARK    8  A    between atoms: NAY_23  and  CBE_24 
REMARK    9  A    between atoms: CBD_29  and  NAX_30 
REMARK       I    between atoms: NAX_30  and  CBC_31 
REMARK   10  A    between atoms: CBC_31  and  CBF_33 
ROOT
HETATM    1  CBH   D T1356       7.953  -1.073   3.933  1.00 30.53     0.118 A 
HETATM    2  CAM   D T1356       8.886  -1.927   4.533  1.00 29.88     0.045 A 
HETATM    3  CBG   D T1356       8.291   0.278   3.718  1.00 30.48     0.117 A 
HETATM    4  CAN   D T1356       9.538   0.768   4.107  1.00 29.67     0.031 A 
HETATM    5  C5    D T1356      10.474  -0.083   4.703  1.00 29.79     0.056 A 
HETATM    6  C4    D T1356      10.140  -1.432   4.912  1.00 29.99     0.088 A 
HETATM    7  N3    D T1356      11.024  -2.264   5.485  1.00 29.16    -0.224 NA
HETATM    8  C2    D T1356      12.285  -1.801   5.879  1.00 30.02     0.200 A 
HETATM    9  N1    D T1356      12.625  -0.455   5.665  1.00 29.74    -0.205 NA
HETATM   10  C6    D T1356      11.741   0.383   5.094  1.00 29.94     0.166 A 
ENDROOT
BRANCH  10  11
HETATM   11  NAY   D T1356      12.017   1.696   4.880  1.00 31.31    -0.227 NA
BRANCH  11  12
HETATM   12  CBE   D T1356      11.222   2.671   5.399  1.00 32.67     0.083 A 
HETATM   13  CAK   D T1356      11.193   2.867   6.781  1.00 33.73     0.021 A 
HETATM   14  CAI   D T1356      10.394   3.864   7.347  1.00 34.14     0.021 A 
HETATM   15  CBD   D T1356       9.620   4.705   6.534  1.00 33.99     0.085 A 
HETATM   16  CAH   D T1356       9.645   4.508   5.154  1.00 33.61     0.021 A 
HETATM   17  CAJ   D T1356      10.444   3.509   4.594  1.00 33.42     0.021 A 
BRANCH  15  18
HETATM   18  NAX   D T1356       8.809   5.669   7.032  1.00 34.41    -0.208 NA
HETATM   19  CBC   D T1356       7.532   5.409   7.405  1.00 37.04     0.279 C 
HETATM   20  OAB   D T1356       6.991   4.300   7.349  1.00 38.15    -0.265 OA
BRANCH  19  21
HETATM   21  CBF   D T1356       6.826   6.519   7.877  1.00 37.03     0.058 A 
HETATM   22  CAF   D T1356       6.494   7.558   7.005  1.00 38.06     0.005 A 
HETATM   23  CAD   D T1356       5.798   8.669   7.474  1.00 38.28     0.000 A 
HETATM   24  CAC   D T1356       5.432   8.750   8.816  1.00 38.02     0.000 A 
HETATM   25  CAE   D T1356       5.756   7.713   9.687  1.00 37.90     0.000 A 
HETATM   26  CAG   D T1356       6.459   6.605   9.220  1.00 37.23     0.005 A 
ENDBRANCH  19  21
ENDBRANCH  15  18
ENDBRANCH  11  12
ENDBRANCH  10  11
BRANCH   3  27
HETATM   27  OAZ   D T1356       7.366   1.122   3.148  1.00 30.66    -0.326 OA
HETATM   28  CAA   D T1356       6.730   2.061   4.020  1.00 33.36     0.181 C 
ENDBRANCH   3  27
BRANCH   1  29
HETATM   29  OBB   D T1356       6.701  -1.470   3.529  1.00 30.55    -0.329 OA
BRANCH  29  30
HETATM   30  CAP   D T1356       5.825  -2.123   4.476  1.00 33.72     0.151 C 
BRANCH  30  31
HETATM   31  CAO   D T1356       5.195  -1.063   5.398  1.00 37.07     0.068 C 
BRANCH  31  32
HETATM   32  CAS   D T1356       4.608  -1.766   6.631  1.00 39.71     0.253 C 
BRANCH  32  33
HETATM   33  NBL   D T1356       3.138  -1.953   6.689  1.00 41.70     0.142 N 
HETATM   34  CAT   D T1356       2.697  -3.313   7.075  1.00 43.12     0.282 C 
HETATM   35  CAQ   D T1356       1.162  -3.346   7.231  1.00 43.52     0.178 C 
HETATM   36  OBA   D T1356       0.602  -1.999   7.039  1.00 44.22    -0.350 OA
HETATM   37  CAR   D T1356       0.929  -1.411   5.733  1.00 43.52     0.178 C 
HETATM   38  CAU   D T1356       2.442  -1.522   5.457  1.00 42.73     0.282 C 
ENDBRANCH  32  33
ENDBRANCH  31  32
ENDBRANCH  30  31
ENDBRANCH  29  30
ENDBRANCH   1  29
TORSDOF 10
ENDMDL
MODEL 3
REMARK VINA RESULT:    -8.805      2.301      3.789
REMARK INTER + INTRA:         -14.906
REMARK INTER:                 -14.399
REMARK INTRA:                  -0.508
REMARK UNBOUND:                -0.954
REMARK  10 active torsions:
REMARK  status: ('A' for Active; 'I' for Inactive)
REMARK    1  A    between atoms: NBL_6  and  CAS_7 
REMARK    2  A    between atoms: CAS_7  and  CAO_8 
REMARK    3  A    between atoms: CAO_8  and  CAP_9 
REMARK    4  A    between atoms: CAP_9  and  OBB_10 
REMARK    5  A    between atoms: OBB_10  and  CBH_11 
REMARK    6  A    between atoms: CBG_13  and  OAZ_14 
REMARK    7  A    between atoms: C6_22  and  NAY_23 
REMARK    8  A    between atoms: NAY_23  and  CBE_24 
REMARK    9  A    between atoms: CBD_29  and  NAX_30 
REMARK       I    between atoms: NAX_30  and  CBC_31 
REMARK   10  A    between atoms: CBC_31  and  CBF_33 
ROOT
HETATM    1  CBH   D T1356       8.019  -1.338   4.045  1.00 30.53     0.118 A 
HETATM    2  CAM   D T1356       8.988  -2.121   4.684  1.00 29.88     0.045 A 
HETATM    3  CBG   D T1356       8.305   0.009   3.747  1.00 30.48     0.117 A 
HETATM    4  CAN   D T1356       9.536   0.566   4.092  1.00 29.67     0.031 A 
HETATM    5  C5    D T1356      10.509  -0.213   4.727  1.00 29.79     0.056 A 
HETATM    6  C4    D T1356      10.226  -1.559   5.019  1.00 29.99     0.088 A 
HETATM    7  N3    D T1356      11.147  -2.322   5.630  1.00 29.16    -0.224 NA
HETATM    8  C2    D T1356      12.393  -1.791   5.982  1.00 30.02     0.200 A 
HETATM    9  N1    D T1356      12.681  -0.449   5.685  1.00 29.74    -0.205 NA
HETATM   10  C6    D T1356      11.761   0.321   5.075  1.00 29.94     0.166 A 
ENDROOT
BRANCH  10  11
HETATM   11  NAY   D T1356      11.987   1.628   4.780  1.00 31.31    -0.227 NA
BRANCH  11  12
HETATM   12  CBE   D T1356      11.204   2.608   5.309  1.00 32.67     0.083 A 
HETATM   13  CAK   D T1356      11.280   2.882   6.676  1.00 33.73     0.021 A 
HETATM   14  CAI   D T1356      10.497   3.887   7.250  1.00 34.14     0.021 A 
HETATM   15  CBD   D T1356       9.634   4.658   6.457  1.00 33.99     0.085 A 
HETATM   16  CAH   D T1356       9.554   4.383   5.093  1.00 33.61     0.021 A 
HETATM   17  CAJ   D T1356      10.337   3.377   4.525  1.00 33.42     0.021 A 
BRANCH  15  18
HETATM   18  NAX   D T1356       8.834   5.626   6.967  1.00 34.41    -0.208 NA
HETATM   19  CBC   D T1356       7.570   5.367   7.381  1.00 37.04     0.279 C 
HETATM   20  OAB   D T1356       7.031   4.256   7.356  1.00 38.15    -0.265 OA
BRANCH  19  21
HETATM   21  CBF   D T1356       6.874   6.480   7.859  1.00 37.03     0.058 A 
HETATM   22  CAF   D T1356       6.500   7.500   6.981  1.00 38.06     0.005 A 
HETATM   23  CAD   D T1356       5.814   8.615   7.456  1.00 38.28     0.000 A 
HETATM   24  CAC   D T1356       5.501   8.719   8.810  1.00 38.02     0.000 A 
HETATM   25  CAE   D T1356       5.866   7.702   9.687  1.00 37.90     0.000 A 
HETATM   26  CAG   D T1356       6.559   6.590   9.214  1.00 37.23     0.005 A 
ENDBRANCH  19  21
ENDBRANCH  15  18
ENDBRANCH  11  12
ENDBRANCH  10  11
BRANCH   3  27
HETATM   27  OAZ   D T1356       7.344   0.783   3.139  1.00 30.66    -0.326 OA
HETATM   28  CAA   D T1356       6.740   1.804   3.938  1.00 33.36     0.181 C 
ENDBRANCH   3  27
BRANCH   1  29
HETATM   29  OBB   D T1356       6.779  -1.803   3.680  1.00 30.55    -0.329 OA
BRANCH  29  30
HETATM   30  CAP   D T1356       5.701  -1.779   4.643  1.00 33.72     0.151 C 
BRANCH  30  31
HETATM   31  CAO   D T1356       4.901  -3.090   4.541  1.00 37.07     0.068 C 
BRANCH  31  32
HETATM   32  CAS   D T1356       5.825  -4.194   4.007  1.00 39.71     0.253 C 
BRANCH  32  33
HETATM   33  NBL   D T1356       5.453  -5.604   4.278  1.00 41.70     0.142 N 
HETATM   34  CAT   D T1356       5.444  -6.487   3.089  1.00 43.12     0.282 C 
HETATM   35  CAQ   D T1356       5.175  -7.945   3.516  1.00 43.52     0.178 C 
HETATM   36  OBA   D T1356       5.098  -8.040   4.982  1.00 44.22    -0.350 OA
HETATM   37  CAR   D T1356       4.062  -7.180   5.570  1.00 43.52     0.178 C 
HETATM   38  CAU   D T1356       4.183  -5.742   5.025  1.00 42.73     0.282 C 
ENDBRANCH  32  33
ENDBRANCH  31  32
ENDBRANCH  30  31
ENDBRANCH  29  30
ENDBRANCH   1  29
TORSDOF 10
ENDMDL
MODEL 4
REMARK VINA RESULT:    -8.667      3.481      9.328
REMARK INTER + INTRA:         -14.688
REMARK INTER:                 -13.232
REMARK INTRA:                  -1.456
REMARK UNBOUND:                -0.954
REMARK  10 active torsions:
REMARK  status: ('A' for Active; 'I' for Inactive)
REMARK    1  A    between atoms: NBL_6  and  CAS_7 
REMARK    2  A    between atoms: CAS_7  and  CAO_8 
REMARK    3  A    between atoms: CAO_8  and  CAP_9 
REMARK    4  A    between atoms: CAP_9  and  OBB_10 
REMARK    5  A    between atoms: OBB_10  and  CBH_11 
REMARK    6  A    between atoms: CBG_13  and  OAZ_14 
REMARK    7  A    between atoms: C6_22  and  NAY_23 
REMARK    8  A    between atoms: NAY_23  and  CBE_24 
REMARK    9  A    between atoms: CBD_29  and  NAX_30 
REMARK       I    between atoms: NAX_30  and  CBC_31 
REMARK   10  A    between atoms: CBC_31  and  CBF_33 
ROOT
HETATM    1  CBH   D T1356       8.982   3.848   5.390  1.00 30.53     0.118 A 
HETATM    2  CAM   D T1356       9.964   2.854   5.303  1.00 29.88     0.045 A 
HETATM    3  CBG   D T1356       7.680   3.576   4.926  1.00 30.48     0.117 A 
HETATM    4  CAN   D T1356       7.369   2.333   4.373  1.00 29.67     0.031 A 
HETATM    5  C5    D T1356       8.346   1.336   4.288  1.00 29.79     0.056 A 
HETATM    6  C4    D T1356       9.643   1.605   4.757  1.00 29.99     0.088 A 
HETATM    7  N3    D T1356      10.595   0.661   4.682  1.00 29.16    -0.224 NA
HETATM    8  C2    D T1356      10.309  -0.597   4.139  1.00 30.02     0.200 A 
HETATM    9  N1    D T1356       9.012  -0.871   3.675  1.00 29.74    -0.205 NA
HETATM   10  C6    D T1356       8.056   0.072   3.746  1.00 29.94     0.166 A 
ENDROOT
BRANCH  10  11
HETATM   11  NAY   D T1356       6.790  -0.140   3.298  1.00 31.31    -0.227 NA
BRANCH  11  12
HETATM   12  CBE   D T1356       6.086  -1.236   3.692  1.00 32.67     0.083 A 
HETATM   13  CAK   D T1356       5.737  -2.202   2.746  1.00 33.73     0.021 A 
HETATM   14  CAI   D T1356       5.022  -3.344   3.117  1.00 34.14     0.021 A 
HETATM   15  CBD   D T1356       4.658  -3.553   4.455  1.00 33.99     0.085 A 
HETATM   16  CAH   D T1356       5.003  -2.588   5.400  1.00 33.61     0.021 A 
HETATM   17  CAJ   D T1356       5.716  -1.448   5.024  1.00 33.42     0.021 A 
BRANCH  15  18
HETATM   18  NAX   D T1356       3.942  -4.629   4.864  1.00 34.41    -0.208 NA
HETATM   19  CBC   D T1356       4.473  -5.875   4.886  1.00 37.04     0.279 C 
HETATM   20  OAB   D T1356       5.631  -6.158   4.564  1.00 38.15    -0.265 OA
BRANCH  19  21
HETATM   21  CBF   D T1356       3.593  -6.874   5.313  1.00 37.03     0.058 A 
HETATM   22  CAF   D T1356       4.093  -8.086   5.795  1.00 38.06     0.005 A 
HETATM   23  CAD   D T1356       3.220  -9.086   6.213  1.00 38.28     0.000 A 
HETATM   24  CAC   D T1356       1.842  -8.884   6.149  1.00 38.02     0.000 A 
HETATM   25  CAE   D T1356       1.340  -7.675   5.675  1.00 37.90     0.000 A 
HETATM   26  CAG   D T1356       2.214  -6.677   5.250  1.00 37.23     0.005 A 
ENDBRANCH  19  21
ENDBRANCH  15  18
ENDBRANCH  11  12
ENDBRANCH  10  11
BRANCH   3  27
HETATM   27  OAZ   D T1356       6.722   4.561   4.991  1.00 30.66    -0.326 OA
HETATM   28  CAA   D T1356       5.357   4.132   4.983  1.00 33.36     0.181 C 
ENDBRANCH   3  27
BRANCH   1  29
HETATM   29  OBB   D T1356       9.205   5.100   5.909  1.00 30.55    -0.329 OA
BRANCH  29  30
HETATM   30  CAP   D T1356       9.469   5.245   7.323  1.00 33.72     0.151 C 
BRANCH  30  31
HETATM   31  CAO   D T1356       8.147   5.541   8.057  1.00 37.07     0.068 C 
BRANCH  31  32
HETATM   32  CAS   D T1356       7.499   6.782   7.426  1.00 39.71     0.253 C 
BRANCH  32  33
HETATM   33  NBL   D T1356       6.194   7.234   7.968  1.00 41.70     0.142 N 
HETATM   34  CAT   D T1356       5.678   8.493   7.382  1.00 43.12     0.282 C 
HETATM   35  CAQ   D T1356       4.262   8.786   7.924  1.00 43.52     0.178 C 
HETATM   36  OBA   D T1356       3.811   7.684   8.788  1.00 44.22    -0.350 OA
HETATM   37  CAR   D T1356       4.705   7.429   9.926  1.00 43.52     0.178 C 
HETATM   38  CAU   D T1356       6.166   7.310   9.445  1.00 42.73     0.282 C 
ENDBRANCH  32  33
ENDBRANCH  31  32
ENDBRANCH  30  31
ENDBRANCH  29  30
ENDBRANCH   1  29
TORSDOF 10
ENDMDL
MODEL 5
REMARK VINA RESULT:    -8.482      3.483      9.594
REMARK INTER + INTRA:         -14.395
REMARK INTER:                 -13.100
REMARK INTRA:                  -1.294
REMARK UNBOUND:                -0.954
REMARK  10 active torsions:
REMARK  status: ('A' for Active; 'I' for Inactive)
REMARK    1  A    between atoms: NBL_6  and  CAS_7 
REMARK    2  A    between atoms: CAS_7  and  CAO_8 
REMARK    3  A    between atoms: CAO_8  and  CAP_9 
REMARK    4  A    between atoms: CAP_9  and  OBB_10 
REMARK    5  A    between atoms: OBB_10  and  CBH_11 
REMARK    6  A    between atoms: CBG_13  and  OAZ_14 
REMARK    7  A    between atoms: C6_22  and  NAY_23 
REMARK    8  A    between atoms: NAY_23  and  CBE_24 
REMARK    9  A    between atoms: CBD_29  and  NAX_30 
REMARK       I    between atoms: NAX_30  and  CBC_31 
REMARK   10  A    between atoms: CBC_31  and  CBF_33 
ROOT
HETATM    1  CBH   D T1356       8.456   3.301   5.533  1.00 30.53     0.118 A 
HETATM    2  CAM   D T1356       7.126   3.735   5.487  1.00 29.88     0.045 A 
HETATM    3  CBG   D T1356       8.835   2.155   4.805  1.00 30.48     0.117 A 
HETATM    4  CAN   D T1356       7.895   1.450   4.054  1.00 29.67     0.031 A 
HETATM    5  C5    D T1356       6.566   1.882   4.002  1.00 29.79     0.056 A 
HETATM    6  C4    D T1356       6.189   3.028   4.723  1.00 29.99     0.088 A 
HETATM    7  N3    D T1356       4.918   3.457   4.688  1.00 29.16    -0.224 NA
HETATM    8  C2    D T1356       3.955   2.773   3.936  1.00 30.02     0.200 A 
HETATM    9  N1    D T1356       4.330   1.631   3.209  1.00 29.74    -0.205 NA
HETATM   10  C6    D T1356       5.602   1.195   3.244  1.00 29.94     0.166 A 
ENDROOT
BRANCH  10  11
HETATM   11  NAY   D T1356       6.011   0.088   2.569  1.00 31.31    -0.227 NA
BRANCH  11  12
HETATM   12  CBE   D T1356       5.611  -1.153   2.960  1.00 32.67     0.083 A 
HETATM   13  CAK   D T1356       6.484  -1.952   3.701  1.00 33.73     0.021 A 
HETATM   14  CAI   D T1356       6.102  -3.228   4.126  1.00 34.14     0.021 A 
HETATM   15  CBD   D T1356       4.823  -3.723   3.834  1.00 33.99     0.085 A 
HETATM   16  CAH   D T1356       3.952  -2.928   3.090  1.00 33.61     0.021 A 
HETATM   17  CAJ   D T1356       4.339  -1.655   2.667  1.00 33.42     0.021 A 
BRANCH  15  18
HETATM   18  NAX   D T1356       4.413  -4.962   4.198  1.00 34.41    -0.208 NA
HETATM   19  CBC   D T1356       3.792  -5.192   5.381  1.00 37.04     0.279 C 
HETATM   20  OAB   D T1356       3.527  -4.326   6.221  1.00 38.15    -0.265 OA
BRANCH  19  21
HETATM   21  CBF   D T1356       3.455  -6.529   5.611  1.00 37.03     0.058 A 
HETATM   22  CAF   D T1356       2.128  -6.945   5.485  1.00 38.06     0.005 A 
HETATM   23  CAD   D T1356       1.787  -8.275   5.721  1.00 38.28     0.000 A 
HETATM   24  CAC   D T1356       2.768  -9.194   6.088  1.00 38.02     0.000 A 
HETATM   25  CAE   D T1356       4.093  -8.783   6.209  1.00 37.90     0.000 A 
HETATM   26  CAG   D T1356       4.433  -7.452   5.980  1.00 37.23     0.005 A 
ENDBRANCH  19  21
ENDBRANCH  15  18
ENDBRANCH  11  12
ENDBRANCH  10  11
BRANCH   3  27
HETATM   27  OAZ   D T1356      10.137   1.716   4.868  1.00 30.66    -0.326 OA
HETATM   28  CAA   D T1356      10.477   0.590   4.056  1.00 33.36     0.181 C 
ENDBRANCH   3  27
BRANCH   1  29
HETATM   29  OBB   D T1356       9.442   3.929   6.255  1.00 30.55    -0.329 OA
BRANCH  29  30
HETATM   30  CAP   D T1356       9.209   4.245   7.646  1.00 33.72     0.151 C 
BRANCH  30  31
HETATM   31  CAO   D T1356       8.729   5.704   7.760  1.00 37.07     0.068 C 
BRANCH  31  32
HETATM   32  CAS   D T1356       7.524   5.755   8.712  1.00 39.71     0.253 C 
BRANCH  32  33
HETATM   33  NBL   D T1356       6.610   6.918   8.612  1.00 41.70     0.142 N 
HETATM   34  CAT   D T1356       5.329   6.770   9.341  1.00 43.12     0.282 C 
HETATM   35  CAQ   D T1356       4.527   8.087   9.274  1.00 43.52     0.178 C 
HETATM   36  OBA   D T1356       5.310   9.125   8.586  1.00 44.22    -0.350 OA
HETATM   37  CAR   D T1356       5.709   8.748   7.223  1.00 43.52     0.178 C 
HETATM   38  CAU   D T1356       6.356   7.348   7.219  1.00 42.73     0.282 C 
ENDBRANCH  32  33
ENDBRANCH  31  32
ENDBRANCH  30  31
ENDBRANCH  29  30
ENDBRANCH   1  29
TORSDOF 10
ENDMDL
MODEL 6
REMARK VINA RESULT:    -8.324      2.083      3.158
REMARK INTER + INTRA:         -14.144
REMARK INTER:                 -13.821
REMARK INTRA:                  -0.323
REMARK UNBOUND:                -0.954
REMARK  10 active torsions:
REMARK  status: ('A' for Active; 'I' for Inactive)
REMARK    1  A    between atoms: NBL_6  and  CAS_7 
REMARK    2  A    between atoms: CAS_7  and  CAO_8 
REMARK    3  A    between atoms: CAO_8  and  CAP_9 
REMARK    4  A    between atoms: CAP_9  and  OBB_10 
REMARK    5  A    between atoms: OBB_10  and  CBH_11 
REMARK    6  A    between atoms: CBG_13  and  OAZ_14 
REMARK    7  A    between atoms: C6_22  and  NAY_23 
REMARK    8  A    between atoms: NAY_23  and  CBE_24 
REMARK    9  A    between atoms: CBD_29  and  NAX_30 
REMARK       I    between atoms: NAX_30  and  CBC_31 
REMARK   10  A    between atoms: CBC_31  and  CBF_33 
ROOT
HETATM    1  CBH   D T1356       7.592  -0.605   3.722  1.00 30.53     0.118 A 
HETATM    2  CAM   D T1356       8.710  -1.287   4.216  1.00 29.88     0.045 A 
HETATM    3  CBG   D T1356       7.624   0.802   3.636  1.00 30.48     0.117 A 
HETATM    4  CAN   D T1356       8.751   1.513   4.049  1.00 29.67     0.031 A 
HETATM    5  C5    D T1356       9.871   0.835   4.539  1.00 29.79     0.056 A 
HETATM    6  C4    D T1356       9.843  -0.568   4.619  1.00 29.99     0.088 A 
HETATM    7  N3    D T1356      10.908  -1.237   5.089  1.00 29.16    -0.224 NA
HETATM    8  C2    D T1356      12.055  -0.550   5.503  1.00 30.02     0.200 A 
HETATM    9  N1    D T1356      12.089   0.852   5.418  1.00 29.74    -0.205 NA
HETATM   10  C6    D T1356      11.023   1.527   4.950  1.00 29.94     0.166 A 
ENDROOT
BRANCH  10  11
HETATM   11  NAY   D T1356      11.002   2.883   4.862  1.00 31.31    -0.227 NA
BRANCH  11  12
HETATM   12  CBE   D T1356       9.988   3.602   5.415  1.00 32.67     0.083 A 
HETATM   13  CAK   D T1356       9.577   3.316   6.719  1.00 33.73     0.021 A 
HETATM   14  CAI   D T1356       8.544   4.041   7.320  1.00 34.14     0.021 A 
HETATM   15  CBD   D T1356       7.914   5.088   6.632  1.00 33.99     0.085 A 
HETATM   16  CAH   D T1356       8.322   5.373   5.330  1.00 33.61     0.021 A 
HETATM   17  CAJ   D T1356       9.352   4.644   4.733  1.00 33.42     0.021 A 
BRANCH  15  18
HETATM   18  NAX   D T1356       6.891   5.805   7.159  1.00 34.41    -0.208 NA
HETATM   19  CBC   D T1356       7.072   6.650   8.202  1.00 37.04     0.279 C 
HETATM   20  OAB   D T1356       8.153   6.866   8.759  1.00 38.15    -0.265 OA
BRANCH  19  21
HETATM   21  CBF   D T1356       5.910   7.294   8.637  1.00 37.03     0.058 A 
HETATM   22  CAF   D T1356       5.300   8.255   7.828  1.00 38.06     0.005 A 
HETATM   23  CAD   D T1356       4.147   8.904   8.262  1.00 38.28     0.000 A 
HETATM   24  CAC   D T1356       3.599   8.600   9.507  1.00 38.02     0.000 A 
HETATM   25  CAE   D T1356       4.201   7.638  10.313  1.00 37.90     0.000 A 
HETATM   26  CAG   D T1356       5.358   6.994   9.883  1.00 37.23     0.005 A 
ENDBRANCH  19  21
ENDBRANCH  15  18
ENDBRANCH  11  12
ENDBRANCH  10  11
BRANCH   3  27
HETATM   27  OAZ   D T1356       6.516   1.473   3.172  1.00 30.66    -0.326 OA
HETATM   28  CAA   D T1356       5.722   2.155   4.146  1.00 33.36     0.181 C 
ENDBRANCH   3  27
BRANCH   1  29
HETATM   29  OBB   D T1356       6.440  -1.225   3.305  1.00 30.55    -0.329 OA
BRANCH  29  30
HETATM   30  CAP   D T1356       5.759  -2.133   4.201  1.00 33.72     0.151 C 
BRANCH  30  31
HETATM   31  CAO   D T1356       5.165  -1.334   5.376  1.00 37.07     0.068 C 
BRANCH  31  32
HETATM   32  CAS   D T1356       4.216  -2.247   6.166  1.00 39.71     0.253 C 
BRANCH  32  33
HETATM   33  NBL   D T1356       3.748  -3.493   5.512  1.00 41.70     0.142 N 
HETATM   34  CAT   D T1356       2.363  -3.440   4.988  1.00 43.12     0.282 C 
HETATM   35  CAQ   D T1356       2.040  -4.738   4.217  1.00 43.52     0.178 C 
HETATM   36  OBA   D T1356       3.230  -5.601   4.154  1.00 44.22    -0.350 OA
HETATM   37  CAR   D T1356       3.762  -5.961   5.476  1.00 43.52     0.178 C 
HETATM   38  CAU   D T1356       3.930  -4.700   6.349  1.00 42.73     0.282 C 
ENDBRANCH  32  33
ENDBRANCH  31  32
ENDBRANCH  30  31
ENDBRANCH  29  30
ENDBRANCH   1  29
TORSDOF 10
ENDMDL
MODEL 7
REMARK VINA RESULT:    -8.313      4.064      9.745
REMARK INTER + INTRA:         -14.127
REMARK INTER:                 -12.838
REMARK INTRA:                  -1.289
REMARK UNBOUND:                -0.954
REMARK  10 active torsions:
REMARK  status: ('A' for Active; 'I' for Inactive)
REMARK    1  A    between atoms: NBL_6  and  CAS_7 
REMARK    2  A    between atoms: CAS_7  and  CAO_8 
REMARK    3  A    between atoms: CAO_8  and  CAP_9 
REMARK    4  A    between atoms: CAP_9  and  OBB_10 
REMARK    5  A    between atoms: OBB_10  and  CBH_11 
REMARK    6  A    between atoms: CBG_13  and  OAZ_14 
REMARK    7  A    between atoms: C6_22  and  NAY_23 
REMARK    8  A    between atoms: NAY_23  and  CBE_24 
REMARK    9  A    between atoms: CBD_29  and  NAX_30 
REMARK       I    between atoms: NAX_30  and  CBC_31 
REMARK   10  A    between atoms: CBC_31  and  CBF_33 
ROOT
HETATM    1  CBH   D T1356       8.228   3.192   5.872  1.00 30.53     0.118 A 
HETATM    2  CAM   D T1356       9.268   2.255   5.830  1.00 29.88     0.045 A 
HETATM    3  CBG   D T1356       6.944   2.819   5.429  1.00 30.48     0.117 A 
HETATM    4  CAN   D T1356       6.707   1.534   4.942  1.00 29.67     0.031 A 
HETATM    5  C5    D T1356       7.741   0.593   4.902  1.00 29.79     0.056 A 
HETATM    6  C4    D T1356       9.021   0.963   5.350  1.00 29.99     0.088 A 
HETATM    7  N3    D T1356      10.028   0.075   5.318  1.00 29.16    -0.224 NA
HETATM    8  C2    D T1356       9.817  -1.224   4.841  1.00 30.02     0.200 A 
HETATM    9  N1    D T1356       8.537  -1.599   4.399  1.00 29.74    -0.205 NA
HETATM   10  C6    D T1356       7.526  -0.712   4.427  1.00 29.94     0.166 A 
ENDROOT
BRANCH  10  11
HETATM   11  NAY   D T1356       6.274  -1.021   3.997  1.00 31.31    -0.227 NA
BRANCH  11  12
HETATM   12  CBE   D T1356       5.683  -2.193   4.358  1.00 32.67     0.083 A 
HETATM   13  CAK   D T1356       4.852  -2.223   5.480  1.00 33.73     0.021 A 
HETATM   14  CAI   D T1356       4.222  -3.407   5.873  1.00 34.14     0.021 A 
HETATM   15  CBD   D T1356       4.394  -4.586   5.134  1.00 33.99     0.085 A 
HETATM   16  CAH   D T1356       5.226  -4.558   4.015  1.00 33.61     0.021 A 
HETATM   17  CAJ   D T1356       5.855  -3.373   3.628  1.00 33.42     0.021 A 
BRANCH  15  18
HETATM   18  NAX   D T1356       3.828  -5.766   5.486  1.00 34.41    -0.208 NA
HETATM   19  CBC   D T1356       2.572  -6.100   5.103  1.00 37.04     0.279 C 
HETATM   20  OAB   D T1356       1.836  -5.400   4.400  1.00 38.15    -0.265 OA
BRANCH  19  21
HETATM   21  CBF   D T1356       2.132  -7.342   5.570  1.00 37.03     0.058 A 
HETATM   22  CAF   D T1356       3.053  -8.364   5.810  1.00 38.06     0.005 A 
HETATM   23  CAD   D T1356       2.617  -9.604   6.268  1.00 38.28     0.000 A 
HETATM   24  CAC   D T1356       1.260  -9.832   6.486  1.00 38.02     0.000 A 
HETATM   25  CAE   D T1356       0.340  -8.813   6.255  1.00 37.90     0.000 A 
HETATM   26  CAG   D T1356       0.775  -7.575   5.789  1.00 37.23     0.005 A 
ENDBRANCH  19  21
ENDBRANCH  15  18
ENDBRANCH  11  12
ENDBRANCH  10  11
BRANCH   3  27
HETATM   27  OAZ   D T1356       5.928   3.747   5.449  1.00 30.66    -0.326 OA
HETATM   28  CAA   D T1356       4.831   3.519   4.560  1.00 33.36     0.181 C 
ENDBRANCH   3  27
BRANCH   1  29
HETATM   29  OBB   D T1356       8.377   4.480   6.325  1.00 30.55    -0.329 OA
BRANCH  29  30
HETATM   30  CAP   D T1356       8.523   4.720   7.743  1.00 33.72     0.151 C 
BRANCH  30  31
HETATM   31  CAO   D T1356       8.101   6.167   8.058  1.00 37.07     0.068 C 
BRANCH  31  32
HETATM   32  CAS   D T1356       6.759   6.452   7.368  1.00 39.71     0.253 C 
BRANCH  32  33
HETATM   33  NBL   D T1356       5.715   7.162   8.147  1.00 41.70     0.142 N 
HETATM   34  CAT   D T1356       5.395   8.525   7.664  1.00 43.12     0.282 C 
HETATM   35  CAQ   D T1356       4.210   9.105   8.465  1.00 43.52     0.178 C 
HETATM   36  OBA   D T1356       3.692   8.099   9.406  1.00 44.22    -0.350 OA
HETATM   37  CAR   D T1356       4.703   7.609  10.352  1.00 43.52     0.178 C 
HETATM   38  CAU   D T1356       5.982   7.186   9.602  1.00 42.73     0.282 C 
ENDBRANCH  32  33
ENDBRANCH  31  32
ENDBRANCH  30  31
ENDBRANCH  29  30
ENDBRANCH   1  29
TORSDOF 10
ENDMDL
MODEL 8
REMARK VINA RESULT:    -8.083      3.633      9.117
REMARK INTER + INTRA:         -13.762
REMARK INTER:                 -12.275
REMARK INTRA:                  -1.487
REMARK UNBOUND:                -0.954
REMARK  10 active torsions:
REMARK  status: ('A' for Active; 'I' for Inactive)
REMARK    1  A    between atoms: NBL_6  and  CAS_7 
REMARK    2  A    between atoms: CAS_7  and  CAO_8 
REMARK    3  A    between atoms: CAO_8  and  CAP_9 
REMARK    4  A    between atoms: CAP_9  and  OBB_10 
REMARK    5  A    between atoms: OBB_10  and  CBH_11 
REMARK    6  A    between atoms: CBG_13  and  OAZ_14 
REMARK    7  A    between atoms: C6_22  and  NAY_23 
REMARK    8  A    between atoms: NAY_23  and  CBE_24 
REMARK    9  A    between atoms: CBD_29  and  NAX_30 
REMARK       I    between atoms: NAX_30  and  CBC_31 
REMARK   10  A    between atoms: CBC_31  and  CBF_33 
ROOT
HETATM    1  CBH   D T1356       9.046   3.203   5.486  1.00 30.53     0.118 A 
HETATM    2  CAM   D T1356      10.144   2.345   5.350  1.00 29.88     0.045 A 
HETATM    3  CBG   D T1356       7.743   2.666   5.460  1.00 30.48     0.117 A 
HETATM    4  CAN   D T1356       7.543   1.297   5.288  1.00 29.67     0.031 A 
HETATM    5  C5    D T1356       8.636   0.436   5.155  1.00 29.79     0.056 A 
HETATM    6  C4    D T1356       9.937   0.969   5.188  1.00 29.99     0.088 A 
HETATM    7  N3    D T1356      11.000   0.159   5.059  1.00 29.16    -0.224 NA
HETATM    8  C2    D T1356      10.828  -1.221   4.892  1.00 30.02     0.200 A 
HETATM    9  N1    D T1356       9.530  -1.757   4.866  1.00 29.74    -0.205 NA
HETATM   10  C6    D T1356       8.462  -0.949   4.991  1.00 29.94     0.166 A 
ENDROOT
BRANCH  10  11
HETATM   11  NAY   D T1356       7.187  -1.418   4.958  1.00 31.31    -0.227 NA
BRANCH  11  12
HETATM   12  CBE   D T1356       6.615  -1.800   3.783  1.00 32.67     0.083 A 
HETATM   13  CAK   D T1356       5.724  -2.875   3.773  1.00 33.73     0.021 A 
HETATM   14  CAI   D T1356       5.112  -3.287   2.586  1.00 34.14     0.021 A 
HETATM   15  CBD   D T1356       5.364  -2.612   1.383  1.00 33.99     0.085 A 
HETATM   16  CAH   D T1356       6.255  -1.540   1.391  1.00 33.61     0.021 A 
HETATM   17  CAJ   D T1356       6.865  -1.134   2.579  1.00 33.42     0.021 A 
BRANCH  15  18
HETATM   18  NAX   D T1356       4.817  -2.987   0.200  1.00 34.41    -0.208 NA
HETATM   19  CBC   D T1356       3.582  -2.579  -0.179  1.00 37.04     0.279 C 
HETATM   20  OAB   D T1356       2.849  -1.834   0.479  1.00 38.15    -0.265 OA
BRANCH  19  21
HETATM   21  CBF   D T1356       3.160  -3.074  -1.416  1.00 37.03     0.058 A 
HETATM   22  CAF   D T1356       3.995  -3.917  -2.152  1.00 38.06     0.005 A 
HETATM   23  CAD   D T1356       3.582  -4.406  -3.389  1.00 38.28     0.000 A 
HETATM   24  CAC   D T1356       2.334  -4.052  -3.899  1.00 38.02     0.000 A 
HETATM   25  CAE   D T1356       1.496  -3.217  -3.165  1.00 37.90     0.000 A 
HETATM   26  CAG   D T1356       1.913  -2.722  -1.932  1.00 37.23     0.005 A 
ENDBRANCH  19  21
ENDBRANCH  15  18
ENDBRANCH  11  12
ENDBRANCH  10  11
BRANCH   3  27
HETATM   27  OAZ   D T1356       6.664   3.513   5.572  1.00 30.66    -0.326 OA
HETATM   28  CAA   D T1356       5.499   3.173   4.816  1.00 33.36     0.181 C 
ENDBRANCH   3  27
BRANCH   1  29
HETATM   29  OBB   D T1356       9.153   4.562   5.649  1.00 30.55    -0.329 OA
BRANCH  29  30
HETATM   30  CAP   D T1356       9.693   5.088   6.882  1.00 33.72     0.151 C 
BRANCH  30  31
HETATM   31  CAO   D T1356       8.534   5.550   7.786  1.00 37.07     0.068 C 
BRANCH  31  32
HETATM   32  CAS   D T1356       7.635   6.505   6.988  1.00 39.71     0.253 C 
BRANCH  32  33
HETATM   33  NBL   D T1356       6.463   7.095   7.679  1.00 41.70     0.142 N 
HETATM   34  CAT   D T1356       5.257   6.235   7.708  1.00 43.12     0.282 C 
HETATM   35  CAQ   D T1356       4.157   6.897   8.564  1.00 43.52     0.178 C 
HETATM   36  OBA   D T1356       4.662   8.139   9.170  1.00 44.22    -0.350 OA
HETATM   37  CAR   D T1356       5.142   9.117   8.185  1.00 43.52     0.178 C 
HETATM   38  CAU   D T1356       6.113   8.447   7.191  1.00 42.73     0.282 C 
ENDBRANCH  32  33
ENDBRANCH  31  32
ENDBRANCH  30  31
ENDBRANCH  29  30
ENDBRANCH   1  29
TORSDOF 10
ENDMDL
MODEL 9
REMARK VINA RESULT:    -8.004      3.854      9.781
REMARK INTER + INTRA:         -13.637
REMARK INTER:                 -12.143
REMARK INTRA:                  -1.494
REMARK UNBOUND:                -0.954
REMARK  10 active torsions:
REMARK  status: ('A' for Active; 'I' for Inactive)
REMARK    1  A    between atoms: NBL_6  and  CAS_7 
REMARK    2  A    between atoms: CAS_7  and  CAO_8 
REMARK    3  A    between atoms: CAO_8  and  CAP_9 
REMARK    4  A    between atoms: CAP_9  and  OBB_10 
REMARK    5  A    between atoms: OBB_10  and  CBH_11 
REMARK    6  A    between atoms: CBG_13  and  OAZ_14 
REMARK    7  A    between atoms: C6_22  and  NAY_23 
REMARK    8  A    between atoms: NAY_23  and  CBE_24 
REMARK    9  A    between atoms: CBD_29  and  NAX_30 
REMARK       I    between atoms: NAX_30  and  CBC_31 
REMARK   10  A    between atoms: CBC_31  and  CBF_33 
ROOT
HETATM    1  CBH   D T1356       9.567   2.477   4.551  1.00 30.53     0.118 A 
HETATM    2  CAM   D T1356       8.283   3.021   4.670  1.00 29.88     0.045 A 
HETATM    3  CBG   D T1356       9.719   1.171   4.044  1.00 30.48     0.117 A 
HETATM    4  CAN   D T1356       8.605   0.419   3.673  1.00 29.67     0.031 A 
HETATM    5  C5    D T1356       7.320   0.961   3.786  1.00 29.79     0.056 A 
HETATM    6  C4    D T1356       7.168   2.265   4.286  1.00 29.99     0.088 A 
HETATM    7  N3    D T1356       5.943   2.802   4.404  1.00 29.16    -0.224 NA
HETATM    8  C2    D T1356       4.807   2.073   4.033  1.00 30.02     0.200 A 
HETATM    9  N1    D T1356       4.956   0.771   3.527  1.00 29.74    -0.205 NA
HETATM   10  C6    D T1356       6.181   0.228   3.409  1.00 29.94     0.166 A 
ENDROOT
BRANCH  10  11
HETATM   11  NAY   D T1356       6.377  -1.032   2.939  1.00 31.31    -0.227 NA
BRANCH  11  12
HETATM   12  CBE   D T1356       5.618  -2.069   3.387  1.00 32.67     0.083 A 
HETATM   13  CAK   D T1356       4.947  -2.875   2.465  1.00 33.73     0.021 A 
HETATM   14  CAI   D T1356       4.167  -3.954   2.891  1.00 34.14     0.021 A 
HETATM   15  CBD   D T1356       4.061  -4.262   4.255  1.00 33.99     0.085 A 
HETATM   16  CAH   D T1356       4.728  -3.457   5.176  1.00 33.61     0.021 A 
HETATM   17  CAJ   D T1356       5.504  -2.379   4.746  1.00 33.42     0.021 A 
BRANCH  15  18
HETATM   18  NAX   D T1356       3.297  -5.280   4.722  1.00 34.41    -0.208 NA
HETATM   19  CBC   D T1356       3.812  -6.511   4.961  1.00 37.04     0.279 C 
HETATM   20  OAB   D T1356       4.996  -6.826   4.801  1.00 38.15    -0.265 OA
BRANCH  19  21
HETATM   21  CBF   D T1356       2.885  -7.451   5.419  1.00 37.03     0.058 A 
HETATM   22  CAF   D T1356       3.317  -8.712   5.836  1.00 38.06     0.005 A 
HETATM   23  CAD   D T1356       2.395  -9.653   6.285  1.00 38.28     0.000 A 
HETATM   24  CAC   D T1356       1.036  -9.343   6.316  1.00 38.02     0.000 A 
HETATM   25  CAE   D T1356       0.603  -8.085   5.907  1.00 37.90     0.000 A 
HETATM   26  CAG   D T1356       1.525  -7.145   5.451  1.00 37.23     0.005 A 
ENDBRANCH  19  21
ENDBRANCH  15  18
ENDBRANCH  11  12
ENDBRANCH  10  11
BRANCH   3  27
HETATM   27  OAZ   D T1356      10.980   0.628   3.949  1.00 30.66    -0.326 OA
HETATM   28  CAA   D T1356      11.321  -0.379   4.905  1.00 33.36     0.181 C 
ENDBRANCH   3  27
BRANCH   1  29
HETATM   29  OBB   D T1356      10.716   3.143   4.903  1.00 30.55    -0.329 OA
BRANCH  29  30
HETATM   30  CAP   D T1356      11.073   3.251   6.299  1.00 33.72     0.151 C 
BRANCH  30  31
HETATM   31  CAO   D T1356      10.675   4.646   6.817  1.00 37.07     0.068 C 
BRANCH  31  32
HETATM   32  CAS   D T1356       9.460   4.501   7.745  1.00 39.71     0.253 C 
BRANCH  32  33
HETATM   33  NBL   D T1356       8.352   5.475   7.595  1.00 41.70     0.142 N 
HETATM   34  CAT   D T1356       7.033   4.999   8.073  1.00 43.12     0.282 C 
HETATM   35  CAQ   D T1356       5.997   6.140   7.989  1.00 43.52     0.178 C 
HETATM   36  OBA   D T1356       6.646   7.384   7.546  1.00 44.22    -0.350 OA
HETATM   37  CAR   D T1356       7.316   7.262   6.245  1.00 43.52     0.178 C 
HETATM   38  CAU   D T1356       8.230   6.020   6.225  1.00 42.73     0.282 C 
ENDBRANCH  32  33
ENDBRANCH  31  32
ENDBRANCH  30  31
ENDBRANCH  29  30
ENDBRANCH   1  29
TORSDOF 10
ENDMDL
