MODEL 1
REMARK VINA RESULT:    -7.877      0.000      0.000
REMARK INTER + INTRA:         -13.644
REMARK INTER:                 -12.482
REMARK INTRA:                  -1.162
REMARK UNBOUND:                -1.162
REMARK  10 active torsions:
REMARK  status: ('A' for Active; 'I' for Inactive)
REMARK    1  A    between atoms: NBL_6  and  CAS_7 
REMARK    2  A    between atoms: CAS_7  and  CAO_8 
REMARK    3  A    between atoms: CAO_8  and  CAP_9 
REMARK    4  A    between atoms: CAP_9  and  OBB_10 
REMARK    5  A    between atoms: OBB_10  and  CBH_11 
REMARK    6  A    between atoms: CBG_13  and  OAZ_14 
REMARK    7  A    between atoms: C6_22  and  NAY_23 
REMARK    8  A    between atoms: NAY_23  and  CBE_24 
REMARK    9  A    between atoms: CBD_29  and  NAX_30 
REMARK       I    between atoms: NAX_30  and  CBC_31 
REMARK   10  A    between atoms: CBC_31  and  CBF_33 
ROOT
HETATM    1  CBH   D T1356      -5.828  -3.429   8.838  1.00 30.53     0.118 A 
HETATM    2  CAM   D T1356      -6.928  -2.638   9.190  1.00 29.88     0.045 A 
HETATM    3  CBG   D T1356      -6.041  -4.649   8.163  1.00 30.48     0.117 A 
HETATM    4  CAN   D T1356      -7.334  -5.073   7.857  1.00 29.67     0.031 A 
HETATM    5  C5    D T1356      -8.435  -4.284   8.202  1.00 29.79     0.056 A 
HETATM    6  C4    D T1356      -8.223  -3.065   8.870  1.00 29.99     0.088 A 
HETATM    7  N3    D T1356      -9.268  -2.294   9.212  1.00 29.16    -0.224 NA
HETATM    8  C2    D T1356     -10.576  -2.692   8.910  1.00 30.02     0.200 A 
HETATM    9  N1    D T1356     -10.791  -3.906   8.238  1.00 29.74    -0.205 NA
HETATM   10  C6    D T1356      -9.748  -4.684   7.896  1.00 29.94     0.166 A 
ENDROOT
BRANCH  10  11
HETATM   11  NAY   D T1356      -9.905  -5.873   7.257  1.00 31.31    -0.227 NA
BRANCH  11  12
HETATM   12  CBE   D T1356     -10.731  -6.830   7.760  1.00 32.67     0.083 A 
HETATM   13  CAK   D T1356     -10.567  -7.250   9.082  1.00 33.73     0.021 A 
HETATM   14  CAI   D T1356     -11.403  -8.224   9.634  1.00 34.14     0.021 A 
HETATM   15  CBD   D T1356     -12.441  -8.785   8.876  1.00 33.99     0.085 A 
HETATM   16  CAH   D T1356     -12.604  -8.369   7.555  1.00 33.61     0.021 A 
HETATM   17  CAJ   D T1356     -11.765  -7.397   7.008  1.00 33.42     0.021 A 
BRANCH  15  18
HETATM   18  NAX   D T1356     -13.263  -9.751   9.354  1.00 34.41    -0.208 NA
HETATM   19  CBC   D T1356     -12.784 -10.913   9.858  1.00 37.04     0.279 C 
HETATM   20  OAB   D T1356     -11.588 -11.205   9.951  1.00 38.15    -0.265 OA
BRANCH  19  21
HETATM   21  CBF   D T1356     -13.767 -11.810  10.287  1.00 37.03     0.058 A 
HETATM   22  CAF   D T1356     -14.997 -11.864   9.628  1.00 38.06     0.005 A 
HETATM   23  CAD   D T1356     -15.981 -12.751  10.057  1.00 38.28     0.000 A 
HETATM   24  CAC   D T1356     -15.744 -13.587  11.147  1.00 38.02     0.000 A 
HETATM   25  CAE   D T1356     -14.516 -13.540  11.801  1.00 37.90     0.000 A 
HETATM   26  CAG   D T1356     -13.534 -12.648  11.377  1.00 37.23     0.005 A 
ENDBRANCH  19  21
ENDBRANCH  15  18
ENDBRANCH  11  12
ENDBRANCH  10  11
BRANCH   3  27
HETATM   27  OAZ   D T1356      -4.962  -5.437   7.838  1.00 30.66    -0.326 OA
HETATM   28  CAA   D T1356      -5.217  -6.832   7.654  1.00 33.36     0.181 C 
ENDBRANCH   3  27
BRANCH   1  29
HETATM   29  OBB   D T1356      -4.525  -3.093   9.110  1.00 30.55    -0.329 OA
BRANCH  29  30
HETATM   30  CAP   D T1356      -3.802  -2.249   8.184  1.00 33.72     0.151 C 
BRANCH  30  31
HETATM   31  CAO   D T1356      -2.497  -1.771   8.846  1.00 37.07     0.068 C 
BRANCH  31  32
HETATM   32  CAS   D T1356      -1.342  -2.660   8.363  1.00 39.71     0.253 C 
BRANCH  32  33
HETATM   33  NBL   D T1356      -0.930  -3.793   9.226  1.00 41.70     0.142 N 
HETATM   34  CAT   D T1356      -1.682  -5.051   9.008  1.00 43.12     0.282 C 
HETATM   35  CAQ   D T1356      -1.077  -6.183   9.864  1.00 43.52     0.178 C 
HETATM   36  OBA   D T1356       0.120  -5.703  10.571  1.00 44.22    -0.350 OA
HETATM   37  CAR   D T1356      -0.139  -4.546  11.439  1.00 43.52     0.178 C 
HETATM   38  CAU   D T1356      -0.910  -3.455  10.667  1.00 42.73     0.282 C 
ENDBRANCH  32  33
ENDBRANCH  31  32
ENDBRANCH  30  31
ENDBRANCH  29  30
ENDBRANCH   1  29
TORSDOF 10
ENDMDL
MODEL 2
REMARK VINA RESULT:    -7.776      1.565      2.520
REMARK INTER + INTRA:         -13.484
REMARK INTER:                 -12.653
REMARK INTRA:                  -0.831
REMARK UNBOUND:                -1.162
REMARK  10 active torsions:
REMARK  status: ('A' for Active; 'I' for Inactive)
REMARK    1  A    between atoms: NBL_6  and  CAS_7 
REMARK    2  A    between atoms: CAS_7  and  CAO_8 
REMARK    3  A    between atoms: CAO_8  and  CAP_9 
REMARK    4  A    between atoms: CAP_9  and  OBB_10 
REMARK    5  A    between atoms: OBB_10  and  CBH_11 
REMARK    6  A    between atoms: CBG_13  and  OAZ_14 
REMARK    7  A    between atoms: C6_22  and  NAY_23 
REMARK    8  A    between atoms: NAY_23  and  CBE_24 
REMARK    9  A    between atoms: CBD_29  and  NAX_30 
REMARK       I    between atoms: NAX_30  and  CBC_31 
REMARK   10  A    between atoms: CBC_31  and  CBF_33 
ROOT
HETATM    1  CBH   D T1356      -4.848  -4.285   8.669  1.00 30.53     0.118 A 
HETATM    2  CAM   D T1356      -5.284  -3.149   9.360  1.00 29.88     0.045 A 
HETATM    3  CBG   D T1356      -5.778  -5.039   7.925  1.00 30.48     0.117 A 
HETATM    4  CAN   D T1356      -7.122  -4.668   7.882  1.00 29.67     0.031 A 
HETATM    5  C5    D T1356      -7.560  -3.531   8.568  1.00 29.79     0.056 A 
HETATM    6  C4    D T1356      -6.632  -2.774   9.306  1.00 29.99     0.088 A 
HETATM    7  N3    D T1356      -7.035  -1.680   9.972  1.00 29.16    -0.224 NA
HETATM    8  C2    D T1356      -8.376  -1.280   9.942  1.00 30.02     0.200 A 
HETATM    9  N1    D T1356      -9.304  -2.030   9.200  1.00 29.74    -0.205 NA
HETATM   10  C6    D T1356      -8.907  -3.129   8.533  1.00 29.94     0.166 A 
ENDROOT
BRANCH  10  11
HETATM   11  NAY   D T1356      -9.768  -3.894   7.813  1.00 31.31    -0.227 NA
BRANCH  11  12
HETATM   12  CBE   D T1356     -10.189  -5.100   8.284  1.00 32.67     0.083 A 
HETATM   13  CAK   D T1356     -10.306  -6.176   7.401  1.00 33.73     0.021 A 
HETATM   14  CAI   D T1356     -10.726  -7.431   7.853  1.00 34.14     0.021 A 
HETATM   15  CBD   D T1356     -11.017  -7.640   9.209  1.00 33.99     0.085 A 
HETATM   16  CAH   D T1356     -10.902  -6.566  10.090  1.00 33.61     0.021 A 
HETATM   17  CAJ   D T1356     -10.485  -5.315   9.634  1.00 33.42     0.021 A 
BRANCH  15  18
HETATM   18  NAX   D T1356     -11.453  -8.828   9.693  1.00 34.41    -0.208 NA
HETATM   19  CBC   D T1356     -12.662  -9.338   9.358  1.00 37.04     0.279 C 
HETATM   20  OAB   D T1356     -13.466  -8.804   8.588  1.00 38.15    -0.265 OA
BRANCH  19  21
HETATM   21  CBF   D T1356     -12.966 -10.561   9.964  1.00 37.03     0.058 A 
HETATM   22  CAF   D T1356     -11.938 -11.402  10.392  1.00 38.06     0.005 A 
HETATM   23  CAD   D T1356     -12.237 -12.624  10.988  1.00 38.28     0.000 A 
HETATM   24  CAC   D T1356     -13.565 -13.014  11.158  1.00 38.02     0.000 A 
HETATM   25  CAE   D T1356     -14.592 -12.174  10.738  1.00 37.90     0.000 A 
HETATM   26  CAG   D T1356     -14.293 -10.955  10.135  1.00 37.23     0.005 A 
ENDBRANCH  19  21
ENDBRANCH  15  18
ENDBRANCH  11  12
ENDBRANCH  10  11
BRANCH   3  27
HETATM   27  OAZ   D T1356      -5.354  -6.169   7.264  1.00 30.66    -0.326 OA
HETATM   28  CAA   D T1356      -6.250  -7.284   7.257  1.00 33.36     0.181 C 
ENDBRANCH   3  27
BRANCH   1  29
HETATM   29  OBB   D T1356      -3.548  -4.728   8.665  1.00 30.55    -0.329 OA
BRANCH  29  30
HETATM   30  CAP   D T1356      -2.507  -3.873   9.192  1.00 33.72     0.151 C 
BRANCH  30  31
HETATM   31  CAO   D T1356      -1.138  -4.538   8.957  1.00 37.07     0.068 C 
BRANCH  31  32
HETATM   32  CAS   D T1356      -0.713  -5.262  10.242  1.00 39.71     0.253 C 
BRANCH  32  33
HETATM   33  NBL   D T1356      -0.616  -4.466  11.488  1.00 41.70     0.142 N 
HETATM   34  CAT   D T1356       0.067  -3.158  11.343  1.00 43.12     0.282 C 
HETATM   35  CAQ   D T1356      -0.013  -2.371  12.667  1.00 43.52     0.178 C 
HETATM   36  OBA   D T1356      -0.819  -3.110  13.652  1.00 44.22    -0.350 OA
HETATM   37  CAR   D T1356      -0.304  -4.456  13.937  1.00 43.52     0.178 C 
HETATM   38  CAU   D T1356      -0.037  -5.219  12.623  1.00 42.73     0.282 C 
ENDBRANCH  32  33
ENDBRANCH  31  32
ENDBRANCH  30  31
ENDBRANCH  29  30
ENDBRANCH   1  29
TORSDOF 10
ENDMDL
MODEL 3
REMARK VINA RESULT:    -7.547      1.364      2.753
REMARK INTER + INTRA:         -13.120
REMARK INTER:                 -12.098
REMARK INTRA:                  -1.022
REMARK UNBOUND:                -1.162
REMARK  10 active torsions:
REMARK  status: ('A' for Active; 'I' for Inactive)
REMARK    1  A    between atoms: NBL_6  and  CAS_7 
REMARK    2  A    between atoms: CAS_7  and  CAO_8 
REMARK    3  A    between atoms: CAO_8  and  CAP_9 
REMARK    4  A    between atoms: CAP_9  and  OBB_10 
REMARK    5  A    between atoms: OBB_10  and  CBH_11 
REMARK    6  A    between atoms: CBG_13  and  OAZ_14 
REMARK    7  A    between atoms: C6_22  and  NAY_23 
REMARK    8  A    between atoms: NAY_23  and  CBE_24 
REMARK    9  A    between atoms: CBD_29  and  NAX_30 
REMARK       I    between atoms: NAX_30  and  CBC_31 
REMARK   10  A    between atoms: CBC_31  and  CBF_33 
ROOT
HETATM    1  CBH   D T1356      -6.309  -2.540   8.729  1.00 30.53     0.118 A 
HETATM    2  CAM   D T1356      -5.641  -3.753   8.529  1.00 29.88     0.045 A 
HETATM    3  CBG   D T1356      -7.705  -2.482   8.543  1.00 30.48     0.117 A 
HETATM    4  CAN   D T1356      -8.417  -3.616   8.153  1.00 29.67     0.031 A 
HETATM    5  C5    D T1356      -7.754  -4.831   7.957  1.00 29.79     0.056 A 
HETATM    6  C4    D T1356      -6.363  -4.891   8.148  1.00 29.99     0.088 A 
HETATM    7  N3    D T1356      -5.708  -6.049   7.963  1.00 29.16    -0.224 NA
HETATM    8  C2    D T1356      -6.398  -7.205   7.577  1.00 30.02     0.200 A 
HETATM    9  N1    D T1356      -7.789  -7.149   7.392  1.00 29.74    -0.205 NA
HETATM   10  C6    D T1356      -8.450  -5.991   7.574  1.00 29.94     0.166 A 
ENDROOT
BRANCH  10  11
HETATM   11  NAY   D T1356      -9.792  -5.883   7.394  1.00 31.31    -0.227 NA
BRANCH  11  12
HETATM   12  CBE   D T1356     -10.637  -6.842   7.862  1.00 32.67     0.083 A 
HETATM   13  CAK   D T1356     -11.535  -7.451   6.983  1.00 33.73     0.021 A 
HETATM   14  CAI   D T1356     -12.410  -8.447   7.427  1.00 34.14     0.021 A 
HETATM   15  CBD   D T1356     -12.388  -8.870   8.764  1.00 33.99     0.085 A 
HETATM   16  CAH   D T1356     -11.494  -8.261   9.643  1.00 33.61     0.021 A 
HETATM   17  CAJ   D T1356     -10.624  -7.266   9.195  1.00 33.42     0.021 A 
BRANCH  15  18
HETATM   18  NAX   D T1356     -13.232  -9.811   9.252  1.00 34.41    -0.208 NA
HETATM   19  CBC   D T1356     -12.790 -11.021   9.674  1.00 37.04     0.279 C 
HETATM   20  OAB   D T1356     -11.608 -11.380   9.676  1.00 38.15    -0.265 OA
BRANCH  19  21
HETATM   21  CBF   D T1356     -13.793 -11.882  10.126  1.00 37.03     0.058 A 
HETATM   22  CAF   D T1356     -13.633 -12.567  11.332  1.00 38.06     0.005 A 
HETATM   23  CAD   D T1356     -14.627 -13.432  11.782  1.00 38.28     0.000 A 
HETATM   24  CAC   D T1356     -15.785 -13.621  11.028  1.00 38.02     0.000 A 
HETATM   25  CAE   D T1356     -15.949 -12.934   9.828  1.00 37.90     0.000 A 
HETATM   26  CAG   D T1356     -14.952 -12.075   9.375  1.00 37.23     0.005 A 
ENDBRANCH  19  21
ENDBRANCH  15  18
ENDBRANCH  11  12
ENDBRANCH  10  11
BRANCH   3  27
HETATM   27  OAZ   D T1356      -8.359  -1.284   8.717  1.00 30.66    -0.326 OA
HETATM   28  CAA   D T1356      -9.689  -1.347   9.238  1.00 33.36     0.181 C 
ENDBRANCH   3  27
BRANCH   1  29
HETATM   29  OBB   D T1356      -5.686  -1.375   9.103  1.00 30.55    -0.329 OA
BRANCH  29  30
HETATM   30  CAP   D T1356      -4.683  -0.798   8.234  1.00 33.72     0.151 C 
BRANCH  30  31
HETATM   31  CAO   D T1356      -3.296  -0.960   8.883  1.00 37.07     0.068 C 
BRANCH  31  32
HETATM   32  CAS   D T1356      -2.680  -2.284   8.408  1.00 39.71     0.253 C 
BRANCH  32  33
HETATM   33  NBL   D T1356      -1.812  -3.025   9.355  1.00 41.70     0.142 N 
HETATM   34  CAT   D T1356      -0.917  -2.177  10.177  1.00 43.12     0.282 C 
HETATM   35  CAQ   D T1356      -0.167  -3.046  11.208  1.00 43.52     0.178 C 
HETATM   36  OBA   D T1356      -0.630  -4.440  11.132  1.00 44.22    -0.350 OA
HETATM   37  CAR   D T1356      -0.460  -5.041   9.802  1.00 43.52     0.178 C 
HETATM   38  CAU   D T1356      -1.038  -4.112   8.714  1.00 42.73     0.282 C 
ENDBRANCH  32  33
ENDBRANCH  31  32
ENDBRANCH  30  31
ENDBRANCH  29  30
ENDBRANCH   1  29
TORSDOF 10
ENDMDL
MODEL 4
REMARK VINA RESULT:    -7.455      2.461      3.698
REMARK INTER + INTRA:         -12.974
REMARK INTER:                 -11.223
REMARK INTRA:                  -1.752
REMARK UNBOUND:                -1.162
REMARK  10 active torsions:
REMARK  status: ('A' for Active; 'I' for Inactive)
REMARK    1  A    between atoms: NBL_6  and  CAS_7 
REMARK    2  A    between atoms: CAS_7  and  CAO_8 
REMARK    3  A    between atoms: CAO_8  and  CAP_9 
REMARK    4  A    between atoms: CAP_9  and  OBB_10 
REMARK    5  A    between atoms: OBB_10  and  CBH_11 
REMARK    6  A    between atoms: CBG_13  and  OAZ_14 
REMARK    7  A    between atoms: C6_22  and  NAY_23 
REMARK    8  A    between atoms: NAY_23  and  CBE_24 
REMARK    9  A    between atoms: CBD_29  and  NAX_30 
REMARK       I    between atoms: NAX_30  and  CBC_31 
REMARK   10  A    between atoms: CBC_31  and  CBF_33 
ROOT
HETATM    1  CBH   D T1356      -5.046  -5.549   8.218  1.00 30.53     0.118 A 
HETATM    2  CAM   D T1356      -5.661  -4.489   8.894  1.00 29.88     0.045 A 
HETATM    3  CBG   D T1356      -5.826  -6.393   7.402  1.00 30.48     0.117 A 
HETATM    4  CAN   D T1356      -7.200  -6.186   7.275  1.00 29.67     0.031 A 
HETATM    5  C5    D T1356      -7.817  -5.125   7.945  1.00 29.79     0.056 A 
HETATM    6  C4    D T1356      -7.039  -4.279   8.754  1.00 29.99     0.088 A 
HETATM    7  N3    D T1356      -7.614  -3.256   9.407  1.00 29.16    -0.224 NA
HETATM    8  C2    D T1356      -8.989  -3.021   9.292  1.00 30.02     0.200 A 
HETATM    9  N1    D T1356      -9.769  -3.860   8.479  1.00 29.74    -0.205 NA
HETATM   10  C6    D T1356      -9.197  -4.888   7.825  1.00 29.94     0.166 A 
ENDROOT
BRANCH  10  11
HETATM   11  NAY   D T1356      -9.910  -5.736   7.037  1.00 31.31    -0.227 NA
BRANCH  11  12
HETATM   12  CBE   D T1356     -10.704  -6.695   7.587  1.00 32.67     0.083 A 
HETATM   13  CAK   D T1356     -10.651  -6.921   8.964  1.00 33.73     0.021 A 
HETATM   14  CAI   D T1356     -11.459  -7.892   9.563  1.00 34.14     0.021 A 
HETATM   15  CBD   D T1356     -12.357  -8.645   8.793  1.00 33.99     0.085 A 
HETATM   16  CAH   D T1356     -12.409  -8.422   7.418  1.00 33.61     0.021 A 
HETATM   17  CAJ   D T1356     -11.599  -7.453   6.825  1.00 33.42     0.021 A 
BRANCH  15  18
HETATM   18  NAX   D T1356     -13.144  -9.616   9.319  1.00 34.41    -0.208 NA
HETATM   19  CBC   D T1356     -12.647 -10.825   9.676  1.00 37.04     0.279 C 
HETATM   20  OAB   D T1356     -11.462 -11.159   9.581  1.00 38.15    -0.265 OA
BRANCH  19  21
HETATM   21  CBF   D T1356     -13.596 -11.719  10.180  1.00 37.03     0.058 A 
HETATM   22  CAF   D T1356     -14.897 -11.713   9.675  1.00 38.06     0.005 A 
HETATM   23  CAD   D T1356     -15.848 -12.596  10.180  1.00 38.28     0.000 A 
HETATM   24  CAC   D T1356     -15.504 -13.488  11.194  1.00 38.02     0.000 A 
HETATM   25  CAE   D T1356     -14.206 -13.501  11.695  1.00 37.90     0.000 A 
HETATM   26  CAG   D T1356     -13.258 -12.612  11.196  1.00 37.23     0.005 A 
ENDBRANCH  19  21
ENDBRANCH  15  18
ENDBRANCH  11  12
ENDBRANCH  10  11
BRANCH   3  27
HETATM   27  OAZ   D T1356      -5.226  -7.449   6.756  1.00 30.66    -0.326 OA
HETATM   28  CAA   D T1356      -5.746  -8.752   7.033  1.00 33.36     0.181 C 
ENDBRANCH   3  27
BRANCH   1  29
HETATM   29  OBB   D T1356      -3.705  -5.831   8.296  1.00 30.55    -0.329 OA
BRANCH  29  30
HETATM   30  CAP   D T1356      -3.143  -6.260   9.559  1.00 33.72     0.151 C 
BRANCH  30  31
HETATM   31  CAO   D T1356      -3.239  -7.793   9.661  1.00 37.07     0.068 C 
BRANCH  31  32
HETATM   32  CAS   D T1356      -4.168  -8.153  10.829  1.00 39.71     0.253 C 
BRANCH  32  33
HETATM   33  NBL   D T1356      -5.005  -9.370  10.700  1.00 41.70     0.142 N 
HETATM   34  CAT   D T1356      -5.500  -9.927  11.981  1.00 43.12     0.282 C 
HETATM   35  CAQ   D T1356      -6.461 -11.103  11.710  1.00 43.52     0.178 C 
HETATM   36  OBA   D T1356      -6.673 -11.264  10.263  1.00 44.22    -0.350 OA
HETATM   37  CAR   D T1356      -5.430 -11.491   9.511  1.00 43.52     0.178 C 
HETATM   38  CAU   D T1356      -4.371 -10.436   9.892  1.00 42.73     0.282 C 
ENDBRANCH  32  33
ENDBRANCH  31  32
ENDBRANCH  30  31
ENDBRANCH  29  30
ENDBRANCH   1  29
TORSDOF 10
ENDMDL
MODEL 5
REMARK VINA RESULT:    -7.444      4.910      8.503
REMARK INTER + INTRA:         -12.957
REMARK INTER:                 -10.631
REMARK INTRA:                  -2.326
REMARK UNBOUND:                -1.162
REMARK  10 active torsions:
REMARK  status: ('A' for Active; 'I' for Inactive)
REMARK    1  A    between atoms: NBL_6  and  CAS_7 
REMARK    2  A    between atoms: CAS_7  and  CAO_8 
REMARK    3  A    between atoms: CAO_8  and  CAP_9 
REMARK    4  A    between atoms: CAP_9  and  OBB_10 
REMARK    5  A    between atoms: OBB_10  and  CBH_11 
REMARK    6  A    between atoms: CBG_13  and  OAZ_14 
REMARK    7  A    between atoms: C6_22  and  NAY_23 
REMARK    8  A    between atoms: NAY_23  and  CBE_24 
REMARK    9  A    between atoms: CBD_29  and  NAX_30 
REMARK       I    between atoms: NAX_30  and  CBC_31 
REMARK   10  A    between atoms: CBC_31  and  CBF_33 
ROOT
HETATM    1  CBH   D T1356      -2.579  -9.977  10.000  1.00 30.53     0.118 A 
HETATM    2  CAM   D T1356      -3.353 -10.322   8.886  1.00 29.88     0.045 A 
HETATM    3  CBG   D T1356      -2.506  -8.627  10.399  1.00 30.48     0.117 A 
HETATM    4  CAN   D T1356      -3.188  -7.639   9.689  1.00 29.67     0.031 A 
HETATM    5  C5    D T1356      -3.966  -7.981   8.578  1.00 29.79     0.056 A 
HETATM    6  C4    D T1356      -4.044  -9.328   8.183  1.00 29.99     0.088 A 
HETATM    7  N3    D T1356      -4.785  -9.675   7.118  1.00 29.16    -0.224 NA
HETATM    8  C2    D T1356      -5.485  -8.705   6.391  1.00 30.02     0.200 A 
HETATM    9  N1    D T1356      -5.415  -7.359   6.787  1.00 29.74    -0.205 NA
HETATM   10  C6    D T1356      -4.672  -7.006   7.852  1.00 29.94     0.166 A 
ENDROOT
BRANCH  10  11
HETATM   11  NAY   D T1356      -4.561  -5.717   8.266  1.00 31.31    -0.227 NA
BRANCH  11  12
HETATM   12  CBE   D T1356      -5.669  -4.976   8.542  1.00 32.67     0.083 A 
HETATM   13  CAK   D T1356      -6.359  -5.194   9.737  1.00 33.73     0.021 A 
HETATM   14  CAI   D T1356      -7.494  -4.445  10.056  1.00 34.14     0.021 A 
HETATM   15  CBD   D T1356      -7.953  -3.441   9.190  1.00 33.99     0.085 A 
HETATM   16  CAH   D T1356      -7.267  -3.224   7.996  1.00 33.61     0.021 A 
HETATM   17  CAJ   D T1356      -6.134  -3.976   7.681  1.00 33.42     0.021 A 
BRANCH  15  18
HETATM   18  NAX   D T1356      -9.063  -2.704   9.439  1.00 34.41    -0.208 NA
HETATM   19  CBC   D T1356     -10.300  -3.133   9.090  1.00 37.04     0.279 C 
HETATM   20  OAB   D T1356     -10.547  -4.212   8.542  1.00 38.15    -0.265 OA
BRANCH  19  21
HETATM   21  CBF   D T1356     -11.333  -2.243   9.398  1.00 37.03     0.058 A 
HETATM   22  CAF   D T1356     -11.059  -1.079  10.117  1.00 38.06     0.005 A 
HETATM   23  CAD   D T1356     -12.087  -0.194  10.433  1.00 38.28     0.000 A 
HETATM   24  CAC   D T1356     -13.394  -0.468  10.033  1.00 38.02     0.000 A 
HETATM   25  CAE   D T1356     -13.669  -1.625   9.310  1.00 37.90     0.000 A 
HETATM   26  CAG   D T1356     -12.642  -2.514   9.002  1.00 37.23     0.005 A 
ENDBRANCH  19  21
ENDBRANCH  15  18
ENDBRANCH  11  12
ENDBRANCH  10  11
BRANCH   3  27
HETATM   27  OAZ   D T1356      -1.726  -8.285  11.480  1.00 30.66    -0.326 OA
HETATM   28  CAA   D T1356      -2.414  -7.956  12.690  1.00 33.36     0.181 C 
ENDBRANCH   3  27
BRANCH   1  29
HETATM   29  OBB   D T1356      -1.868 -10.883  10.748  1.00 30.55    -0.329 OA
BRANCH  29  30
HETATM   30  CAP   D T1356      -2.564 -11.982  11.381  1.00 33.72     0.151 C 
BRANCH  30  31
HETATM   31  CAO   D T1356      -2.748 -11.671  12.877  1.00 37.07     0.068 C 
BRANCH  31  32
HETATM   32  CAS   D T1356      -4.209 -11.266  13.122  1.00 39.71     0.253 C 
BRANCH  32  33
HETATM   33  NBL   D T1356      -5.177 -11.459  12.016  1.00 41.70     0.142 N 
HETATM   34  CAT   D T1356      -5.888 -10.232  11.586  1.00 43.12     0.282 C 
HETATM   35  CAQ   D T1356      -6.762 -10.533  10.350  1.00 43.52     0.178 C 
HETATM   36  OBA   D T1356      -6.560 -11.922   9.910  1.00 44.22    -0.350 OA
HETATM   37  CAR   D T1356      -6.862 -12.915  10.951  1.00 43.52     0.178 C 
HETATM   38  CAU   D T1356      -6.148 -12.548  12.268  1.00 42.73     0.282 C 
ENDBRANCH  32  33
ENDBRANCH  31  32
ENDBRANCH  30  31
ENDBRANCH  29  30
ENDBRANCH   1  29
TORSDOF 10
ENDMDL
MODEL 6
REMARK VINA RESULT:    -7.355      2.022      2.843
REMARK INTER + INTRA:         -12.816
REMARK INTER:                 -11.851
REMARK INTRA:                  -0.965
REMARK UNBOUND:                -1.162
REMARK  10 active torsions:
REMARK  status: ('A' for Active; 'I' for Inactive)
REMARK    1  A    between atoms: NBL_6  and  CAS_7 
REMARK    2  A    between atoms: CAS_7  and  CAO_8 
REMARK    3  A    between atoms: CAO_8  and  CAP_9 
REMARK    4  A    between atoms: CAP_9  and  OBB_10 
REMARK    5  A    between atoms: OBB_10  and  CBH_11 
REMARK    6  A    between atoms: CBG_13  and  OAZ_14 
REMARK    7  A    between atoms: C6_22  and  NAY_23 
REMARK    8  A    between atoms: NAY_23  and  CBE_24 
REMARK    9  A    between atoms: CBD_29  and  NAX_30 
REMARK       I    between atoms: NAX_30  and  CBC_31 
REMARK   10  A    between atoms: CBC_31  and  CBF_33 
ROOT
HETATM    1  CBH   D T1356      -4.845  -4.811   8.435  1.00 30.53     0.118 A 
HETATM    2  CAM   D T1356      -5.138  -3.613   9.095  1.00 29.88     0.045 A 
HETATM    3  CBG   D T1356      -5.873  -5.494   7.753  1.00 30.48     0.117 A 
HETATM    4  CAN   D T1356      -7.174  -4.990   7.743  1.00 29.67     0.031 A 
HETATM    5  C5    D T1356      -7.470  -3.791   8.397  1.00 29.79     0.056 A 
HETATM    6  C4    D T1356      -6.444  -3.106   9.072  1.00 29.99     0.088 A 
HETATM    7  N3    D T1356      -6.709  -1.954   9.709  1.00 29.16    -0.224 NA
HETATM    8  C2    D T1356      -8.004  -1.422   9.709  1.00 30.02     0.200 A 
HETATM    9  N1    D T1356      -9.030  -2.100   9.030  1.00 29.74    -0.205 NA
HETATM   10  C6    D T1356      -8.770  -3.256   8.393  1.00 29.94     0.166 A 
ENDROOT
BRANCH  10  11
HETATM   11  NAY   D T1356      -9.730  -3.956   7.734  1.00 31.31    -0.227 NA
BRANCH  11  12
HETATM   12  CBE   D T1356     -10.167  -5.155   8.207  1.00 32.67     0.083 A 
HETATM   13  CAK   D T1356     -10.497  -5.279   9.558  1.00 33.73     0.021 A 
HETATM   14  CAI   D T1356     -10.958  -6.492  10.075  1.00 34.14     0.021 A 
HETATM   15  CBD   D T1356     -11.119  -7.608   9.240  1.00 33.99     0.085 A 
HETATM   16  CAH   D T1356     -10.788  -7.487   7.892  1.00 33.61     0.021 A 
HETATM   17  CAJ   D T1356     -10.326  -6.273   7.381  1.00 33.42     0.021 A 
BRANCH  15  18
HETATM   18  NAX   D T1356     -11.537  -8.814   9.696  1.00 34.41    -0.208 NA
HETATM   19  CBC   D T1356     -12.745  -9.327   9.360  1.00 37.04     0.279 C 
HETATM   20  OAB   D T1356     -13.564  -8.780   8.614  1.00 38.15    -0.265 OA
BRANCH  19  21
HETATM   21  CBF   D T1356     -13.030 -10.570   9.933  1.00 37.03     0.058 A 
HETATM   22  CAF   D T1356     -14.355 -10.949  10.155  1.00 38.06     0.005 A 
HETATM   23  CAD   D T1356     -14.642 -12.182  10.734  1.00 38.28     0.000 A 
HETATM   24  CAC   D T1356     -13.608 -13.043  11.096  1.00 38.02     0.000 A 
HETATM   25  CAE   D T1356     -12.286 -12.671  10.870  1.00 37.90     0.000 A 
HETATM   26  CAG   D T1356     -11.998 -11.434  10.299  1.00 37.23     0.005 A 
ENDBRANCH  19  21
ENDBRANCH  15  18
ENDBRANCH  11  12
ENDBRANCH  10  11
BRANCH   3  27
HETATM   27  OAZ   D T1356      -5.589  -6.684   7.124  1.00 30.66    -0.326 OA
HETATM   28  CAA   D T1356      -5.843  -7.880   7.865  1.00 33.36     0.181 C 
ENDBRANCH   3  27
BRANCH   1  29
HETATM   29  OBB   D T1356      -3.597  -5.383   8.404  1.00 30.55    -0.329 OA
BRANCH  29  30
HETATM   30  CAP   D T1356      -2.491  -4.707   9.047  1.00 33.72     0.151 C 
BRANCH  30  31
HETATM   31  CAO   D T1356      -1.371  -5.724   9.330  1.00 37.07     0.068 C 
BRANCH  31  32
HETATM   32  CAS   D T1356      -1.991  -7.125   9.439  1.00 39.71     0.253 C 
BRANCH  32  33
HETATM   33  NBL   D T1356      -2.506  -7.554  10.761  1.00 41.70     0.142 N 
HETATM   34  CAT   D T1356      -1.465  -7.851  11.772  1.00 43.12     0.282 C 
HETATM   35  CAQ   D T1356      -2.122  -8.156  13.134  1.00 43.52     0.178 C 
HETATM   36  OBA   D T1356      -3.579  -7.972  13.049  1.00 44.22    -0.350 OA
HETATM   37  CAR   D T1356      -4.215  -8.811  12.024  1.00 43.52     0.178 C 
HETATM   38  CAU   D T1356      -3.470  -8.674  10.680  1.00 42.73     0.282 C 
ENDBRANCH  32  33
ENDBRANCH  31  32
ENDBRANCH  30  31
ENDBRANCH  29  30
ENDBRANCH   1  29
TORSDOF 10
ENDMDL
MODEL 7
REMARK VINA RESULT:    -7.284      2.181     10.797
REMARK INTER + INTRA:         -12.704
REMARK INTER:                 -12.427
REMARK INTRA:                  -0.276
REMARK UNBOUND:                -1.162
REMARK  10 active torsions:
REMARK  status: ('A' for Active; 'I' for Inactive)
REMARK    1  A    between atoms: NBL_6  and  CAS_7 
REMARK    2  A    between atoms: CAS_7  and  CAO_8 
REMARK    3  A    between atoms: CAO_8  and  CAP_9 
REMARK    4  A    between atoms: CAP_9  and  OBB_10 
REMARK    5  A    between atoms: OBB_10  and  CBH_11 
REMARK    6  A    between atoms: CBG_13  and  OAZ_14 
REMARK    7  A    between atoms: C6_22  and  NAY_23 
REMARK    8  A    between atoms: NAY_23  and  CBE_24 
REMARK    9  A    between atoms: CBD_29  and  NAX_30 
REMARK       I    between atoms: NAX_30  and  CBC_31 
REMARK   10  A    between atoms: CBC_31  and  CBF_33 
ROOT
HETATM    1  CBH   D T1356     -11.936  -5.767   8.474  1.00 30.53     0.118 A 
HETATM    2  CAM   D T1356     -12.746  -4.907   9.225  1.00 29.88     0.045 A 
HETATM    3  CBG   D T1356     -10.765  -5.263   7.872  1.00 30.48     0.117 A 
HETATM    4  CAN   D T1356     -10.418  -3.919   8.012  1.00 29.67     0.031 A 
HETATM    5  C5    D T1356     -11.221  -3.058   8.765  1.00 29.79     0.056 A 
HETATM    6  C4    D T1356     -12.386  -3.561   9.370  1.00 29.99     0.088 A 
HETATM    7  N3    D T1356     -13.172  -2.749  10.096  1.00 29.16    -0.224 NA
HETATM    8  C2    D T1356     -12.844  -1.398  10.257  1.00 30.02     0.200 A 
HETATM    9  N1    D T1356     -11.677  -0.893   9.659  1.00 29.74    -0.205 NA
HETATM   10  C6    D T1356     -10.888  -1.702   8.929  1.00 29.94     0.166 A 
ENDROOT
BRANCH  10  11
HETATM   11  NAY   D T1356      -9.757  -1.259   8.320  1.00 31.31    -0.227 NA
BRANCH  11  12
HETATM   12  CBE   D T1356      -8.556  -1.851   8.565  1.00 32.67     0.083 A 
HETATM   13  CAK   D T1356      -7.861  -2.450   7.512  1.00 33.73     0.021 A 
HETATM   14  CAI   D T1356      -6.621  -3.058   7.727  1.00 34.14     0.021 A 
HETATM   15  CBD   D T1356      -6.039  -3.059   9.003  1.00 33.99     0.085 A 
HETATM   16  CAH   D T1356      -6.733  -2.464  10.055  1.00 33.61     0.021 A 
HETATM   17  CAJ   D T1356      -7.972  -1.859   9.835  1.00 33.42     0.021 A 
BRANCH  15  18
HETATM   18  NAX   D T1356      -4.852  -3.657   9.270  1.00 34.41    -0.208 NA
HETATM   19  CBC   D T1356      -3.672  -3.109   8.891  1.00 37.04     0.279 C 
HETATM   20  OAB   D T1356      -3.550  -2.034   8.297  1.00 38.15    -0.265 OA
BRANCH  19  21
HETATM   21  CBF   D T1356      -2.545  -3.865   9.224  1.00 37.03     0.058 A 
HETATM   22  CAF   D T1356      -2.551  -5.248   9.033  1.00 38.06     0.005 A 
HETATM   23  CAD   D T1356      -1.434  -6.006   9.371  1.00 38.28     0.000 A 
HETATM   24  CAC   D T1356      -0.304  -5.387   9.904  1.00 38.02     0.000 A 
HETATM   25  CAE   D T1356      -0.292  -4.008  10.089  1.00 37.90     0.000 A 
HETATM   26  CAG   D T1356      -1.413  -3.251   9.759  1.00 37.23     0.005 A 
ENDBRANCH  19  21
ENDBRANCH  15  18
ENDBRANCH  11  12
ENDBRANCH  10  11
BRANCH   3  27
HETATM   27  OAZ   D T1356      -9.982  -6.103   7.115  1.00 30.66    -0.326 OA
HETATM   28  CAA   D T1356      -8.611  -6.226   7.502  1.00 33.36     0.181 C 
ENDBRANCH   3  27
BRANCH   1  29
HETATM   29  OBB   D T1356     -12.209  -7.098   8.278  1.00 30.55    -0.329 OA
BRANCH  29  30
HETATM   30  CAP   D T1356     -11.864  -8.052   9.309  1.00 33.72     0.151 C 
BRANCH  30  31
HETATM   31  CAO   D T1356     -12.947  -9.145   9.371  1.00 37.07     0.068 C 
BRANCH  31  32
HETATM   32  CAS   D T1356     -12.283 -10.479   9.740  1.00 39.71     0.253 C 
BRANCH  32  33
HETATM   33  NBL   D T1356     -13.161 -11.651   9.972  1.00 41.70     0.142 N 
HETATM   34  CAT   D T1356     -12.777 -12.876   9.232  1.00 43.12     0.282 C 
HETATM   35  CAQ   D T1356     -13.679 -14.054   9.656  1.00 43.52     0.178 C 
HETATM   36  OBA   D T1356     -14.591 -13.635  10.732  1.00 44.22    -0.350 OA
HETATM   37  CAR   D T1356     -15.445 -12.498  10.365  1.00 43.52     0.178 C 
HETATM   38  CAU   D T1356     -14.597 -11.359   9.763  1.00 42.73     0.282 C 
ENDBRANCH  32  33
ENDBRANCH  31  32
ENDBRANCH  30  31
ENDBRANCH  29  30
ENDBRANCH   1  29
TORSDOF 10
ENDMDL
MODEL 8
REMARK VINA RESULT:    -7.271      5.078      7.789
REMARK INTER + INTRA:         -12.684
REMARK INTER:                 -11.394
REMARK INTRA:                  -1.290
REMARK UNBOUND:                -1.162
REMARK  10 active torsions:
REMARK  status: ('A' for Active; 'I' for Inactive)
REMARK    1  A    between atoms: NBL_6  and  CAS_7 
REMARK    2  A    between atoms: CAS_7  and  CAO_8 
REMARK    3  A    between atoms: CAO_8  and  CAP_9 
REMARK    4  A    between atoms: CAP_9  and  OBB_10 
REMARK    5  A    between atoms: OBB_10  and  CBH_11 
REMARK    6  A    between atoms: CBG_13  and  OAZ_14 
REMARK    7  A    between atoms: C6_22  and  NAY_23 
REMARK    8  A    between atoms: NAY_23  and  CBE_24 
REMARK    9  A    between atoms: CBD_29  and  NAX_30 
REMARK       I    between atoms: NAX_30  and  CBC_31 
REMARK   10  A    between atoms: CBC_31  and  CBF_33 
ROOT
HETATM    1  CBH   D T1356      -1.792  -7.196  10.697  1.00 30.53     0.118 A 
HETATM    2  CAM   D T1356      -2.533  -8.382  10.657  1.00 29.88     0.045 A 
HETATM    3  CBG   D T1356      -2.137  -6.136   9.834  1.00 30.48     0.117 A 
HETATM    4  CAN   D T1356      -3.199  -6.267   8.939  1.00 29.67     0.031 A 
HETATM    5  C5    D T1356      -3.945  -7.448   8.899  1.00 29.79     0.056 A 
HETATM    6  C4    D T1356      -3.606  -8.503   9.764  1.00 29.99     0.088 A 
HETATM    7  N3    D T1356      -4.309  -9.647   9.740  1.00 29.16    -0.224 NA
HETATM    8  C2    D T1356      -5.384  -9.803   8.856  1.00 30.02     0.200 A 
HETATM    9  N1    D T1356      -5.731  -8.749   7.996  1.00 29.74    -0.205 NA
HETATM   10  C6    D T1356      -5.027  -7.602   8.015  1.00 29.94     0.166 A 
ENDROOT
BRANCH  10  11
HETATM   11  NAY   D T1356      -5.314  -6.558   7.193  1.00 31.31    -0.227 NA
BRANCH  11  12
HETATM   12  CBE   D T1356      -6.346  -5.716   7.471  1.00 32.67     0.083 A 
HETATM   13  CAK   D T1356      -7.654  -6.125   7.203  1.00 33.73     0.021 A 
HETATM   14  CAI   D T1356      -8.739  -5.289   7.486  1.00 34.14     0.021 A 
HETATM   15  CBD   D T1356      -8.535  -4.029   8.065  1.00 33.99     0.085 A 
HETATM   16  CAH   D T1356      -7.229  -3.618   8.331  1.00 33.61     0.021 A 
HETATM   17  CAJ   D T1356      -6.150  -4.456   8.045  1.00 33.42     0.021 A 
BRANCH  15  18
HETATM   18  NAX   D T1356      -9.548  -3.169   8.334  1.00 34.41    -0.208 NA
HETATM   19  CBC   D T1356     -10.426  -3.391   9.342  1.00 37.04     0.279 C 
HETATM   20  OAB   D T1356     -10.393  -4.357  10.110  1.00 38.15    -0.265 OA
BRANCH  19  21
HETATM   21  CBF   D T1356     -11.424  -2.420   9.469  1.00 37.03     0.058 A 
HETATM   22  CAF   D T1356     -11.115  -1.169  10.005  1.00 38.06     0.005 A 
HETATM   23  CAD   D T1356     -12.108  -0.202  10.140  1.00 38.28     0.000 A 
HETATM   24  CAC   D T1356     -13.415  -0.480   9.743  1.00 38.02     0.000 A 
HETATM   25  CAE   D T1356     -13.724  -1.724   9.201  1.00 37.90     0.000 A 
HETATM   26  CAG   D T1356     -12.733  -2.694   9.074  1.00 37.23     0.005 A 
ENDBRANCH  19  21
ENDBRANCH  15  18
ENDBRANCH  11  12
ENDBRANCH  10  11
BRANCH   3  27
HETATM   27  OAZ   D T1356      -1.394  -4.978   9.857  1.00 30.66    -0.326 OA
HETATM   28  CAA   D T1356      -0.858  -4.534   8.608  1.00 33.36     0.181 C 
ENDBRANCH   3  27
BRANCH   1  29
HETATM   29  OBB   D T1356      -0.727  -6.986  11.538  1.00 30.55    -0.329 OA
BRANCH  29  30
HETATM   30  CAP   D T1356      -0.548  -7.851  12.684  1.00 33.72     0.151 C 
BRANCH  30  31
HETATM   31  CAO   D T1356      -1.371  -7.303  13.864  1.00 37.07     0.068 C 
BRANCH  31  32
HETATM   32  CAS   D T1356      -1.393  -8.355  14.983  1.00 39.71     0.253 C 
BRANCH  32  33
HETATM   33  NBL   D T1356      -2.613  -9.184  15.132  1.00 41.70     0.142 N 
HETATM   34  CAT   D T1356      -2.378 -10.647  15.136  1.00 43.12     0.282 C 
HETATM   35  CAQ   D T1356      -3.696 -11.393  15.429  1.00 43.52     0.178 C 
HETATM   36  OBA   D T1356      -4.775 -10.431  15.708  1.00 44.22    -0.350 OA
HETATM   37  CAR   D T1356      -5.007  -9.480  14.612  1.00 43.52     0.178 C 
HETATM   38  CAU   D T1356      -3.677  -8.842  14.162  1.00 42.73     0.282 C 
ENDBRANCH  32  33
ENDBRANCH  31  32
ENDBRANCH  30  31
ENDBRANCH  29  30
ENDBRANCH   1  29
TORSDOF 10
ENDMDL
MODEL 9
REMARK VINA RESULT:    -7.233      5.130      8.890
REMARK INTER + INTRA:         -12.623
REMARK INTER:                 -11.443
REMARK INTRA:                  -1.180
REMARK UNBOUND:                -1.162
REMARK  10 active torsions:
REMARK  status: ('A' for Active; 'I' for Inactive)
REMARK    1  A    between atoms: NBL_6  and  CAS_7 
REMARK    2  A    between atoms: CAS_7  and  CAO_8 
REMARK    3  A    between atoms: CAO_8  and  CAP_9 
REMARK    4  A    between atoms: CAP_9  and  OBB_10 
REMARK    5  A    between atoms: OBB_10  and  CBH_11 
REMARK    6  A    between atoms: CBG_13  and  OAZ_14 
REMARK    7  A    between atoms: C6_22  and  NAY_23 
REMARK    8  A    between atoms: NAY_23  and  CBE_24 
REMARK    9  A    between atoms: CBD_29  and  NAX_30 
REMARK       I    between atoms: NAX_30  and  CBC_31 
REMARK   10  A    between atoms: CBC_31  and  CBF_33 
ROOT
HETATM    1  CBH   D T1356      -7.250  -3.123   8.761  1.00 30.53     0.118 A 
HETATM    2  CAM   D T1356      -7.998  -4.193   9.264  1.00 29.88     0.045 A 
HETATM    3  CBG   D T1356      -6.055  -3.385   8.059  1.00 30.48     0.117 A 
HETATM    4  CAN   D T1356      -5.613  -4.695   7.875  1.00 29.67     0.031 A 
HETATM    5  C5    D T1356      -6.360  -5.767   8.373  1.00 29.79     0.056 A 
HETATM    6  C4    D T1356      -7.554  -5.507   9.068  1.00 29.99     0.088 A 
HETATM    7  N3    D T1356      -8.284  -6.524   9.555  1.00 29.16    -0.224 NA
HETATM    8  C2    D T1356      -7.867  -7.848   9.379  1.00 30.02     0.200 A 
HETATM    9  N1    D T1356      -6.678  -8.112   8.680  1.00 29.74    -0.205 NA
HETATM   10  C6    D T1356      -5.941  -7.097   8.192  1.00 29.94     0.166 A 
ENDROOT
BRANCH  10  11
HETATM   11  NAY   D T1356      -4.777  -7.299   7.521  1.00 31.31    -0.227 NA
BRANCH  11  12
HETATM   12  CBE   D T1356      -4.492  -8.511   6.971  1.00 32.67     0.083 A 
HETATM   13  CAK   D T1356      -3.595  -9.363   7.620  1.00 33.73     0.021 A 
HETATM   14  CAI   D T1356      -3.287 -10.618   7.089  1.00 34.14     0.021 A 
HETATM   15  CBD   D T1356      -3.890 -11.057   5.901  1.00 33.99     0.085 A 
HETATM   16  CAH   D T1356      -4.783 -10.207   5.251  1.00 33.61     0.021 A 
HETATM   17  CAJ   D T1356      -5.086  -8.953   5.785  1.00 33.42     0.021 A 
BRANCH  15  18
HETATM   18  NAX   D T1356      -3.607 -12.253   5.330  1.00 34.41    -0.208 NA
HETATM   19  CBC   D T1356      -4.277 -13.383   5.663  1.00 37.04     0.279 C 
HETATM   20  OAB   D T1356      -5.199 -13.443   6.482  1.00 38.15    -0.265 OA
BRANCH  19  21
HETATM   21  CBF   D T1356      -3.845 -14.534   4.997  1.00 37.03     0.058 A 
HETATM   22  CAF   D T1356      -2.481 -14.819   4.911  1.00 38.06     0.005 A 
HETATM   23  CAD   D T1356      -2.046 -15.960   4.242  1.00 38.28     0.000 A 
HETATM   24  CAC   D T1356      -2.971 -16.821   3.653  1.00 38.02     0.000 A 
HETATM   25  CAE   D T1356      -4.332 -16.543   3.744  1.00 37.90     0.000 A 
HETATM   26  CAG   D T1356      -4.766 -15.398   4.406  1.00 37.23     0.005 A 
ENDBRANCH  19  21
ENDBRANCH  15  18
ENDBRANCH  11  12
ENDBRANCH  10  11
BRANCH   3  27
HETATM   27  OAZ   D T1356      -5.308  -2.332   7.584  1.00 30.66    -0.326 OA
HETATM   28  CAA   D T1356      -4.056  -2.088   8.231  1.00 33.36     0.181 C 
ENDBRANCH   3  27
BRANCH   1  29
HETATM   29  OBB   D T1356      -7.606  -1.805   8.905  1.00 30.55    -0.329 OA
BRANCH  29  30
HETATM   30  CAP   D T1356      -8.807  -1.472   9.639  1.00 33.72     0.151 C 
BRANCH  30  31
HETATM   31  CAO   D T1356     -10.022  -1.583   8.699  1.00 37.07     0.068 C 
BRANCH  31  32
HETATM   32  CAS   D T1356     -11.255  -1.968   9.529  1.00 39.71     0.253 C 
BRANCH  32  33
HETATM   33  NBL   D T1356     -11.941  -3.241   9.204  1.00 41.70     0.142 N 
HETATM   34  CAT   D T1356     -13.387  -3.273   9.525  1.00 43.12     0.282 C 
HETATM   35  CAQ   D T1356     -14.012  -4.590   9.022  1.00 43.52     0.178 C 
HETATM   36  OBA   D T1356     -13.010  -5.383   8.293  1.00 44.22    -0.350 OA
HETATM   37  CAR   D T1356     -11.822  -5.704   9.096  1.00 43.52     0.178 C 
HETATM   38  CAU   D T1356     -11.268  -4.432   9.770  1.00 42.73     0.282 C 
ENDBRANCH  32  33
ENDBRANCH  31  32
ENDBRANCH  30  31
ENDBRANCH  29  30
ENDBRANCH   1  29
TORSDOF 10
ENDMDL
