MODEL 1
REMARK VINA RESULT:    -8.899      0.000      0.000
REMARK INTER + INTRA:         -15.571
REMARK INTER:                 -14.102
REMARK INTRA:                  -1.469
REMARK UNBOUND:                -1.469
REMARK  10 active torsions:
REMARK  status: ('A' for Active; 'I' for Inactive)
REMARK    1  A    between atoms: NBL_6  and  CAS_7 
REMARK    2  A    between atoms: CAS_7  and  CAO_8 
REMARK    3  A    between atoms: CAO_8  and  CAP_9 
REMARK    4  A    between atoms: CAP_9  and  OBB_10 
REMARK    5  A    between atoms: OBB_10  and  CBH_11 
REMARK    6  A    between atoms: CBG_13  and  OAZ_14 
REMARK    7  A    between atoms: C6_22  and  NAY_23 
REMARK    8  A    between atoms: NAY_23  and  CBE_24 
REMARK    9  A    between atoms: CBD_29  and  NAX_30 
REMARK       I    between atoms: NAX_30  and  CBC_31 
REMARK   10  A    between atoms: CBC_31  and  CBF_33 
ROOT
HETATM    1  CBH   D T1356      -3.534   0.753  13.253  1.00 30.53     0.118 A 
HETATM    2  CAM   D T1356      -3.767   1.951  12.565  1.00 29.88     0.045 A 
HETATM    3  CBG   D T1356      -2.216   0.404  13.604  1.00 30.48     0.117 A 
HETATM    4  CAN   D T1356      -1.147   1.232  13.263  1.00 29.67     0.031 A 
HETATM    5  C5    D T1356      -1.375   2.431  12.580  1.00 29.79     0.056 A 
HETATM    6  C4    D T1356      -2.691   2.783  12.235  1.00 29.99     0.088 A 
HETATM    7  N3    D T1356      -2.929   3.929  11.576  1.00 29.16    -0.224 NA
HETATM    8  C2    D T1356      -1.877   4.783  11.228  1.00 30.02     0.200 A 
HETATM    9  N1    D T1356      -0.561   4.436  11.578  1.00 29.74    -0.205 NA
HETATM   10  C6    D T1356      -0.316   3.288  12.235  1.00 29.94     0.166 A 
ENDROOT
BRANCH  10  11
HETATM   11  NAY   D T1356       0.940   2.902  12.582  1.00 31.31    -0.227 NA
BRANCH  11  12
HETATM   12  CBE   D T1356       1.755   2.289  11.682  1.00 32.67     0.083 A 
HETATM   13  CAK   D T1356       1.198   1.461  10.705  1.00 33.73     0.021 A 
HETATM   14  CAI   D T1356       2.005   0.824   9.760  1.00 34.14     0.021 A 
HETATM   15  CBD   D T1356       3.395   1.022   9.759  1.00 33.99     0.085 A 
HETATM   16  CAH   D T1356       3.952   1.845  10.735  1.00 33.61     0.021 A 
HETATM   17  CAJ   D T1356       3.141   2.478  11.679  1.00 33.42     0.021 A 
BRANCH  15  18
HETATM   18  NAX   D T1356       4.224   0.407   8.881  1.00 34.41    -0.208 NA
HETATM   19  CBC   D T1356       4.728  -0.828   9.115  1.00 37.04     0.279 C 
HETATM   20  OAB   D T1356       4.483  -1.515  10.112  1.00 38.15    -0.265 OA
BRANCH  19  21
HETATM   21  CBF   D T1356       5.583  -1.307   8.119  1.00 37.03     0.058 A 
HETATM   22  CAF   D T1356       5.102  -2.191   7.151  1.00 38.06     0.005 A 
HETATM   23  CAD   D T1356       5.953  -2.677   6.162  1.00 38.28     0.000 A 
HETATM   24  CAC   D T1356       7.291  -2.285   6.137  1.00 38.02     0.000 A 
HETATM   25  CAE   D T1356       7.772  -1.400   7.096  1.00 37.90     0.000 A 
HETATM   26  CAG   D T1356       6.922  -0.920   8.090  1.00 37.23     0.005 A 
ENDBRANCH  19  21
ENDBRANCH  15  18
ENDBRANCH  11  12
ENDBRANCH  10  11
BRANCH   3  27
HETATM   27  OAZ   D T1356      -1.986  -0.784  14.260  1.00 30.66    -0.326 OA
HETATM   28  CAA   D T1356      -0.643  -1.273  14.255  1.00 33.36     0.181 C 
ENDBRANCH   3  27
BRANCH   1  29
HETATM   29  OBB   D T1356      -4.527  -0.124  13.617  1.00 30.55    -0.329 OA
BRANCH  29  30
HETATM   30  CAP   D T1356      -5.683  -0.281  12.765  1.00 33.72     0.151 C 
BRANCH  30  31
HETATM   31  CAO   D T1356      -6.953   0.066  13.564  1.00 37.07     0.068 C 
BRANCH  31  32
HETATM   32  CAS   D T1356      -7.940   0.789  12.636  1.00 39.71     0.253 C 
BRANCH  32  33
HETATM   33  NBL   D T1356      -7.453   1.976  11.893  1.00 41.70     0.142 N 
HETATM   34  CAT   D T1356      -7.332   3.211  12.701  1.00 43.12     0.282 C 
HETATM   35  CAQ   D T1356      -6.692   4.334  11.857  1.00 43.52     0.178 C 
HETATM   36  OBA   D T1356      -6.309   3.819  10.532  1.00 44.22    -0.350 OA
HETATM   37  CAR   D T1356      -7.435   3.249   9.780  1.00 43.52     0.178 C 
HETATM   38  CAU   D T1356      -8.216   2.249  10.656  1.00 42.73     0.282 C 
ENDBRANCH  32  33
ENDBRANCH  31  32
ENDBRANCH  30  31
ENDBRANCH  29  30
ENDBRANCH   1  29
TORSDOF 10
ENDMDL
MODEL 2
REMARK VINA RESULT:    -8.595      2.466     11.178
REMARK INTER + INTRA:         -15.088
REMARK INTER:                 -13.610
REMARK INTRA:                  -1.478
REMARK UNBOUND:                -1.469
REMARK  10 active torsions:
REMARK  status: ('A' for Active; 'I' for Inactive)
REMARK    1  A    between atoms: NBL_6  and  CAS_7 
REMARK    2  A    between atoms: CAS_7  and  CAO_8 
REMARK    3  A    between atoms: CAO_8  and  CAP_9 
REMARK    4  A    between atoms: CAP_9  and  OBB_10 
REMARK    5  A    between atoms: OBB_10  and  CBH_11 
REMARK    6  A    between atoms: CBG_13  and  OAZ_14 
REMARK    7  A    between atoms: C6_22  and  NAY_23 
REMARK    8  A    between atoms: NAY_23  and  CBE_24 
REMARK    9  A    between atoms: CBD_29  and  NAX_30 
REMARK       I    between atoms: NAX_30  and  CBC_31 
REMARK   10  A    between atoms: CBC_31  and  CBF_33 
ROOT
HETATM    1  CBH   D T1356       5.231   0.544   9.301  1.00 30.53     0.118 A 
HETATM    2  CAM   D T1356       5.141  -0.388  10.343  1.00 29.88     0.045 A 
HETATM    3  CBG   D T1356       4.444   1.711   9.350  1.00 30.48     0.117 A 
HETATM    4  CAN   D T1356       3.575   1.938  10.416  1.00 29.67     0.031 A 
HETATM    5  C5    D T1356       3.484   1.012  11.460  1.00 29.79     0.056 A 
HETATM    6  C4    D T1356       4.273  -0.150  11.416  1.00 29.99     0.088 A 
HETATM    7  N3    D T1356       4.199  -1.052  12.408  1.00 29.16    -0.224 NA
HETATM    8  C2    D T1356       3.340  -0.847  13.494  1.00 30.02     0.200 A 
HETATM    9  N1    D T1356       2.556   0.317  13.544  1.00 29.74    -0.205 NA
HETATM   10  C6    D T1356       2.624   1.222  12.551  1.00 29.94     0.166 A 
ENDROOT
BRANCH  10  11
HETATM   11  NAY   D T1356       1.875   2.356  12.547  1.00 31.31    -0.227 NA
BRANCH  11  12
HETATM   12  CBE   D T1356       0.527   2.301  12.372  1.00 32.67     0.083 A 
HETATM   13  CAK   D T1356      -0.316   2.726  13.401  1.00 33.73     0.021 A 
HETATM   14  CAI   D T1356      -1.705   2.691  13.251  1.00 34.14     0.021 A 
HETATM   15  CBD   D T1356      -2.281   2.248  12.051  1.00 33.99     0.085 A 
HETATM   16  CAH   D T1356      -1.442   1.820  11.025  1.00 33.61     0.021 A 
HETATM   17  CAJ   D T1356      -0.055   1.854  11.181  1.00 33.42     0.021 A 
BRANCH  15  18
HETATM   18  NAX   D T1356      -3.622   2.169  11.865  1.00 34.41    -0.208 NA
HETATM   19  CBC   D T1356      -4.330   3.185  11.315  1.00 37.04     0.279 C 
HETATM   20  OAB   D T1356      -3.847   4.252  10.921  1.00 38.15    -0.265 OA
BRANCH  19  21
HETATM   21  CBF   D T1356      -5.704   2.949  11.214  1.00 37.03     0.058 A 
HETATM   22  CAF   D T1356      -6.359   2.210  12.200  1.00 38.06     0.005 A 
HETATM   23  CAD   D T1356      -7.726   1.965  12.098  1.00 38.28     0.000 A 
HETATM   24  CAC   D T1356      -8.445   2.454  11.008  1.00 38.02     0.000 A 
HETATM   25  CAE   D T1356      -7.795   3.195  10.026  1.00 37.90     0.000 A 
HETATM   26  CAG   D T1356      -6.426   3.433  10.124  1.00 37.23     0.005 A 
ENDBRANCH  19  21
ENDBRANCH  15  18
ENDBRANCH  11  12
ENDBRANCH  10  11
BRANCH   3  27
HETATM   27  OAZ   D T1356       4.517   2.616   8.315  1.00 30.66    -0.326 OA
HETATM   28  CAA   D T1356       4.066   3.945   8.588  1.00 33.36     0.181 C 
ENDBRANCH   3  27
BRANCH   1  29
HETATM   29  OBB   D T1356       6.052   0.394   8.210  1.00 30.55    -0.329 OA
BRANCH  29  30
HETATM   30  CAP   D T1356       6.682  -0.884   7.967  1.00 33.72     0.151 C 
BRANCH  30  31
HETATM   31  CAO   D T1356       6.087  -1.507   6.690  1.00 37.07     0.068 C 
BRANCH  31  32
HETATM   32  CAS   D T1356       5.010  -2.525   7.092  1.00 39.71     0.253 C 
BRANCH  32  33
HETATM   33  NBL   D T1356       5.400  -3.953   7.174  1.00 41.70     0.142 N 
HETATM   34  CAT   D T1356       4.352  -4.911   6.752  1.00 43.12     0.282 C 
HETATM   35  CAQ   D T1356       4.917  -6.347   6.753  1.00 43.52     0.178 C 
HETATM   36  OBA   D T1356       6.351  -6.329   7.082  1.00 44.22    -0.350 OA
HETATM   37  CAR   D T1356       6.643  -5.708   8.382  1.00 43.52     0.178 C 
HETATM   38  CAU   D T1356       5.942  -4.340   8.495  1.00 42.73     0.282 C 
ENDBRANCH  32  33
ENDBRANCH  31  32
ENDBRANCH  30  31
ENDBRANCH  29  30
ENDBRANCH   1  29
TORSDOF 10
ENDMDL
MODEL 3
REMARK VINA RESULT:    -8.559      1.943      3.411
REMARK INTER + INTRA:         -15.031
REMARK INTER:                 -13.672
REMARK INTRA:                  -1.359
REMARK UNBOUND:                -1.469
REMARK  10 active torsions:
REMARK  status: ('A' for Active; 'I' for Inactive)
REMARK    1  A    between atoms: NBL_6  and  CAS_7 
REMARK    2  A    between atoms: CAS_7  and  CAO_8 
REMARK    3  A    between atoms: CAO_8  and  CAP_9 
REMARK    4  A    between atoms: CAP_9  and  OBB_10 
REMARK    5  A    between atoms: OBB_10  and  CBH_11 
REMARK    6  A    between atoms: CBG_13  and  OAZ_14 
REMARK    7  A    between atoms: C6_22  and  NAY_23 
REMARK    8  A    between atoms: NAY_23  and  CBE_24 
REMARK    9  A    between atoms: CBD_29  and  NAX_30 
REMARK       I    between atoms: NAX_30  and  CBC_31 
REMARK   10  A    between atoms: CBC_31  and  CBF_33 
ROOT
HETATM    1  CBH   D T1356      -3.469   2.229  11.864  1.00 30.53     0.118 A 
HETATM    2  CAM   D T1356      -3.480   1.060  12.635  1.00 29.88     0.045 A 
HETATM    3  CBG   D T1356      -2.237   2.835  11.546  1.00 30.48     0.117 A 
HETATM    4  CAN   D T1356      -1.039   2.287  12.000  1.00 29.67     0.031 A 
HETATM    5  C5    D T1356      -1.044   1.118  12.768  1.00 29.79     0.056 A 
HETATM    6  C4    D T1356      -2.272   0.509  13.080  1.00 29.99     0.088 A 
HETATM    7  N3    D T1356      -2.297  -0.612  13.818  1.00 29.16    -0.224 NA
HETATM    8  C2    D T1356      -1.109  -1.188  14.281  1.00 30.02     0.200 A 
HETATM    9  N1    D T1356       0.120  -0.586  13.964  1.00 29.74    -0.205 NA
HETATM   10  C6    D T1356       0.151   0.540  13.229  1.00 29.94     0.166 A 
ENDROOT
BRANCH  10  11
HETATM   11  NAY   D T1356       1.313   1.168  12.908  1.00 31.31    -0.227 NA
BRANCH  11  12
HETATM   12  CBE   D T1356       2.161   0.636  11.986  1.00 32.67     0.083 A 
HETATM   13  CAK   D T1356       1.992   0.951  10.636  1.00 33.73     0.021 A 
HETATM   14  CAI   D T1356       2.849   0.429   9.665  1.00 34.14     0.021 A 
HETATM   15  CBD   D T1356       3.917  -0.406  10.030  1.00 33.99     0.085 A 
HETATM   16  CAH   D T1356       4.086  -0.723  11.377  1.00 33.61     0.021 A 
HETATM   17  CAJ   D T1356       3.224  -0.201  12.343  1.00 33.42     0.021 A 
BRANCH  15  18
HETATM   18  NAX   D T1356       4.761  -0.958   9.125  1.00 34.41    -0.208 NA
HETATM   19  CBC   D T1356       5.716  -0.230   8.498  1.00 37.04     0.279 C 
HETATM   20  OAB   D T1356       5.928   0.972   8.687  1.00 38.15    -0.265 OA
BRANCH  19  21
HETATM   21  CBF   D T1356       6.487  -0.949   7.580  1.00 37.03     0.058 A 
HETATM   22  CAF   D T1356       5.877  -1.873   6.729  1.00 38.06     0.005 A 
HETATM   23  CAD   D T1356       6.643  -2.597   5.819  1.00 38.28     0.000 A 
HETATM   24  CAC   D T1356       8.023  -2.406   5.758  1.00 38.02     0.000 A 
HETATM   25  CAE   D T1356       8.633  -1.483   6.602  1.00 37.90     0.000 A 
HETATM   26  CAG   D T1356       7.867  -0.764   7.517  1.00 37.23     0.005 A 
ENDBRANCH  19  21
ENDBRANCH  15  18
ENDBRANCH  11  12
ENDBRANCH  10  11
BRANCH   3  27
HETATM   27  OAZ   D T1356      -2.229   3.996  10.806  1.00 30.66    -0.326 OA
HETATM   28  CAA   D T1356      -1.250   4.976  11.159  1.00 33.36     0.181 C 
ENDBRANCH   3  27
BRANCH   1  29
HETATM   29  OBB   D T1356      -4.603   2.839  11.385  1.00 30.55    -0.329 OA
BRANCH  29  30
HETATM   30  CAP   D T1356      -5.323   3.762  12.233  1.00 33.72     0.151 C 
BRANCH  30  31
HETATM   31  CAO   D T1356      -6.826   3.429  12.182  1.00 37.07     0.068 C 
BRANCH  31  32
HETATM   32  CAS   D T1356      -7.008   2.063  11.505  1.00 39.71     0.253 C 
BRANCH  32  33
HETATM   33  NBL   D T1356      -7.405   0.914  12.354  1.00 41.70     0.142 N 
HETATM   34  CAT   D T1356      -8.864   0.676  12.438  1.00 43.12     0.282 C 
HETATM   35  CAQ   D T1356      -9.144  -0.617  13.233  1.00 43.52     0.178 C 
HETATM   36  OBA   D T1356      -7.878  -1.277  13.593  1.00 44.22    -0.350 OA
HETATM   37  CAR   D T1356      -6.980  -0.424  14.383  1.00 43.52     0.178 C 
HETATM   38  CAU   D T1356      -6.817   0.954  13.710  1.00 42.73     0.282 C 
ENDBRANCH  32  33
ENDBRANCH  31  32
ENDBRANCH  30  31
ENDBRANCH  29  30
ENDBRANCH   1  29
TORSDOF 10
ENDMDL
MODEL 4
REMARK VINA RESULT:    -8.478      2.399     11.004
REMARK INTER + INTRA:         -14.904
REMARK INTER:                 -13.392
REMARK INTRA:                  -1.512
REMARK UNBOUND:                -1.469
REMARK  10 active torsions:
REMARK  status: ('A' for Active; 'I' for Inactive)
REMARK    1  A    between atoms: NBL_6  and  CAS_7 
REMARK    2  A    between atoms: CAS_7  and  CAO_8 
REMARK    3  A    between atoms: CAO_8  and  CAP_9 
REMARK    4  A    between atoms: CAP_9  and  OBB_10 
REMARK    5  A    between atoms: OBB_10  and  CBH_11 
REMARK    6  A    between atoms: CBG_13  and  OAZ_14 
REMARK    7  A    between atoms: C6_22  and  NAY_23 
REMARK    8  A    between atoms: NAY_23  and  CBE_24 
REMARK    9  A    between atoms: CBD_29  and  NAX_30 
REMARK       I    between atoms: NAX_30  and  CBC_31 
REMARK   10  A    between atoms: CBC_31  and  CBF_33 
ROOT
HETATM    1  CBH   D T1356       5.302   0.631   9.089  1.00 30.53     0.118 A 
HETATM    2  CAM   D T1356       5.093   1.923   8.591  1.00 29.88     0.045 A 
HETATM    3  CBG   D T1356       4.566   0.195  10.207  1.00 30.48     0.117 A 
HETATM    4  CAN   D T1356       3.645   1.041  10.824  1.00 29.67     0.031 A 
HETATM    5  C5    D T1356       3.429   2.330  10.328  1.00 29.79     0.056 A 
HETATM    6  C4    D T1356       4.159   2.764   9.208  1.00 29.99     0.088 A 
HETATM    7  N3    D T1356       3.968   4.000   8.718  1.00 29.16    -0.224 NA
HETATM    8  C2    D T1356       3.045   4.867   9.313  1.00 30.02     0.200 A 
HETATM    9  N1    D T1356       2.309   4.433  10.428  1.00 29.74    -0.205 NA
HETATM   10  C6    D T1356       2.499   3.198  10.925  1.00 29.94     0.166 A 
ENDROOT
BRANCH  10  11
HETATM   11  NAY   D T1356       1.822   2.737  12.010  1.00 31.31    -0.227 NA
BRANCH  11  12
HETATM   12  CBE   D T1356       0.472   2.573  11.971  1.00 32.67     0.083 A 
HETATM   13  CAK   D T1356      -0.081   1.645  11.086  1.00 33.73     0.021 A 
HETATM   14  CAI   D T1356      -1.462   1.444  11.026  1.00 34.14     0.021 A 
HETATM   15  CBD   D T1356      -2.323   2.158  11.874  1.00 33.99     0.085 A 
HETATM   16  CAH   D T1356      -1.774   3.087  12.756  1.00 33.61     0.021 A 
HETATM   17  CAJ   D T1356      -0.393   3.285  12.809  1.00 33.42     0.021 A 
BRANCH  15  18
HETATM   18  NAX   D T1356      -3.671   2.020  11.838  1.00 34.41    -0.208 NA
HETATM   19  CBC   D T1356      -4.455   2.827  11.083  1.00 37.04     0.279 C 
HETATM   20  OAB   D T1356      -4.041   3.736  10.356  1.00 38.15    -0.265 OA
BRANCH  19  21
HETATM   21  CBF   D T1356      -5.824   2.563  11.177  1.00 37.03     0.058 A 
HETATM   22  CAF   D T1356      -6.716   3.184  10.301  1.00 38.06     0.005 A 
HETATM   23  CAD   D T1356      -8.082   2.930  10.397  1.00 38.28     0.000 A 
HETATM   24  CAC   D T1356      -8.564   2.058  11.372  1.00 38.02     0.000 A 
HETATM   25  CAE   D T1356      -7.676   1.433  12.243  1.00 37.90     0.000 A 
HETATM   26  CAG   D T1356      -6.311   1.694  12.151  1.00 37.23     0.005 A 
ENDBRANCH  19  21
ENDBRANCH  15  18
ENDBRANCH  11  12
ENDBRANCH  10  11
BRANCH   3  27
HETATM   27  OAZ   D T1356       4.788  -1.067  10.710  1.00 30.66    -0.326 OA
HETATM   28  CAA   D T1356       4.715  -1.216  12.130  1.00 33.36     0.181 C 
ENDBRANCH   3  27
BRANCH   1  29
HETATM   29  OBB   D T1356       6.197  -0.261   8.549  1.00 30.55    -0.329 OA
BRANCH  29  30
HETATM   30  CAP   D T1356       5.962  -0.787   7.223  1.00 33.72     0.151 C 
BRANCH  30  31
HETATM   31  CAO   D T1356       4.940  -1.936   7.308  1.00 37.07     0.068 C 
BRANCH  31  32
HETATM   32  CAS   D T1356       5.300  -2.996   6.257  1.00 39.71     0.253 C 
BRANCH  32  33
HETATM   33  NBL   D T1356       5.579  -4.374   6.728  1.00 41.70     0.142 N 
HETATM   34  CAT   D T1356       4.460  -5.329   6.560  1.00 43.12     0.282 C 
HETATM   35  CAQ   D T1356       4.914  -6.750   6.959  1.00 43.52     0.178 C 
HETATM   36  OBA   D T1356       6.346  -6.749   7.299  1.00 44.22    -0.350 OA
HETATM   37  CAR   D T1356       6.687  -5.824   8.389  1.00 43.52     0.178 C 
HETATM   38  CAU   D T1356       6.092  -4.428   8.114  1.00 42.73     0.282 C 
ENDBRANCH  32  33
ENDBRANCH  31  32
ENDBRANCH  30  31
ENDBRANCH  29  30
ENDBRANCH   1  29
TORSDOF 10
ENDMDL
MODEL 5
REMARK VINA RESULT:    -8.366      2.468     11.249
REMARK INTER + INTRA:         -14.726
REMARK INTER:                 -13.125
REMARK INTRA:                  -1.601
REMARK UNBOUND:                -1.469
REMARK  10 active torsions:
REMARK  status: ('A' for Active; 'I' for Inactive)
REMARK    1  A    between atoms: NBL_6  and  CAS_7 
REMARK    2  A    between atoms: CAS_7  and  CAO_8 
REMARK    3  A    between atoms: CAO_8  and  CAP_9 
REMARK    4  A    between atoms: CAP_9  and  OBB_10 
REMARK    5  A    between atoms: OBB_10  and  CBH_11 
REMARK    6  A    between atoms: CBG_13  and  OAZ_14 
REMARK    7  A    between atoms: C6_22  and  NAY_23 
REMARK    8  A    between atoms: NAY_23  and  CBE_24 
REMARK    9  A    between atoms: CBD_29  and  NAX_30 
REMARK       I    between atoms: NAX_30  and  CBC_31 
REMARK   10  A    between atoms: CBC_31  and  CBF_33 
ROOT
HETATM    1  CBH   D T1356       5.155  -1.293  10.401  1.00 30.53     0.118 A 
HETATM    2  CAM   D T1356       4.854  -1.282  11.769  1.00 29.88     0.045 A 
HETATM    3  CBG   D T1356       4.553  -0.342   9.554  1.00 30.48     0.117 A 
HETATM    4  CAN   D T1356       3.658   0.597  10.064  1.00 29.67     0.031 A 
HETATM    5  C5    D T1356       3.357   0.615  11.430  1.00 29.79     0.056 A 
HETATM    6  C4    D T1356       3.961  -0.330  12.277  1.00 29.99     0.088 A 
HETATM    7  N3    D T1356       3.683  -0.331  13.590  1.00 29.16    -0.224 NA
HETATM    8  C2    D T1356       2.794   0.605  14.131  1.00 30.02     0.200 A 
HETATM    9  N1    D T1356       2.194   1.555  13.288  1.00 29.74    -0.205 NA
HETATM   10  C6    D T1356       2.466   1.557  11.970  1.00 29.94     0.166 A 
ENDROOT
BRANCH  10  11
HETATM   11  NAY   D T1356       1.900   2.446  11.112  1.00 31.31    -0.227 NA
BRANCH  11  12
HETATM   12  CBE   D T1356       0.548   2.515  10.971  1.00 32.67     0.083 A 
HETATM   13  CAK   D T1356      -0.127   3.662  11.392  1.00 33.73     0.021 A 
HETATM   14  CAI   D T1356      -1.513   3.770  11.254  1.00 34.14     0.021 A 
HETATM   15  CBD   D T1356      -2.253   2.734  10.666  1.00 33.99     0.085 A 
HETATM   16  CAH   D T1356      -1.581   1.587  10.247  1.00 33.61     0.021 A 
HETATM   17  CAJ   D T1356      -0.197   1.483  10.390  1.00 33.42     0.021 A 
BRANCH  15  18
HETATM   18  NAX   D T1356      -3.602   2.777  10.532  1.00 34.41    -0.208 NA
HETATM   19  CBC   D T1356      -4.433   2.300  11.489  1.00 37.04     0.279 C 
HETATM   20  OAB   D T1356      -4.068   1.804  12.560  1.00 38.15    -0.265 OA
BRANCH  19  21
HETATM   21  CBF   D T1356      -5.793   2.403  11.184  1.00 37.03     0.058 A 
HETATM   22  CAF   D T1356      -6.739   1.767  11.989  1.00 38.06     0.005 A 
HETATM   23  CAD   D T1356      -8.094   1.861  11.682  1.00 38.28     0.000 A 
HETATM   24  CAC   D T1356      -8.511   2.586  10.568  1.00 38.02     0.000 A 
HETATM   25  CAE   D T1356      -7.570   3.226   9.766  1.00 37.90     0.000 A 
HETATM   26  CAG   D T1356      -6.214   3.126  10.069  1.00 37.23     0.005 A 
ENDBRANCH  19  21
ENDBRANCH  15  18
ENDBRANCH  11  12
ENDBRANCH  10  11
BRANCH   3  27
HETATM   27  OAZ   D T1356       4.833  -0.368   8.207  1.00 30.66    -0.326 OA
HETATM   28  CAA   D T1356       5.706   0.649   7.710  1.00 33.36     0.181 C 
ENDBRANCH   3  27
BRANCH   1  29
HETATM   29  OBB   D T1356       6.016  -2.189   9.816  1.00 30.55    -0.329 OA
BRANCH  29  30
HETATM   30  CAP   D T1356       7.432  -1.898   9.788  1.00 33.72     0.151 C 
BRANCH  30  31
HETATM   31  CAO   D T1356       8.156  -2.981   8.967  1.00 37.07     0.068 C 
BRANCH  31  32
HETATM   32  CAS   D T1356       7.458  -3.122   7.607  1.00 39.71     0.253 C 
BRANCH  32  33
HETATM   33  NBL   D T1356       6.651  -4.343   7.364  1.00 41.70     0.142 N 
HETATM   34  CAT   D T1356       5.207  -4.102   7.143  1.00 43.12     0.282 C 
HETATM   35  CAQ   D T1356       4.502  -5.423   6.769  1.00 43.52     0.178 C 
HETATM   36  OBA   D T1356       5.488  -6.510   6.655  1.00 44.22    -0.350 OA
HETATM   37  CAR   D T1356       6.266  -6.724   7.882  1.00 43.52     0.178 C 
HETATM   38  CAU   D T1356       6.841  -5.388   8.393  1.00 42.73     0.282 C 
ENDBRANCH  32  33
ENDBRANCH  31  32
ENDBRANCH  30  31
ENDBRANCH  29  30
ENDBRANCH   1  29
TORSDOF 10
ENDMDL
MODEL 6
REMARK VINA RESULT:    -8.071      4.368     11.767
REMARK INTER + INTRA:         -14.258
REMARK INTER:                 -12.980
REMARK INTRA:                  -1.278
REMARK UNBOUND:                -1.469
REMARK  10 active torsions:
REMARK  status: ('A' for Active; 'I' for Inactive)
REMARK    1  A    between atoms: NBL_6  and  CAS_7 
REMARK    2  A    between atoms: CAS_7  and  CAO_8 
REMARK    3  A    between atoms: CAO_8  and  CAP_9 
REMARK    4  A    between atoms: CAP_9  and  OBB_10 
REMARK    5  A    between atoms: OBB_10  and  CBH_11 
REMARK    6  A    between atoms: CBG_13  and  OAZ_14 
REMARK    7  A    between atoms: C6_22  and  NAY_23 
REMARK    8  A    between atoms: NAY_23  and  CBE_24 
REMARK    9  A    between atoms: CBD_29  and  NAX_30 
REMARK       I    between atoms: NAX_30  and  CBC_31 
REMARK   10  A    between atoms: CBC_31  and  CBF_33 
ROOT
HETATM    1  CBH   D T1356       4.659   3.684   8.496  1.00 30.53     0.118 A 
HETATM    2  CAM   D T1356       4.640   2.298   8.701  1.00 29.88     0.045 A 
HETATM    3  CBG   D T1356       3.870   4.514   9.315  1.00 30.48     0.117 A 
HETATM    4  CAN   D T1356       3.067   3.968  10.315  1.00 29.67     0.031 A 
HETATM    5  C5    D T1356       3.046   2.586  10.526  1.00 29.79     0.056 A 
HETATM    6  C4    D T1356       3.839   1.757   9.713  1.00 29.99     0.088 A 
HETATM    7  N3    D T1356       3.831   0.427   9.899  1.00 29.16    -0.224 NA
HETATM    8  C2    D T1356       3.040  -0.148  10.900  1.00 30.02     0.200 A 
HETATM    9  N1    D T1356       2.253   0.679  11.719  1.00 29.74    -0.205 NA
HETATM   10  C6    D T1356       2.254   2.011  11.534  1.00 29.94     0.166 A 
ENDROOT
BRANCH  10  11
HETATM   11  NAY   D T1356       1.499   2.851  12.290  1.00 31.31    -0.227 NA
BRANCH  11  12
HETATM   12  CBE   D T1356       0.140   2.803  12.241  1.00 32.67     0.083 A 
HETATM   13  CAK   D T1356      -0.563   2.207  13.290  1.00 33.73     0.021 A 
HETATM   14  CAI   D T1356      -1.959   2.148  13.275  1.00 34.14     0.021 A 
HETATM   15  CBD   D T1356      -2.685   2.709  12.213  1.00 33.99     0.085 A 
HETATM   16  CAH   D T1356      -1.985   3.301  11.164  1.00 33.61     0.021 A 
HETATM   17  CAJ   D T1356      -0.590   3.355  11.182  1.00 33.42     0.021 A 
BRANCH  15  18
HETATM   18  NAX   D T1356      -4.037   2.655  12.138  1.00 34.41    -0.208 NA
HETATM   19  CBC   D T1356      -4.685   1.588  11.611  1.00 37.04     0.279 C 
HETATM   20  OAB   D T1356      -4.135   0.574  11.172  1.00 38.15    -0.265 OA
BRANCH  19  21
HETATM   21  CBF   D T1356      -6.077   1.704  11.591  1.00 37.03     0.058 A 
HETATM   22  CAF   D T1356      -6.852   0.972  12.493  1.00 38.06     0.005 A 
HETATM   23  CAD   D T1356      -8.240   1.078  12.470  1.00 38.28     0.000 A 
HETATM   24  CAC   D T1356      -8.862   1.913  11.543  1.00 38.02     0.000 A 
HETATM   25  CAE   D T1356      -8.093   2.647  10.646  1.00 37.90     0.000 A 
HETATM   26  CAG   D T1356      -6.705   2.535  10.664  1.00 37.23     0.005 A 
ENDBRANCH  19  21
ENDBRANCH  15  18
ENDBRANCH  11  12
ENDBRANCH  10  11
BRANCH   3  27
HETATM   27  OAZ   D T1356       3.873   5.873   9.098  1.00 30.66    -0.326 OA
HETATM   28  CAA   D T1356       2.616   6.478   8.783  1.00 33.36     0.181 C 
ENDBRANCH   3  27
BRANCH   1  29
HETATM   29  OBB   D T1356       5.413   4.302   7.528  1.00 30.55    -0.329 OA
BRANCH  29  30
HETATM   30  CAP   D T1356       4.824   4.576   6.237  1.00 33.72     0.151 C 
BRANCH  30  31
HETATM   31  CAO   D T1356       5.502   5.815   5.622  1.00 37.07     0.068 C 
BRANCH  31  32
HETATM   32  CAS   D T1356       5.837   5.519   4.154  1.00 39.71     0.253 C 
BRANCH  32  33
HETATM   33  NBL   D T1356       7.255   5.265   3.802  1.00 41.70     0.142 N 
HETATM   34  CAT   D T1356       7.948   4.287   4.672  1.00 43.12     0.282 C 
HETATM   35  CAQ   D T1356       9.365   4.007   4.129  1.00 43.52     0.178 C 
HETATM   36  OBA   D T1356       9.574   4.724   2.860  1.00 44.22    -0.350 OA
HETATM   37  CAR   D T1356       9.393   6.177   2.974  1.00 43.52     0.178 C 
HETATM   38  CAU   D T1356       8.061   6.499   3.681  1.00 42.73     0.282 C 
ENDBRANCH  32  33
ENDBRANCH  31  32
ENDBRANCH  30  31
ENDBRANCH  29  30
ENDBRANCH   1  29
TORSDOF 10
ENDMDL
MODEL 7
REMARK VINA RESULT:    -7.988      5.028      6.198
REMARK INTER + INTRA:         -14.127
REMARK INTER:                 -12.469
REMARK INTRA:                  -1.659
REMARK UNBOUND:                -1.469
REMARK  10 active torsions:
REMARK  status: ('A' for Active; 'I' for Inactive)
REMARK    1  A    between atoms: NBL_6  and  CAS_7 
REMARK    2  A    between atoms: CAS_7  and  CAO_8 
REMARK    3  A    between atoms: CAO_8  and  CAP_9 
REMARK    4  A    between atoms: CAP_9  and  OBB_10 
REMARK    5  A    between atoms: OBB_10  and  CBH_11 
REMARK    6  A    between atoms: CBG_13  and  OAZ_14 
REMARK    7  A    between atoms: C6_22  and  NAY_23 
REMARK    8  A    between atoms: NAY_23  and  CBE_24 
REMARK    9  A    between atoms: CBD_29  and  NAX_30 
REMARK       I    between atoms: NAX_30  and  CBC_31 
REMARK   10  A    between atoms: CBC_31  and  CBF_33 
ROOT
HETATM    1  CBH   D T1356      -2.502   3.714  11.137  1.00 30.53     0.118 A 
HETATM    2  CAM   D T1356      -2.046   2.460  10.713  1.00 29.88     0.045 A 
HETATM    3  CBG   D T1356      -1.576   4.759  11.321  1.00 30.48     0.117 A 
HETATM    4  CAN   D T1356      -0.216   4.551  11.095  1.00 29.67     0.031 A 
HETATM    5  C5    D T1356       0.244   3.302  10.667  1.00 29.79     0.056 A 
HETATM    6  C4    D T1356      -0.680   2.260  10.477  1.00 29.99     0.088 A 
HETATM    7  N3    D T1356      -0.257   1.052  10.069  1.00 29.16    -0.224 NA
HETATM    8  C2    D T1356       1.101   0.817   9.828  1.00 30.02     0.200 A 
HETATM    9  N1    D T1356       2.026   1.859  10.010  1.00 29.74    -0.205 NA
HETATM   10  C6    D T1356       1.608   3.069  10.422  1.00 29.94     0.166 A 
ENDROOT
BRANCH  10  11
HETATM   11  NAY   D T1356       2.465   4.104  10.627  1.00 31.31    -0.227 NA
BRANCH  11  12
HETATM   12  CBE   D T1356       3.043   4.748   9.576  1.00 32.67     0.083 A 
HETATM   13  CAK   D T1356       4.393   4.527   9.296  1.00 33.73     0.021 A 
HETATM   14  CAI   D T1356       5.016   5.165   8.221  1.00 34.14     0.021 A 
HETATM   15  CBD   D T1356       4.289   6.026   7.384  1.00 33.99     0.085 A 
HETATM   16  CAH   D T1356       2.943   6.250   7.664  1.00 33.61     0.021 A 
HETATM   17  CAJ   D T1356       2.326   5.612   8.742  1.00 33.42     0.021 A 
BRANCH  15  18
HETATM   18  NAX   D T1356       4.852   6.689   6.344  1.00 34.41    -0.208 NA
HETATM   19  CBC   D T1356       4.984   6.123   5.120  1.00 37.04     0.279 C 
HETATM   20  OAB   D T1356       4.605   4.986   4.822  1.00 38.15    -0.265 OA
BRANCH  19  21
HETATM   21  CBF   D T1356       5.604   6.936   4.167  1.00 37.03     0.058 A 
HETATM   22  CAF   D T1356       6.003   8.230   4.507  1.00 38.06     0.005 A 
HETATM   23  CAD   D T1356       6.613   9.046   3.557  1.00 38.28     0.000 A 
HETATM   24  CAC   D T1356       6.824   8.575   2.263  1.00 38.02     0.000 A 
HETATM   25  CAE   D T1356       6.432   7.284   1.923  1.00 37.90     0.000 A 
HETATM   26  CAG   D T1356       5.815   6.471   2.870  1.00 37.23     0.005 A 
ENDBRANCH  19  21
ENDBRANCH  15  18
ENDBRANCH  11  12
ENDBRANCH  10  11
BRANCH   3  27
HETATM   27  OAZ   D T1356      -2.023   5.985  11.760  1.00 30.66    -0.326 OA
HETATM   28  CAA   D T1356      -1.029   6.985  12.000  1.00 33.36     0.181 C 
ENDBRANCH   3  27
BRANCH   1  29
HETATM   29  OBB   D T1356      -3.821   4.001  11.392  1.00 30.55    -0.329 OA
BRANCH  29  30
HETATM   30  CAP   D T1356      -4.773   3.991  10.305  1.00 33.72     0.151 C 
BRANCH  30  31
HETATM   31  CAO   D T1356      -5.737   2.804  10.486  1.00 37.07     0.068 C 
BRANCH  31  32
HETATM   32  CAS   D T1356      -6.219   2.775  11.944  1.00 39.71     0.253 C 
BRANCH  32  33
HETATM   33  NBL   D T1356      -5.949   1.555  12.741  1.00 41.70     0.142 N 
HETATM   34  CAT   D T1356      -4.958   0.628  12.146  1.00 43.12     0.282 C 
HETATM   35  CAQ   D T1356      -4.664  -0.529  13.125  1.00 43.52     0.178 C 
HETATM   36  OBA   D T1356      -5.383  -0.319  14.391  1.00 44.22    -0.350 OA
HETATM   37  CAR   D T1356      -6.838  -0.205  14.224  1.00 43.52     0.178 C 
HETATM   38  CAU   D T1356      -7.174   0.817  13.119  1.00 42.73     0.282 C 
ENDBRANCH  32  33
ENDBRANCH  31  32
ENDBRANCH  30  31
ENDBRANCH  29  30
ENDBRANCH   1  29
TORSDOF 10
ENDMDL
MODEL 8
REMARK VINA RESULT:    -7.892      3.878      5.299
REMARK INTER + INTRA:         -13.974
REMARK INTER:                 -12.629
REMARK INTRA:                  -1.345
REMARK UNBOUND:                -1.469
REMARK  10 active torsions:
REMARK  status: ('A' for Active; 'I' for Inactive)
REMARK    1  A    between atoms: NBL_6  and  CAS_7 
REMARK    2  A    between atoms: CAS_7  and  CAO_8 
REMARK    3  A    between atoms: CAO_8  and  CAP_9 
REMARK    4  A    between atoms: CAP_9  and  OBB_10 
REMARK    5  A    between atoms: OBB_10  and  CBH_11 
REMARK    6  A    between atoms: CBG_13  and  OAZ_14 
REMARK    7  A    between atoms: C6_22  and  NAY_23 
REMARK    8  A    between atoms: NAY_23  and  CBE_24 
REMARK    9  A    between atoms: CBD_29  and  NAX_30 
REMARK       I    between atoms: NAX_30  and  CBC_31 
REMARK   10  A    between atoms: CBC_31  and  CBF_33 
ROOT
HETATM    1  CBH   D T1356      -2.941   0.451  12.923  1.00 30.53     0.118 A 
HETATM    2  CAM   D T1356      -1.891   0.108  13.785  1.00 29.88     0.045 A 
HETATM    3  CBG   D T1356      -2.657   0.753  11.577  1.00 30.48     0.117 A 
HETATM    4  CAN   D T1356      -1.346   0.723  11.103  1.00 29.67     0.031 A 
HETATM    5  C5    D T1356      -0.295   0.377  11.959  1.00 29.79     0.056 A 
HETATM    6  C4    D T1356      -0.578   0.069  13.301  1.00 29.99     0.088 A 
HETATM    7  N3    D T1356       0.418  -0.263  14.139  1.00 29.16    -0.224 NA
HETATM    8  C2    D T1356       1.742  -0.308  13.689  1.00 30.02     0.200 A 
HETATM    9  N1    D T1356       2.026  -0.008  12.346  1.00 29.74    -0.205 NA
HETATM   10  C6    D T1356       1.033   0.329  11.504  1.00 29.94     0.166 A 
ENDROOT
BRANCH  10  11
HETATM   11  NAY   D T1356       1.259   0.641  10.200  1.00 31.31    -0.227 NA
BRANCH  11  12
HETATM   12  CBE   D T1356       1.870   1.808   9.859  1.00 32.67     0.083 A 
HETATM   13  CAK   D T1356       3.236   1.806   9.567  1.00 33.73     0.021 A 
HETATM   14  CAI   D T1356       3.893   2.985   9.205  1.00 34.14     0.021 A 
HETATM   15  CBD   D T1356       3.186   4.193   9.103  1.00 33.99     0.085 A 
HETATM   16  CAH   D T1356       1.824   4.196   9.397  1.00 33.61     0.021 A 
HETATM   17  CAJ   D T1356       1.173   3.017   9.762  1.00 33.42     0.021 A 
BRANCH  15  18
HETATM   18  NAX   D T1356       3.781   5.367   8.781  1.00 34.41    -0.208 NA
HETATM   19  CBC   D T1356       3.735   5.873   7.526  1.00 37.04     0.279 C 
HETATM   20  OAB   D T1356       3.153   5.348   6.572  1.00 38.15    -0.265 OA
BRANCH  19  21
HETATM   21  CBF   D T1356       4.417   7.082   7.360  1.00 37.03     0.058 A 
HETATM   22  CAF   D T1356       5.620   7.303   8.034  1.00 38.06     0.005 A 
HETATM   23  CAD   D T1356       6.297   8.510   7.879  1.00 38.28     0.000 A 
HETATM   24  CAC   D T1356       5.775   9.503   7.052  1.00 38.02     0.000 A 
HETATM   25  CAE   D T1356       4.580   9.284   6.374  1.00 37.90     0.000 A 
HETATM   26  CAG   D T1356       3.899   8.080   6.536  1.00 37.23     0.005 A 
ENDBRANCH  19  21
ENDBRANCH  15  18
ENDBRANCH  11  12
ENDBRANCH  10  11
BRANCH   3  27
HETATM   27  OAZ   D T1356      -3.686   1.111  10.736  1.00 30.66    -0.326 OA
HETATM   28  CAA   D T1356      -3.608   0.645   9.387  1.00 33.36     0.181 C 
ENDBRANCH   3  27
BRANCH   1  29
HETATM   29  OBB   D T1356      -4.257   0.515  13.310  1.00 30.55    -0.329 OA
BRANCH  29  30
HETATM   30  CAP   D T1356      -5.173  -0.518  12.881  1.00 33.72     0.151 C 
BRANCH  30  31
HETATM   31  CAO   D T1356      -6.594  -0.164  13.359  1.00 37.07     0.068 C 
BRANCH  31  32
HETATM   32  CAS   D T1356      -6.741   1.364  13.390  1.00 39.71     0.253 C 
BRANCH  32  33
HETATM   33  NBL   D T1356      -6.781   2.084  12.095  1.00 41.70     0.142 N 
HETATM   34  CAT   D T1356      -5.965   3.319  12.042  1.00 43.12     0.282 C 
HETATM   35  CAQ   D T1356      -5.980   3.902  10.613  1.00 43.52     0.178 C 
HETATM   36  OBA   D T1356      -6.723   3.010   9.708  1.00 44.22    -0.350 OA
HETATM   37  CAR   D T1356      -8.110   2.772  10.133  1.00 43.52     0.178 C 
HETATM   38  CAU   D T1356      -8.154   2.361  11.618  1.00 42.73     0.282 C 
ENDBRANCH  32  33
ENDBRANCH  31  32
ENDBRANCH  30  31
ENDBRANCH  29  30
ENDBRANCH   1  29
TORSDOF 10
ENDMDL
MODEL 9
REMARK VINA RESULT:    -7.871      4.794      5.992
REMARK INTER + INTRA:         -13.942
REMARK INTER:                 -12.390
REMARK INTRA:                  -1.552
REMARK UNBOUND:                -1.469
REMARK  10 active torsions:
REMARK  status: ('A' for Active; 'I' for Inactive)
REMARK    1  A    between atoms: NBL_6  and  CAS_7 
REMARK    2  A    between atoms: CAS_7  and  CAO_8 
REMARK    3  A    between atoms: CAO_8  and  CAP_9 
REMARK    4  A    between atoms: CAP_9  and  OBB_10 
REMARK    5  A    between atoms: OBB_10  and  CBH_11 
REMARK    6  A    between atoms: CBG_13  and  OAZ_14 
REMARK    7  A    between atoms: C6_22  and  NAY_23 
REMARK    8  A    between atoms: NAY_23  and  CBE_24 
REMARK    9  A    between atoms: CBD_29  and  NAX_30 
REMARK       I    between atoms: NAX_30  and  CBC_31 
REMARK   10  A    between atoms: CBC_31  and  CBF_33 
ROOT
HETATM    1  CBH   D T1356      -1.004   0.447  11.790  1.00 30.53     0.118 A 
HETATM    2  CAM   D T1356       0.179  -0.289  11.651  1.00 29.88     0.045 A 
HETATM    3  CBG   D T1356      -0.955   1.853  11.717  1.00 30.48     0.117 A 
HETATM    4  CAN   D T1356       0.257   2.511  11.518  1.00 29.67     0.031 A 
HETATM    5  C5    D T1356       1.441   1.781  11.374  1.00 29.79     0.056 A 
HETATM    6  C4    D T1356       1.392   0.378  11.441  1.00 29.99     0.088 A 
HETATM    7  N3    D T1356       2.519  -0.341  11.308  1.00 29.16    -0.224 NA
HETATM    8  C2    D T1356       3.748   0.293  11.100  1.00 30.02     0.200 A 
HETATM    9  N1    D T1356       3.799   1.695  11.025  1.00 29.74    -0.205 NA
HETATM   10  C6    D T1356       2.674   2.420  11.162  1.00 29.94     0.166 A 
ENDROOT
BRANCH  10  11
HETATM   11  NAY   D T1356       2.673   3.778  11.111  1.00 31.31    -0.227 NA
BRANCH  11  12
HETATM   12  CBE   D T1356       3.041   4.434   9.977  1.00 32.67     0.083 A 
HETATM   13  CAK   D T1356       4.242   5.147   9.957  1.00 33.73     0.021 A 
HETATM   14  CAI   D T1356       4.654   5.825   8.807  1.00 34.14     0.021 A 
HETATM   15  CBD   D T1356       3.879   5.782   7.638  1.00 33.99     0.085 A 
HETATM   16  CAH   D T1356       2.679   5.074   7.658  1.00 33.61     0.021 A 
HETATM   17  CAJ   D T1356       2.270   4.401   8.811  1.00 33.42     0.021 A 
BRANCH  15  18
HETATM   18  NAX   D T1356       4.221   6.443   6.505  1.00 34.41    -0.208 NA
HETATM   19  CBC   D T1356       4.989   5.872   5.546  1.00 37.04     0.279 C 
HETATM   20  OAB   D T1356       5.434   4.721   5.589  1.00 38.15    -0.265 OA
BRANCH  19  21
HETATM   21  CBF   D T1356       5.265   6.698   4.453  1.00 37.03     0.058 A 
HETATM   22  CAF   D T1356       5.209   8.086   4.595  1.00 38.06     0.005 A 
HETATM   23  CAD   D T1356       5.475   8.911   3.505  1.00 38.28     0.000 A 
HETATM   24  CAC   D T1356       5.793   8.355   2.268  1.00 38.02     0.000 A 
HETATM   25  CAE   D T1356       5.854   6.972   2.124  1.00 37.90     0.000 A 
HETATM   26  CAG   D T1356       5.581   6.147   3.212  1.00 37.23     0.005 A 
ENDBRANCH  19  21
ENDBRANCH  15  18
ENDBRANCH  11  12
ENDBRANCH  10  11
BRANCH   3  27
HETATM   27  OAZ   D T1356      -2.116   2.576  11.876  1.00 30.66    -0.326 OA
HETATM   28  CAA   D T1356      -2.781   2.997  10.683  1.00 33.36     0.181 C 
ENDBRANCH   3  27
BRANCH   1  29
HETATM   29  OBB   D T1356      -2.237  -0.121  11.999  1.00 30.55    -0.329 OA
BRANCH  29  30
HETATM   30  CAP   D T1356      -2.488  -0.842  13.226  1.00 33.72     0.151 C 
BRANCH  30  31
HETATM   31  CAO   D T1356      -3.688  -0.206  13.952  1.00 37.07     0.068 C 
BRANCH  31  32
HETATM   32  CAS   D T1356      -4.679   0.320  12.904  1.00 39.71     0.253 C 
BRANCH  32  33
HETATM   33  NBL   D T1356      -6.119   0.030  13.103  1.00 41.70     0.142 N 
HETATM   34  CAT   D T1356      -7.042   1.041  12.538  1.00 43.12     0.282 C 
HETATM   35  CAQ   D T1356      -8.503   0.565  12.688  1.00 43.52     0.178 C 
HETATM   36  OBA   D T1356      -8.540  -0.789  13.263  1.00 44.22    -0.350 OA
HETATM   37  CAR   D T1356      -7.878  -0.885  14.572  1.00 43.52     0.178 C 
HETATM   38  CAU   D T1356      -6.473  -0.252  14.511  1.00 42.73     0.282 C 
ENDBRANCH  32  33
ENDBRANCH  31  32
ENDBRANCH  30  31
ENDBRANCH  29  30
ENDBRANCH   1  29
TORSDOF 10
ENDMDL
