MODEL 1
REMARK VINA RESULT:    -8.587      0.000      0.000
REMARK INTER + INTRA:         -15.160
REMARK INTER:                 -13.607
REMARK INTRA:                  -1.552
REMARK UNBOUND:                -1.552
REMARK  10 active torsions:
REMARK  status: ('A' for Active; 'I' for Inactive)
REMARK    1  A    between atoms: NBL_6  and  CAS_7 
REMARK    2  A    between atoms: CAS_7  and  CAO_8 
REMARK    3  A    between atoms: CAO_8  and  CAP_9 
REMARK    4  A    between atoms: CAP_9  and  OBB_10 
REMARK    5  A    between atoms: OBB_10  and  CBH_11 
REMARK    6  A    between atoms: CBG_13  and  OAZ_14 
REMARK    7  A    between atoms: C6_22  and  NAY_23 
REMARK    8  A    between atoms: NAY_23  and  CBE_24 
REMARK    9  A    between atoms: CBD_29  and  NAX_30 
REMARK       I    between atoms: NAX_30  and  CBC_31 
REMARK   10  A    between atoms: CBC_31  and  CBF_33 
ROOT
HETATM    1  CBH   D T1356     -11.087   4.292  -4.675  1.00 30.53     0.118 A 
HETATM    2  CAM   D T1356     -10.032   3.730  -5.405  1.00 29.88     0.045 A 
HETATM    3  CBG   D T1356     -12.408   3.882  -4.944  1.00 30.48     0.117 A 
HETATM    4  CAN   D T1356     -12.670   2.936  -5.934  1.00 29.67     0.031 A 
HETATM    5  C5    D T1356     -11.619   2.369  -6.664  1.00 29.79     0.056 A 
HETATM    6  C4    D T1356     -10.300   2.773  -6.391  1.00 29.99     0.088 A 
HETATM    7  N3    D T1356      -9.279   2.243  -7.082  1.00 29.16    -0.224 NA
HETATM    8  C2    D T1356      -9.512   1.285  -8.077  1.00 30.02     0.200 A 
HETATM    9  N1    D T1356     -10.828   0.875  -8.346  1.00 29.74    -0.205 NA
HETATM   10  C6    D T1356     -11.856   1.406  -7.658  1.00 29.94     0.166 A 
ENDROOT
BRANCH  10  11
HETATM   11  NAY   D T1356     -13.146   1.052  -7.892  1.00 31.31    -0.227 NA
BRANCH  11  12
HETATM   12  CBE   D T1356     -13.512  -0.258  -7.947  1.00 32.67     0.083 A 
HETATM   13  CAK   D T1356     -13.554  -1.007  -6.770  1.00 33.73     0.021 A 
HETATM   14  CAI   D T1356     -13.934  -2.352  -6.789  1.00 34.14     0.021 A 
HETATM   15  CBD   D T1356     -14.304  -2.971  -7.992  1.00 33.99     0.085 A 
HETATM   16  CAH   D T1356     -14.260  -2.225  -9.169  1.00 33.61     0.021 A 
HETATM   17  CAJ   D T1356     -13.878  -0.882  -9.144  1.00 33.42     0.021 A 
BRANCH  15  18
HETATM   18  NAX   D T1356     -14.654  -4.278  -8.070  1.00 34.41    -0.208 NA
HETATM   19  CBC   D T1356     -15.936  -4.687  -7.913  1.00 37.04     0.279 C 
HETATM   20  OAB   D T1356     -16.897  -3.940  -7.703  1.00 38.15    -0.265 OA
BRANCH  19  21
HETATM   21  CBF   D T1356     -16.122  -6.069  -8.002  1.00 37.03     0.058 A 
HETATM   22  CAF   D T1356     -15.121  -6.875  -8.549  1.00 38.06     0.005 A 
HETATM   23  CAD   D T1356     -15.307  -8.251  -8.646  1.00 38.28     0.000 A 
HETATM   24  CAC   D T1356     -16.495  -8.830  -8.201  1.00 38.02     0.000 A 
HETATM   25  CAE   D T1356     -17.491  -8.030  -7.649  1.00 37.90     0.000 A 
HETATM   26  CAG   D T1356     -17.308  -6.653  -7.559  1.00 37.23     0.005 A 
ENDBRANCH  19  21
ENDBRANCH  15  18
ENDBRANCH  11  12
ENDBRANCH  10  11
BRANCH   3  27
HETATM   27  OAZ   D T1356     -13.445   4.451  -4.241  1.00 30.66    -0.326 OA
HETATM   28  CAA   D T1356     -14.332   5.299  -4.974  1.00 33.36     0.181 C 
ENDBRANCH   3  27
BRANCH   1  29
HETATM   29  OBB   D T1356     -10.918   5.236  -3.691  1.00 30.55    -0.329 OA
BRANCH  29  30
HETATM   30  CAP   D T1356      -9.664   5.948  -3.598  1.00 33.72     0.151 C 
BRANCH  30  31
HETATM   31  CAO   D T1356      -9.712   6.903  -2.393  1.00 37.07     0.068 C 
BRANCH  31  32
HETATM   32  CAS   D T1356     -11.175   7.276  -2.114  1.00 39.71     0.253 C 
BRANCH  32  33
HETATM   33  NBL   D T1356     -11.678   8.565  -2.647  1.00 41.70     0.142 N 
HETATM   34  CAT   D T1356     -12.382   9.417  -1.659  1.00 43.12     0.282 C 
HETATM   35  CAQ   D T1356     -12.737  10.779  -2.294  1.00 43.52     0.178 C 
HETATM   36  OBA   D T1356     -12.192  10.862  -3.658  1.00 44.22    -0.350 OA
HETATM   37  CAR   D T1356     -12.672   9.792  -4.544  1.00 43.52     0.178 C 
HETATM   38  CAU   D T1356     -12.501   8.416  -3.868  1.00 42.73     0.282 C 
ENDBRANCH  32  33
ENDBRANCH  31  32
ENDBRANCH  30  31
ENDBRANCH  29  30
ENDBRANCH   1  29
TORSDOF 10
ENDMDL
MODEL 2
REMARK VINA RESULT:    -8.393      2.475      3.212
REMARK INTER + INTRA:         -14.852
REMARK INTER:                 -13.002
REMARK INTRA:                  -1.851
REMARK UNBOUND:                -1.552
REMARK  10 active torsions:
REMARK  status: ('A' for Active; 'I' for Inactive)
REMARK    1  A    between atoms: NBL_6  and  CAS_7 
REMARK    2  A    between atoms: CAS_7  and  CAO_8 
REMARK    3  A    between atoms: CAO_8  and  CAP_9 
REMARK    4  A    between atoms: CAP_9  and  OBB_10 
REMARK    5  A    between atoms: OBB_10  and  CBH_11 
REMARK    6  A    between atoms: CBG_13  and  OAZ_14 
REMARK    7  A    between atoms: C6_22  and  NAY_23 
REMARK    8  A    between atoms: NAY_23  and  CBE_24 
REMARK    9  A    between atoms: CBD_29  and  NAX_30 
REMARK       I    between atoms: NAX_30  and  CBC_31 
REMARK   10  A    between atoms: CBC_31  and  CBF_33 
ROOT
HETATM    1  CBH   D T1356     -12.097   5.091  -3.944  1.00 30.53     0.118 A 
HETATM    2  CAM   D T1356     -10.903   4.630  -4.509  1.00 29.88     0.045 A 
HETATM    3  CBG   D T1356     -13.325   4.584  -4.413  1.00 30.48     0.117 A 
HETATM    4  CAN   D T1356     -13.358   3.640  -5.438  1.00 29.67     0.031 A 
HETATM    5  C5    D T1356     -12.167   3.173  -6.004  1.00 29.79     0.056 A 
HETATM    6  C4    D T1356     -10.941   3.674  -5.532  1.00 29.99     0.088 A 
HETATM    7  N3    D T1356      -9.787   3.240  -6.064  1.00 29.16    -0.224 NA
HETATM    8  C2    D T1356      -9.789   2.287  -7.090  1.00 30.02     0.200 A 
HETATM    9  N1    D T1356     -11.013   1.780  -7.559  1.00 29.74    -0.205 NA
HETATM   10  C6    D T1356     -12.172   2.213  -7.031  1.00 29.94     0.166 A 
ENDROOT
BRANCH  10  11
HETATM   11  NAY   D T1356     -13.380   1.764  -7.460  1.00 31.31    -0.227 NA
BRANCH  11  12
HETATM   12  CBE   D T1356     -13.633   0.430  -7.558  1.00 32.67     0.083 A 
HETATM   13  CAK   D T1356     -13.894  -0.305  -6.400  1.00 33.73     0.021 A 
HETATM   14  CAI   D T1356     -14.167  -1.674  -6.465  1.00 34.14     0.021 A 
HETATM   15  CBD   D T1356     -14.208  -2.334  -7.702  1.00 33.99     0.085 A 
HETATM   16  CAH   D T1356     -13.944  -1.602  -8.860  1.00 33.61     0.021 A 
HETATM   17  CAJ   D T1356     -13.671  -0.236  -8.788  1.00 33.42     0.021 A 
BRANCH  15  18
HETATM   18  NAX   D T1356     -14.441  -3.664  -7.819  1.00 34.41    -0.208 NA
HETATM   19  CBC   D T1356     -15.691  -4.161  -7.967  1.00 37.04     0.279 C 
HETATM   20  OAB   D T1356     -16.721  -3.483  -8.025  1.00 38.15    -0.265 OA
BRANCH  19  21
HETATM   21  CBF   D T1356     -15.758  -5.555  -8.051  1.00 37.03     0.058 A 
HETATM   22  CAF   D T1356     -14.663  -6.280  -8.526  1.00 38.06     0.005 A 
HETATM   23  CAD   D T1356     -14.730  -7.667  -8.619  1.00 38.28     0.000 A 
HETATM   24  CAC   D T1356     -15.892  -8.338  -8.242  1.00 38.02     0.000 A 
HETATM   25  CAE   D T1356     -16.983  -7.620  -7.762  1.00 37.90     0.000 A 
HETATM   26  CAG   D T1356     -16.919  -6.231  -7.676  1.00 37.23     0.005 A 
ENDBRANCH  19  21
ENDBRANCH  15  18
ENDBRANCH  11  12
ENDBRANCH  10  11
BRANCH   3  27
HETATM   27  OAZ   D T1356     -14.499   5.054  -3.871  1.00 30.66    -0.326 OA
HETATM   28  CAA   D T1356     -15.689   4.325  -4.180  1.00 33.36     0.181 C 
ENDBRANCH   3  27
BRANCH   1  29
HETATM   29  OBB   D T1356     -12.156   6.026  -2.938  1.00 30.55    -0.329 OA
BRANCH  29  30
HETATM   30  CAP   D T1356     -11.510   5.750  -1.675  1.00 33.72     0.151 C 
BRANCH  30  31
HETATM   31  CAO   D T1356     -12.445   4.892  -0.804  1.00 37.07     0.068 C 
BRANCH  31  32
HETATM   32  CAS   D T1356     -13.677   5.727  -0.429  1.00 39.71     0.253 C 
BRANCH  32  33
HETATM   33  NBL   D T1356     -14.990   5.041  -0.369  1.00 41.70     0.142 N 
HETATM   34  CAT   D T1356     -15.837   5.414   0.788  1.00 43.12     0.282 C 
HETATM   35  CAQ   D T1356     -17.221   4.740   0.670  1.00 43.52     0.178 C 
HETATM   36  OBA   D T1356     -17.320   4.002  -0.599  1.00 44.22    -0.350 OA
HETATM   37  CAR   D T1356     -16.283   2.974  -0.760  1.00 43.52     0.178 C 
HETATM   38  CAU   D T1356     -14.888   3.567  -0.470  1.00 42.73     0.282 C 
ENDBRANCH  32  33
ENDBRANCH  31  32
ENDBRANCH  30  31
ENDBRANCH  29  30
ENDBRANCH   1  29
TORSDOF 10
ENDMDL
MODEL 3
REMARK VINA RESULT:    -8.115      1.935      3.122
REMARK INTER + INTRA:         -14.411
REMARK INTER:                 -12.828
REMARK INTRA:                  -1.583
REMARK UNBOUND:                -1.552
REMARK  10 active torsions:
REMARK  status: ('A' for Active; 'I' for Inactive)
REMARK    1  A    between atoms: NBL_6  and  CAS_7 
REMARK    2  A    between atoms: CAS_7  and  CAO_8 
REMARK    3  A    between atoms: CAO_8  and  CAP_9 
REMARK    4  A    between atoms: CAP_9  and  OBB_10 
REMARK    5  A    between atoms: OBB_10  and  CBH_11 
REMARK    6  A    between atoms: CBG_13  and  OAZ_14 
REMARK    7  A    between atoms: C6_22  and  NAY_23 
REMARK    8  A    between atoms: NAY_23  and  CBE_24 
REMARK    9  A    between atoms: CBD_29  and  NAX_30 
REMARK       I    between atoms: NAX_30  and  CBC_31 
REMARK   10  A    between atoms: CBC_31  and  CBF_33 
ROOT
HETATM    1  CBH   D T1356     -10.569   4.272  -4.832  1.00 30.53     0.118 A 
HETATM    2  CAM   D T1356     -11.908   4.288  -4.425  1.00 29.88     0.045 A 
HETATM    3  CBG   D T1356     -10.187   3.458  -5.917  1.00 30.48     0.117 A 
HETATM    4  CAN   D T1356     -11.127   2.666  -6.576  1.00 29.67     0.031 A 
HETATM    5  C5    D T1356     -12.467   2.682  -6.175  1.00 29.79     0.056 A 
HETATM    6  C4    D T1356     -12.850   3.498  -5.096  1.00 29.99     0.088 A 
HETATM    7  N3    D T1356     -14.131   3.525  -4.695  1.00 29.16    -0.224 NA
HETATM    8  C2    D T1356     -15.097   2.745  -5.342  1.00 30.02     0.200 A 
HETATM    9  N1    D T1356     -14.718   1.934  -6.425  1.00 29.74    -0.205 NA
HETATM   10  C6    D T1356     -13.435   1.901  -6.829  1.00 29.94     0.166 A 
ENDROOT
BRANCH  10  11
HETATM   11  NAY   D T1356     -13.018   1.123  -7.861  1.00 31.31    -0.227 NA
BRANCH  11  12
HETATM   12  CBE   D T1356     -13.421  -0.173  -7.965  1.00 32.67     0.083 A 
HETATM   13  CAK   D T1356     -13.128  -1.067  -6.933  1.00 33.73     0.021 A 
HETATM   14  CAI   D T1356     -13.536  -2.402  -7.003  1.00 34.14     0.021 A 
HETATM   15  CBD   D T1356     -14.268  -2.866  -8.105  1.00 33.99     0.085 A 
HETATM   16  CAH   D T1356     -14.558  -1.976  -9.138  1.00 33.61     0.021 A 
HETATM   17  CAJ   D T1356     -14.148  -0.644  -9.063  1.00 33.42     0.021 A 
BRANCH  15  18
HETATM   18  NAX   D T1356     -14.663  -4.156  -8.234  1.00 34.41    -0.208 NA
HETATM   19  CBC   D T1356     -15.790  -4.623  -7.645  1.00 37.04     0.279 C 
HETATM   20  OAB   D T1356     -16.563  -3.946  -6.961  1.00 38.15    -0.265 OA
BRANCH  19  21
HETATM   21  CBF   D T1356     -16.041  -5.981  -7.862  1.00 37.03     0.058 A 
HETATM   22  CAF   D T1356     -17.302  -6.512  -7.582  1.00 38.06     0.005 A 
HETATM   23  CAD   D T1356     -17.552  -7.865  -7.789  1.00 38.28     0.000 A 
HETATM   24  CAC   D T1356     -16.544  -8.697  -8.273  1.00 38.02     0.000 A 
HETATM   25  CAE   D T1356     -15.288  -8.170  -8.559  1.00 37.90     0.000 A 
HETATM   26  CAG   D T1356     -15.035  -6.818  -8.345  1.00 37.23     0.005 A 
ENDBRANCH  19  21
ENDBRANCH  15  18
ENDBRANCH  11  12
ENDBRANCH  10  11
BRANCH   3  27
HETATM   27  OAZ   D T1356      -8.867   3.427  -6.303  1.00 30.66    -0.326 OA
HETATM   28  CAA   D T1356      -8.104   2.288  -5.895  1.00 33.36     0.181 C 
ENDBRANCH   3  27
BRANCH   1  29
HETATM   29  OBB   D T1356      -9.579   5.012  -4.234  1.00 30.55    -0.329 OA
BRANCH  29  30
HETATM   30  CAP   D T1356      -9.843   6.385  -3.866  1.00 33.72     0.151 C 
BRANCH  30  31
HETATM   31  CAO   D T1356     -10.119   6.459  -2.353  1.00 37.07     0.068 C 
BRANCH  31  32
HETATM   32  CAS   D T1356     -11.427   7.230  -2.126  1.00 39.71     0.253 C 
BRANCH  32  33
HETATM   33  NBL   D T1356     -12.606   6.472  -1.642  1.00 41.70     0.142 N 
HETATM   34  CAT   D T1356     -13.543   7.248  -0.796  1.00 43.12     0.282 C 
HETATM   35  CAQ   D T1356     -14.788   6.396  -0.467  1.00 43.52     0.178 C 
HETATM   36  OBA   D T1356     -14.717   5.102  -1.164  1.00 44.22    -0.350 OA
HETATM   37  CAR   D T1356     -13.515   4.325  -0.832  1.00 43.52     0.178 C 
HETATM   38  CAU   D T1356     -12.252   5.200  -0.973  1.00 42.73     0.282 C 
ENDBRANCH  32  33
ENDBRANCH  31  32
ENDBRANCH  30  31
ENDBRANCH  29  30
ENDBRANCH   1  29
TORSDOF 10
ENDMDL
MODEL 4
REMARK VINA RESULT:    -8.013      1.547      2.327
REMARK INTER + INTRA:         -14.249
REMARK INTER:                 -12.936
REMARK INTRA:                  -1.314
REMARK UNBOUND:                -1.552
REMARK  10 active torsions:
REMARK  status: ('A' for Active; 'I' for Inactive)
REMARK    1  A    between atoms: NBL_6  and  CAS_7 
REMARK    2  A    between atoms: CAS_7  and  CAO_8 
REMARK    3  A    between atoms: CAO_8  and  CAP_9 
REMARK    4  A    between atoms: CAP_9  and  OBB_10 
REMARK    5  A    between atoms: OBB_10  and  CBH_11 
REMARK    6  A    between atoms: CBG_13  and  OAZ_14 
REMARK    7  A    between atoms: C6_22  and  NAY_23 
REMARK    8  A    between atoms: NAY_23  and  CBE_24 
REMARK    9  A    between atoms: CBD_29  and  NAX_30 
REMARK       I    between atoms: NAX_30  and  CBC_31 
REMARK   10  A    between atoms: CBC_31  and  CBF_33 
ROOT
HETATM    1  CBH   D T1356     -10.373   4.146  -4.658  1.00 30.53     0.118 A 
HETATM    2  CAM   D T1356      -9.414   3.463  -5.416  1.00 29.88     0.045 A 
HETATM    3  CBG   D T1356     -11.741   3.930  -4.919  1.00 30.48     0.117 A 
HETATM    4  CAN   D T1356     -12.142   3.055  -5.928  1.00 29.67     0.031 A 
HETATM    5  C5    D T1356     -11.187   2.368  -6.686  1.00 29.79     0.056 A 
HETATM    6  C4    D T1356      -9.822   2.578  -6.422  1.00 29.99     0.088 A 
HETATM    7  N3    D T1356      -8.891   1.930  -7.139  1.00 29.16    -0.224 NA
HETATM    8  C2    D T1356      -9.265   1.040  -8.154  1.00 30.02     0.200 A 
HETATM    9  N1    D T1356     -10.628   0.824  -8.414  1.00 29.74    -0.205 NA
HETATM   10  C6    D T1356     -11.565   1.473  -7.700  1.00 29.94     0.166 A 
ENDROOT
BRANCH  10  11
HETATM   11  NAY   D T1356     -12.895   1.307  -7.924  1.00 31.31    -0.227 NA
BRANCH  11  12
HETATM   12  CBE   D T1356     -13.460   0.070  -7.890  1.00 32.67     0.083 A 
HETATM   13  CAK   D T1356     -14.191  -0.381  -8.991  1.00 33.73     0.021 A 
HETATM   14  CAI   D T1356     -14.776  -1.650  -8.993  1.00 34.14     0.021 A 
HETATM   15  CBD   D T1356     -14.621  -2.507  -7.894  1.00 33.99     0.085 A 
HETATM   16  CAH   D T1356     -13.894  -2.058  -6.792  1.00 33.61     0.021 A 
HETATM   17  CAJ   D T1356     -13.313  -0.789  -6.796  1.00 33.42     0.021 A 
BRANCH  15  18
HETATM   18  NAX   D T1356     -15.190  -3.736  -7.833  1.00 34.41    -0.208 NA
HETATM   19  CBC   D T1356     -16.362  -3.951  -7.191  1.00 37.04     0.279 C 
HETATM   20  OAB   D T1356     -17.028  -3.081  -6.622  1.00 38.15    -0.265 OA
BRANCH  19  21
HETATM   21  CBF   D T1356     -16.800  -5.279  -7.205  1.00 37.03     0.058 A 
HETATM   22  CAF   D T1356     -17.904  -5.659  -6.440  1.00 38.06     0.005 A 
HETATM   23  CAD   D T1356     -18.336  -6.982  -6.445  1.00 38.28     0.000 A 
HETATM   24  CAC   D T1356     -17.666  -7.934  -7.212  1.00 38.02     0.000 A 
HETATM   25  CAE   D T1356     -16.568  -7.557  -7.981  1.00 37.90     0.000 A 
HETATM   26  CAG   D T1356     -16.132  -6.235  -7.969  1.00 37.23     0.005 A 
ENDBRANCH  19  21
ENDBRANCH  15  18
ENDBRANCH  11  12
ENDBRANCH  10  11
BRANCH   3  27
HETATM   27  OAZ   D T1356     -12.682   4.618  -4.188  1.00 30.66    -0.326 OA
HETATM   28  CAA   D T1356     -14.016   4.105  -4.210  1.00 33.36     0.181 C 
ENDBRANCH   3  27
BRANCH   1  29
HETATM   29  OBB   D T1356     -10.065   5.031  -3.654  1.00 30.55    -0.329 OA
BRANCH  29  30
HETATM   30  CAP   D T1356     -10.257   6.447  -3.873  1.00 33.72     0.151 C 
BRANCH  30  31
HETATM   31  CAO   D T1356     -10.524   7.137  -2.523  1.00 37.07     0.068 C 
BRANCH  31  32
HETATM   32  CAS   D T1356     -11.959   7.683  -2.521  1.00 39.71     0.253 C 
BRANCH  32  33
HETATM   33  NBL   D T1356     -12.962   7.000  -1.669  1.00 41.70     0.142 N 
HETATM   34  CAT   D T1356     -13.565   7.848  -0.614  1.00 43.12     0.282 C 
HETATM   35  CAQ   D T1356     -14.681   7.070   0.115  1.00 43.52     0.178 C 
HETATM   36  OBA   D T1356     -14.877   5.754  -0.512  1.00 44.22    -0.350 OA
HETATM   37  CAR   D T1356     -13.663   4.927  -0.527  1.00 43.52     0.178 C 
HETATM   38  CAU   D T1356     -12.470   5.733  -1.084  1.00 42.73     0.282 C 
ENDBRANCH  32  33
ENDBRANCH  31  32
ENDBRANCH  30  31
ENDBRANCH  29  30
ENDBRANCH   1  29
TORSDOF 10
ENDMDL
MODEL 5
REMARK VINA RESULT:    -7.970      6.571     10.954
REMARK INTER + INTRA:         -14.182
REMARK INTER:                 -12.360
REMARK INTRA:                  -1.822
REMARK UNBOUND:                -1.552
REMARK  10 active torsions:
REMARK  status: ('A' for Active; 'I' for Inactive)
REMARK    1  A    between atoms: NBL_6  and  CAS_7 
REMARK    2  A    between atoms: CAS_7  and  CAO_8 
REMARK    3  A    between atoms: CAO_8  and  CAP_9 
REMARK    4  A    between atoms: CAP_9  and  OBB_10 
REMARK    5  A    between atoms: OBB_10  and  CBH_11 
REMARK    6  A    between atoms: CBG_13  and  OAZ_14 
REMARK    7  A    between atoms: C6_22  and  NAY_23 
REMARK    8  A    between atoms: NAY_23  and  CBE_24 
REMARK    9  A    between atoms: CBD_29  and  NAX_30 
REMARK       I    between atoms: NAX_30  and  CBC_31 
REMARK   10  A    between atoms: CBC_31  and  CBF_33 
ROOT
HETATM    1  CBH   D T1356     -21.030   7.355  -0.303  1.00 30.53     0.118 A 
HETATM    2  CAM   D T1356     -21.075   6.065   0.237  1.00 29.88     0.045 A 
HETATM    3  CBG   D T1356     -19.785   7.916  -0.650  1.00 30.48     0.117 A 
HETATM    4  CAN   D T1356     -18.604   7.202  -0.450  1.00 29.67     0.031 A 
HETATM    5  C5    D T1356     -18.644   5.910   0.087  1.00 29.79     0.056 A 
HETATM    6  C4    D T1356     -19.887   5.348   0.427  1.00 29.99     0.088 A 
HETATM    7  N3    D T1356     -19.946   4.111   0.944  1.00 29.16    -0.224 NA
HETATM    8  C2    D T1356     -18.777   3.368   1.151  1.00 30.02     0.200 A 
HETATM    9  N1    D T1356     -17.535   3.925   0.805  1.00 29.74    -0.205 NA
HETATM   10  C6    D T1356     -17.470   5.166   0.288  1.00 29.94     0.166 A 
ENDROOT
BRANCH  10  11
HETATM   11  NAY   D T1356     -16.292   5.753  -0.048  1.00 31.31    -0.227 NA
BRANCH  11  12
HETATM   12  CBE   D T1356     -15.498   5.219  -1.016  1.00 32.67     0.083 A 
HETATM   13  CAK   D T1356     -15.834   5.406  -2.359  1.00 33.73     0.021 A 
HETATM   14  CAI   D T1356     -15.035   4.880  -3.378  1.00 34.14     0.021 A 
HETATM   15  CBD   D T1356     -13.865   4.171  -3.072  1.00 33.99     0.085 A 
HETATM   16  CAH   D T1356     -13.530   3.980  -1.732  1.00 33.61     0.021 A 
HETATM   17  CAJ   D T1356     -14.331   4.507  -0.718  1.00 33.42     0.021 A 
BRANCH  15  18
HETATM   18  NAX   D T1356     -13.071   3.617  -4.020  1.00 34.41    -0.208 NA
HETATM   19  CBC   D T1356     -11.920   4.205  -4.424  1.00 37.04     0.279 C 
HETATM   20  OAB   D T1356     -11.473   5.266  -3.977  1.00 38.15    -0.265 OA
BRANCH  19  21
HETATM   21  CBF   D T1356     -11.231   3.514  -5.424  1.00 37.03     0.058 A 
HETATM   22  CAF   D T1356      -9.835   3.531  -5.452  1.00 38.06     0.005 A 
HETATM   23  CAD   D T1356      -9.147   2.850  -6.452  1.00 38.28     0.000 A 
HETATM   24  CAC   D T1356      -9.850   2.151  -7.433  1.00 38.02     0.000 A 
HETATM   25  CAE   D T1356     -11.241   2.127  -7.405  1.00 37.90     0.000 A 
HETATM   26  CAG   D T1356     -11.929   2.814  -6.409  1.00 37.23     0.005 A 
ENDBRANCH  19  21
ENDBRANCH  15  18
ENDBRANCH  11  12
ENDBRANCH  10  11
BRANCH   3  27
HETATM   27  OAZ   D T1356     -19.741   9.193  -1.161  1.00 30.66    -0.326 OA
HETATM   28  CAA   D T1356     -20.265   9.379  -2.478  1.00 33.36     0.181 C 
ENDBRANCH   3  27
BRANCH   1  29
HETATM   29  OBB   D T1356     -22.143   8.131  -0.525  1.00 30.55    -0.329 OA
BRANCH  29  30
HETATM   30  CAP   D T1356     -23.317   7.533  -1.119  1.00 33.72     0.151 C 
BRANCH  30  31
HETATM   31  CAO   D T1356     -23.224   7.649  -2.651  1.00 37.07     0.068 C 
BRANCH  31  32
HETATM   32  CAS   D T1356     -23.483   6.267  -3.268  1.00 39.71     0.253 C 
BRANCH  32  33
HETATM   33  NBL   D T1356     -22.386   5.271  -3.230  1.00 41.70     0.142 N 
HETATM   34  CAT   D T1356     -21.040   5.813  -3.534  1.00 43.12     0.282 C 
HETATM   35  CAQ   D T1356     -19.971   4.718  -3.333  1.00 43.52     0.178 C 
HETATM   36  OBA   D T1356     -20.593   3.490  -2.812  1.00 44.22    -0.350 OA
HETATM   37  CAR   D T1356     -21.652   2.958  -3.680  1.00 43.52     0.178 C 
HETATM   38  CAU   D T1356     -22.650   4.072  -4.057  1.00 42.73     0.282 C 
ENDBRANCH  32  33
ENDBRANCH  31  32
ENDBRANCH  30  31
ENDBRANCH  29  30
ENDBRANCH   1  29
TORSDOF 10
ENDMDL
MODEL 6
REMARK VINA RESULT:    -7.763      5.457      8.869
REMARK INTER + INTRA:         -13.853
REMARK INTER:                 -12.226
REMARK INTRA:                  -1.628
REMARK UNBOUND:                -1.552
REMARK  10 active torsions:
REMARK  status: ('A' for Active; 'I' for Inactive)
REMARK    1  A    between atoms: NBL_6  and  CAS_7 
REMARK    2  A    between atoms: CAS_7  and  CAO_8 
REMARK    3  A    between atoms: CAO_8  and  CAP_9 
REMARK    4  A    between atoms: CAP_9  and  OBB_10 
REMARK    5  A    between atoms: OBB_10  and  CBH_11 
REMARK    6  A    between atoms: CBG_13  and  OAZ_14 
REMARK    7  A    between atoms: C6_22  and  NAY_23 
REMARK    8  A    between atoms: NAY_23  and  CBE_24 
REMARK    9  A    between atoms: CBD_29  and  NAX_30 
REMARK       I    between atoms: NAX_30  and  CBC_31 
REMARK   10  A    between atoms: CBC_31  and  CBF_33 
ROOT
HETATM    1  CBH   D T1356     -20.315   4.893  -1.513  1.00 30.53     0.118 A 
HETATM    2  CAM   D T1356     -20.671   5.485  -2.730  1.00 29.88     0.045 A 
HETATM    3  CBG   D T1356     -19.596   3.681  -1.518  1.00 30.48     0.117 A 
HETATM    4  CAN   D T1356     -19.250   3.066  -2.721  1.00 29.67     0.031 A 
HETATM    5  C5    D T1356     -19.601   3.656  -3.941  1.00 29.79     0.056 A 
HETATM    6  C4    D T1356     -20.313   4.869  -3.936  1.00 29.99     0.088 A 
HETATM    7  N3    D T1356     -20.660   5.449  -5.095  1.00 29.16    -0.224 NA
HETATM    8  C2    D T1356     -20.320   4.858  -6.318  1.00 30.02     0.200 A 
HETATM    9  N1    D T1356     -19.603   3.650  -6.326  1.00 29.74    -0.205 NA
HETATM   10  C6    D T1356     -19.255   3.063  -5.167  1.00 29.94     0.166 A 
ENDROOT
BRANCH  10  11
HETATM   11  NAY   D T1356     -18.574   1.888  -5.122  1.00 31.31    -0.227 NA
BRANCH  11  12
HETATM   12  CBE   D T1356     -17.222   1.859  -5.268  1.00 32.67     0.083 A 
HETATM   13  CAK   D T1356     -16.635   0.842  -6.023  1.00 33.73     0.021 A 
HETATM   14  CAI   D T1356     -15.250   0.788  -6.200  1.00 34.14     0.021 A 
HETATM   15  CBD   D T1356     -14.421   1.771  -5.640  1.00 33.99     0.085 A 
HETATM   16  CAH   D T1356     -15.005   2.786  -4.882  1.00 33.61     0.021 A 
HETATM   17  CAJ   D T1356     -16.389   2.834  -4.708  1.00 33.42     0.021 A 
BRANCH  15  18
HETATM   18  NAX   D T1356     -13.071   1.751  -5.758  1.00 34.41    -0.208 NA
HETATM   19  CBC   D T1356     -12.424   2.472  -6.704  1.00 37.04     0.279 C 
HETATM   20  OAB   D T1356     -12.970   3.214  -7.526  1.00 38.15    -0.265 OA
BRANCH  19  21
HETATM   21  CBF   D T1356     -11.034   2.321  -6.703  1.00 37.03     0.058 A 
HETATM   22  CAF   D T1356     -10.418   1.508  -7.657  1.00 38.06     0.005 A 
HETATM   23  CAD   D T1356      -9.036   1.349  -7.653  1.00 38.28     0.000 A 
HETATM   24  CAC   D T1356      -8.260   1.999  -6.694  1.00 38.02     0.000 A 
HETATM   25  CAE   D T1356      -8.870   2.815  -5.746  1.00 37.90     0.000 A 
HETATM   26  CAG   D T1356     -10.254   2.968  -5.746  1.00 37.23     0.005 A 
ENDBRANCH  19  21
ENDBRANCH  15  18
ENDBRANCH  11  12
ENDBRANCH  10  11
BRANCH   3  27
HETATM   27  OAZ   D T1356     -19.265   3.089  -0.321  1.00 30.66    -0.326 OA
HETATM   28  CAA   D T1356     -17.874   2.875  -0.071  1.00 33.36     0.181 C 
ENDBRANCH   3  27
BRANCH   1  29
HETATM   29  OBB   D T1356     -20.624   5.425  -0.285  1.00 30.55    -0.329 OA
BRANCH  29  30
HETATM   30  CAP   D T1356     -21.153   6.767  -0.206  1.00 33.72     0.151 C 
BRANCH  30  31
HETATM   31  CAO   D T1356     -20.244   7.618   0.699  1.00 37.07     0.068 C 
BRANCH  31  32
HETATM   32  CAS   D T1356     -19.025   8.077  -0.115  1.00 39.71     0.253 C 
BRANCH  32  33
HETATM   33  NBL   D T1356     -17.691   7.566   0.282  1.00 41.70     0.142 N 
HETATM   34  CAT   D T1356     -17.134   6.520  -0.607  1.00 43.12     0.282 C 
HETATM   35  CAQ   D T1356     -15.696   6.166  -0.171  1.00 43.52     0.178 C 
HETATM   36  OBA   D T1356     -15.273   7.035   0.939  1.00 44.22    -0.350 OA
HETATM   37  CAR   D T1356     -16.153   6.953   2.113  1.00 43.52     0.178 C 
HETATM   38  CAU   D T1356     -17.628   7.121   1.692  1.00 42.73     0.282 C 
ENDBRANCH  32  33
ENDBRANCH  31  32
ENDBRANCH  30  31
ENDBRANCH  29  30
ENDBRANCH   1  29
TORSDOF 10
ENDMDL
MODEL 7
REMARK VINA RESULT:    -7.345      6.863     10.792
REMARK INTER + INTRA:         -13.191
REMARK INTER:                 -11.462
REMARK INTRA:                  -1.730
REMARK UNBOUND:                -1.552
REMARK  10 active torsions:
REMARK  status: ('A' for Active; 'I' for Inactive)
REMARK    1  A    between atoms: NBL_6  and  CAS_7 
REMARK    2  A    between atoms: CAS_7  and  CAO_8 
REMARK    3  A    between atoms: CAO_8  and  CAP_9 
REMARK    4  A    between atoms: CAP_9  and  OBB_10 
REMARK    5  A    between atoms: OBB_10  and  CBH_11 
REMARK    6  A    between atoms: CBG_13  and  OAZ_14 
REMARK    7  A    between atoms: C6_22  and  NAY_23 
REMARK    8  A    between atoms: NAY_23  and  CBE_24 
REMARK    9  A    between atoms: CBD_29  and  NAX_30 
REMARK       I    between atoms: NAX_30  and  CBC_31 
REMARK   10  A    between atoms: CBC_31  and  CBF_33 
ROOT
HETATM    1  CBH   D T1356     -21.102   7.277  -1.096  1.00 30.53     0.118 A 
HETATM    2  CAM   D T1356     -20.249   7.815  -0.125  1.00 29.88     0.045 A 
HETATM    3  CBG   D T1356     -20.795   6.027  -1.670  1.00 30.48     0.117 A 
HETATM    4  CAN   D T1356     -19.649   5.332  -1.285  1.00 29.67     0.031 A 
HETATM    5  C5    D T1356     -18.795   5.864  -0.312  1.00 29.79     0.056 A 
HETATM    6  C4    D T1356     -19.105   7.108   0.265  1.00 29.99     0.088 A 
HETATM    7  N3    D T1356     -18.298   7.635   1.199  1.00 29.16    -0.224 NA
HETATM    8  C2    D T1356     -17.143   6.957   1.609  1.00 30.02     0.200 A 
HETATM    9  N1    D T1356     -16.836   5.710   1.039  1.00 29.74    -0.205 NA
HETATM   10  C6    D T1356     -17.640   5.178   0.101  1.00 29.94     0.166 A 
ENDROOT
BRANCH  10  11
HETATM   11  NAY   D T1356     -17.378   3.983  -0.490  1.00 31.31    -0.227 NA
BRANCH  11  12
HETATM   12  CBE   D T1356     -16.324   3.841  -1.339  1.00 32.67     0.083 A 
HETATM   13  CAK   D T1356     -16.125   4.785  -2.348  1.00 33.73     0.021 A 
HETATM   14  CAI   D T1356     -15.048   4.674  -3.231  1.00 34.14     0.021 A 
HETATM   15  CBD   D T1356     -14.129   3.622  -3.106  1.00 33.99     0.085 A 
HETATM   16  CAH   D T1356     -14.328   2.677  -2.101  1.00 33.61     0.021 A 
HETATM   17  CAJ   D T1356     -15.406   2.792  -1.222  1.00 33.42     0.021 A 
BRANCH  15  18
HETATM   18  NAX   D T1356     -13.084   3.453  -3.952  1.00 34.41    -0.208 NA
HETATM   19  CBC   D T1356     -13.214   2.795  -5.129  1.00 37.04     0.279 C 
HETATM   20  OAB   D T1356     -14.265   2.306  -5.554  1.00 38.15    -0.265 OA
BRANCH  19  21
HETATM   21  CBF   D T1356     -12.034   2.691  -5.872  1.00 37.03     0.058 A 
HETATM   22  CAF   D T1356     -10.851   3.250  -5.386  1.00 38.06     0.005 A 
HETATM   23  CAD   D T1356      -9.677   3.156  -6.128  1.00 38.28     0.000 A 
HETATM   24  CAC   D T1356      -9.679   2.506  -7.362  1.00 38.02     0.000 A 
HETATM   25  CAE   D T1356     -10.856   1.943  -7.846  1.00 37.90     0.000 A 
HETATM   26  CAG   D T1356     -12.032   2.044  -7.107  1.00 37.23     0.005 A 
ENDBRANCH  19  21
ENDBRANCH  15  18
ENDBRANCH  11  12
ENDBRANCH  10  11
BRANCH   3  27
HETATM   27  OAZ   D T1356     -21.622   5.511  -2.640  1.00 30.66    -0.326 OA
HETATM   28  CAA   D T1356     -21.059   4.522  -3.506  1.00 33.36     0.181 C 
ENDBRANCH   3  27
BRANCH   1  29
HETATM   29  OBB   D T1356     -22.244   7.899  -1.539  1.00 30.55    -0.329 OA
BRANCH  29  30
HETATM   30  CAP   D T1356     -22.202   9.303  -1.878  1.00 33.72     0.151 C 
BRANCH  30  31
HETATM   31  CAO   D T1356     -21.846   9.455  -3.368  1.00 37.07     0.068 C 
BRANCH  31  32
HETATM   32  CAS   D T1356     -23.145   9.490  -4.186  1.00 39.71     0.253 C 
BRANCH  32  33
HETATM   33  NBL   D T1356     -23.553   8.255  -4.897  1.00 41.70     0.142 N 
HETATM   34  CAT   D T1356     -24.521   7.404  -4.165  1.00 43.12     0.282 C 
HETATM   35  CAQ   D T1356     -24.968   6.225  -5.055  1.00 43.52     0.178 C 
HETATM   36  OBA   D T1356     -24.373   6.346  -6.395  1.00 44.22    -0.350 OA
HETATM   37  CAR   D T1356     -22.904   6.391  -6.380  1.00 43.52     0.178 C 
HETATM   38  CAU   D T1356     -22.409   7.439  -5.361  1.00 42.73     0.282 C 
ENDBRANCH  32  33
ENDBRANCH  31  32
ENDBRANCH  30  31
ENDBRANCH  29  30
ENDBRANCH   1  29
TORSDOF 10
ENDMDL
MODEL 8
REMARK VINA RESULT:    -7.316     14.008     18.194
REMARK INTER + INTRA:         -13.145
REMARK INTER:                 -10.903
REMARK INTRA:                  -2.242
REMARK UNBOUND:                -1.552
REMARK  10 active torsions:
REMARK  status: ('A' for Active; 'I' for Inactive)
REMARK    1  A    between atoms: NBL_6  and  CAS_7 
REMARK    2  A    between atoms: CAS_7  and  CAO_8 
REMARK    3  A    between atoms: CAO_8  and  CAP_9 
REMARK    4  A    between atoms: CAP_9  and  OBB_10 
REMARK    5  A    between atoms: OBB_10  and  CBH_11 
REMARK    6  A    between atoms: CBG_13  and  OAZ_14 
REMARK    7  A    between atoms: C6_22  and  NAY_23 
REMARK    8  A    between atoms: NAY_23  and  CBE_24 
REMARK    9  A    between atoms: CBD_29  and  NAX_30 
REMARK       I    between atoms: NAX_30  and  CBC_31 
REMARK   10  A    between atoms: CBC_31  and  CBF_33 
ROOT
HETATM    1  CBH   D T1356      -4.186  -7.025 -11.736  1.00 30.53     0.118 A 
HETATM    2  CAM   D T1356      -3.214  -6.689 -10.787  1.00 29.88     0.045 A 
HETATM    3  CBG   D T1356      -4.467  -6.126 -12.785  1.00 30.48     0.117 A 
HETATM    4  CAN   D T1356      -3.794  -4.908 -12.875  1.00 29.67     0.031 A 
HETATM    5  C5    D T1356      -2.819  -4.569 -11.930  1.00 29.79     0.056 A 
HETATM    6  C4    D T1356      -2.534  -5.469 -10.887  1.00 29.99     0.088 A 
HETATM    7  N3    D T1356      -1.604  -5.161  -9.970  1.00 29.16    -0.224 NA
HETATM    8  C2    D T1356      -0.908  -3.948 -10.039  1.00 30.02     0.200 A 
HETATM    9  N1    D T1356      -1.186  -3.051 -11.084  1.00 29.74    -0.205 NA
HETATM   10  C6    D T1356      -2.120  -3.353 -12.004  1.00 29.94     0.166 A 
ENDROOT
BRANCH  10  11
HETATM   11  NAY   D T1356      -2.434  -2.513 -13.024  1.00 31.31    -0.227 NA
BRANCH  11  12
HETATM   12  CBE   D T1356      -1.888  -2.680 -14.260  1.00 32.67     0.083 A 
HETATM   13  CAK   D T1356      -0.504  -2.581 -14.417  1.00 33.73     0.021 A 
HETATM   14  CAI   D T1356       0.090  -2.757 -15.669  1.00 34.14     0.021 A 
HETATM   15  CBD   D T1356      -0.692  -3.060 -16.793  1.00 33.99     0.085 A 
HETATM   16  CAH   D T1356      -2.075  -3.156 -16.639  1.00 33.61     0.021 A 
HETATM   17  CAJ   D T1356      -2.663  -2.979 -15.385  1.00 33.42     0.021 A 
BRANCH  15  18
HETATM   18  NAX   D T1356      -0.170  -3.213 -18.034  1.00 34.41    -0.208 NA
HETATM   19  CBC   D T1356       0.354  -4.390 -18.451  1.00 37.04     0.279 C 
HETATM   20  OAB   D T1356       0.398  -5.424 -17.776  1.00 38.15    -0.265 OA
BRANCH  19  21
HETATM   21  CBF   D T1356       0.870  -4.372 -19.750  1.00 37.03     0.058 A 
HETATM   22  CAF   D T1356       2.115  -4.945 -20.015  1.00 38.06     0.005 A 
HETATM   23  CAD   D T1356       2.635  -4.921 -21.306  1.00 38.28     0.000 A 
HETATM   24  CAC   D T1356       1.916  -4.320 -22.338  1.00 38.02     0.000 A 
HETATM   25  CAE   D T1356       0.672  -3.753 -22.078  1.00 37.90     0.000 A 
HETATM   26  CAG   D T1356       0.155  -3.771 -20.785  1.00 37.23     0.005 A 
ENDBRANCH  19  21
ENDBRANCH  15  18
ENDBRANCH  11  12
ENDBRANCH  10  11
BRANCH   3  27
HETATM   27  OAZ   D T1356      -5.437  -6.448 -13.705  1.00 30.66    -0.326 OA
HETATM   28  CAA   D T1356      -6.104  -5.357 -14.346  1.00 33.36     0.181 C 
ENDBRANCH   3  27
BRANCH   1  29
HETATM   29  OBB   D T1356      -4.901  -8.198 -11.717  1.00 30.55    -0.329 OA
BRANCH  29  30
HETATM   30  CAP   D T1356      -4.277  -9.417 -12.178  1.00 33.72     0.151 C 
BRANCH  30  31
HETATM   31  CAO   D T1356      -4.996  -9.906 -13.448  1.00 37.07     0.068 C 
BRANCH  31  32
HETATM   32  CAS   D T1356      -3.980  -9.977 -14.597  1.00 39.71     0.253 C 
BRANCH  32  33
HETATM   33  NBL   D T1356      -3.728  -8.743 -15.380  1.00 41.70     0.142 N 
HETATM   34  CAT   D T1356      -4.054  -8.842 -16.822  1.00 43.12     0.282 C 
HETATM   35  CAQ   D T1356      -3.878  -7.466 -17.499  1.00 43.52     0.178 C 
HETATM   36  OBA   D T1356      -3.527  -6.447 -16.497  1.00 44.22    -0.350 OA
HETATM   37  CAR   D T1356      -2.303  -6.762 -15.748  1.00 43.52     0.178 C 
HETATM   38  CAU   D T1356      -2.361  -8.204 -15.203  1.00 42.73     0.282 C 
ENDBRANCH  32  33
ENDBRANCH  31  32
ENDBRANCH  30  31
ENDBRANCH  29  30
ENDBRANCH   1  29
TORSDOF 10
ENDMDL
MODEL 9
REMARK VINA RESULT:    -7.225     14.165     18.539
REMARK INTER + INTRA:         -13.000
REMARK INTER:                 -11.336
REMARK INTRA:                  -1.664
REMARK UNBOUND:                -1.552
REMARK  10 active torsions:
REMARK  status: ('A' for Active; 'I' for Inactive)
REMARK    1  A    between atoms: NBL_6  and  CAS_7 
REMARK    2  A    between atoms: CAS_7  and  CAO_8 
REMARK    3  A    between atoms: CAO_8  and  CAP_9 
REMARK    4  A    between atoms: CAP_9  and  OBB_10 
REMARK    5  A    between atoms: OBB_10  and  CBH_11 
REMARK    6  A    between atoms: CBG_13  and  OAZ_14 
REMARK    7  A    between atoms: C6_22  and  NAY_23 
REMARK    8  A    between atoms: NAY_23  and  CBE_24 
REMARK    9  A    between atoms: CBD_29  and  NAX_30 
REMARK       I    between atoms: NAX_30  and  CBC_31 
REMARK   10  A    between atoms: CBC_31  and  CBF_33 
ROOT
HETATM    1  CBH   D T1356      -3.242  -5.145 -11.502  1.00 30.53     0.118 A 
HETATM    2  CAM   D T1356      -2.161  -4.497 -10.892  1.00 29.88     0.045 A 
HETATM    3  CBG   D T1356      -3.557  -4.850 -12.843  1.00 30.48     0.117 A 
HETATM    4  CAN   D T1356      -2.811  -3.915 -13.558  1.00 29.67     0.031 A 
HETATM    5  C5    D T1356      -1.728  -3.266 -12.954  1.00 29.79     0.056 A 
HETATM    6  C4    D T1356      -1.409  -3.565 -11.618  1.00 29.99     0.088 A 
HETATM    7  N3    D T1356      -0.375  -2.952 -11.020  1.00 29.16    -0.224 NA
HETATM    8  C2    D T1356       0.396  -2.013 -11.716  1.00 30.02     0.200 A 
HETATM    9  N1    D T1356       0.084  -1.718 -13.053  1.00 29.74    -0.205 NA
HETATM   10  C6    D T1356      -0.953  -2.328 -13.656  1.00 29.94     0.166 A 
ENDROOT
BRANCH  10  11
HETATM   11  NAY   D T1356      -1.303  -2.066 -14.943  1.00 31.31    -0.227 NA
BRANCH  11  12
HETATM   12  CBE   D T1356      -0.767  -2.779 -15.970  1.00 32.67     0.083 A 
HETATM   13  CAK   D T1356       0.511  -3.324 -15.833  1.00 33.73     0.021 A 
HETATM   14  CAI   D T1356       1.088  -4.069 -16.865  1.00 34.14     0.021 A 
HETATM   15  CBD   D T1356       0.382  -4.305 -18.054  1.00 33.99     0.085 A 
HETATM   16  CAH   D T1356      -0.893  -3.758 -18.195  1.00 33.61     0.021 A 
HETATM   17  CAJ   D T1356      -1.463  -3.014 -17.161  1.00 33.42     0.021 A 
BRANCH  15  18
HETATM   18  NAX   D T1356       0.905  -4.997 -19.095  1.00 34.41    -0.208 NA
HETATM   19  CBC   D T1356       1.781  -4.435 -19.961  1.00 37.04     0.279 C 
HETATM   20  OAB   D T1356       2.199  -3.275 -19.892  1.00 38.15    -0.265 OA
BRANCH  19  21
HETATM   21  CBF   D T1356       2.208  -5.279 -20.990  1.00 37.03     0.058 A 
HETATM   22  CAF   D T1356       2.971  -6.410 -20.695  1.00 38.06     0.005 A 
HETATM   23  CAD   D T1356       3.404  -7.248 -21.718  1.00 38.28     0.000 A 
HETATM   24  CAC   D T1356       3.080  -6.960 -23.043  1.00 38.02     0.000 A 
HETATM   25  CAE   D T1356       2.313  -5.837 -23.340  1.00 37.90     0.000 A 
HETATM   26  CAG   D T1356       1.886  -4.994 -22.317  1.00 37.23     0.005 A 
ENDBRANCH  19  21
ENDBRANCH  15  18
ENDBRANCH  11  12
ENDBRANCH  10  11
BRANCH   3  27
HETATM   27  OAZ   D T1356      -4.632  -5.472 -13.434  1.00 30.66    -0.326 OA
HETATM   28  CAA   D T1356      -5.814  -4.687 -13.611  1.00 33.36     0.181 C 
ENDBRANCH   3  27
BRANCH   1  29
HETATM   29  OBB   D T1356      -4.034  -6.071 -10.868  1.00 30.55    -0.329 OA
BRANCH  29  30
HETATM   30  CAP   D T1356      -3.424  -7.241 -10.277  1.00 33.72     0.151 C 
BRANCH  30  31
HETATM   31  CAO   D T1356      -2.750  -8.073 -11.383  1.00 37.07     0.068 C 
BRANCH  31  32
HETATM   32  CAS   D T1356      -3.752  -9.116 -11.899  1.00 39.71     0.253 C 
BRANCH  32  33
HETATM   33  NBL   D T1356      -4.463  -8.828 -13.168  1.00 41.70     0.142 N 
HETATM   34  CAT   D T1356      -5.940  -8.777 -13.058  1.00 43.12     0.282 C 
HETATM   35  CAQ   D T1356      -6.556  -8.341 -14.404  1.00 43.52     0.178 C 
HETATM   36  OBA   D T1356      -5.493  -8.019 -15.369  1.00 44.22    -0.350 OA
HETATM   37  CAR   D T1356      -4.569  -9.134 -15.615  1.00 43.52     0.178 C 
HETATM   38  CAU   D T1356      -4.067  -9.722 -14.279  1.00 42.73     0.282 C 
ENDBRANCH  32  33
ENDBRANCH  31  32
ENDBRANCH  30  31
ENDBRANCH  29  30
ENDBRANCH   1  29
TORSDOF 10
ENDMDL
