MODEL 1
REMARK VINA RESULT:    -7.483      0.000      0.000
REMARK INTER + INTRA:         -13.413
REMARK INTER:                 -11.857
REMARK INTRA:                  -1.556
REMARK UNBOUND:                -1.556
REMARK  10 active torsions:
REMARK  status: ('A' for Active; 'I' for Inactive)
REMARK    1  A    between atoms: NBL_6  and  CAS_7 
REMARK    2  A    between atoms: CAS_7  and  CAO_8 
REMARK    3  A    between atoms: CAO_8  and  CAP_9 
REMARK    4  A    between atoms: CAP_9  and  OBB_10 
REMARK    5  A    between atoms: OBB_10  and  CBH_11 
REMARK    6  A    between atoms: CBG_13  and  OAZ_14 
REMARK    7  A    between atoms: C6_22  and  NAY_23 
REMARK    8  A    between atoms: NAY_23  and  CBE_24 
REMARK    9  A    between atoms: CBD_29  and  NAX_30 
REMARK       I    between atoms: NAX_30  and  CBC_31 
REMARK   10  A    between atoms: CBC_31  and  CBF_33 
ROOT
HETATM    1  CBH   D T1356       9.236   7.437  13.531  1.00 30.53     0.118 A 
HETATM    2  CAM   D T1356       8.709   6.789  14.655  1.00 29.88     0.045 A 
HETATM    3  CBG   D T1356       9.047   6.869  12.256  1.00 30.48     0.117 A 
HETATM    4  CAN   D T1356       8.354   5.668  12.109  1.00 29.67     0.031 A 
HETATM    5  C5    D T1356       7.823   5.019  13.228  1.00 29.79     0.056 A 
HETATM    6  C4    D T1356       8.005   5.588  14.501  1.00 29.99     0.088 A 
HETATM    7  N3    D T1356       7.504   4.979  15.588  1.00 29.16    -0.224 NA
HETATM    8  C2    D T1356       6.799   3.776  15.469  1.00 30.02     0.200 A 
HETATM    9  N1    D T1356       6.609   3.208  14.199  1.00 29.74    -0.205 NA
HETATM   10  C6    D T1356       7.110   3.813  13.106  1.00 29.94     0.166 A 
ENDROOT
BRANCH  10  11
HETATM   11  NAY   D T1356       6.967   3.297  11.858  1.00 31.31    -0.227 NA
BRANCH  11  12
HETATM   12  CBE   D T1356       5.938   3.687  11.056  1.00 32.67     0.083 A 
HETATM   13  CAK   D T1356       4.650   3.771  11.589  1.00 33.73     0.021 A 
HETATM   14  CAI   D T1356       3.573   4.178  10.795  1.00 34.14     0.021 A 
HETATM   15  CBD   D T1356       3.769   4.529   9.452  1.00 33.99     0.085 A 
HETATM   16  CAH   D T1356       5.054   4.442   8.919  1.00 33.61     0.021 A 
HETATM   17  CAJ   D T1356       6.126   4.034   9.715  1.00 33.42     0.021 A 
BRANCH  15  18
HETATM   18  NAX   D T1356       2.756   4.904   8.633  1.00 34.41    -0.208 NA
HETATM   19  CBC   D T1356       2.384   6.200   8.501  1.00 37.04     0.279 C 
HETATM   20  OAB   D T1356       2.918   7.153   9.078  1.00 38.15    -0.265 OA
BRANCH  19  21
HETATM   21  CBF   D T1356       1.308   6.412   7.635  1.00 37.03     0.058 A 
HETATM   22  CAF   D T1356       0.229   5.526   7.632  1.00 38.06     0.005 A 
HETATM   23  CAD   D T1356      -0.841   5.729   6.764  1.00 38.28     0.000 A 
HETATM   24  CAC   D T1356      -0.838   6.817   5.893  1.00 38.02     0.000 A 
HETATM   25  CAE   D T1356       0.233   7.707   5.899  1.00 37.90     0.000 A 
HETATM   26  CAG   D T1356       1.307   7.499   6.761  1.00 37.23     0.005 A 
ENDBRANCH  19  21
ENDBRANCH  15  18
ENDBRANCH  11  12
ENDBRANCH  10  11
BRANCH   3  27
HETATM   27  OAZ   D T1356       9.584   7.494  11.153  1.00 30.66    -0.326 OA
HETATM   28  CAA   D T1356       8.659   8.079  10.233  1.00 33.36     0.181 C 
ENDBRANCH   3  27
BRANCH   1  29
HETATM   29  OBB   D T1356       9.939   8.615  13.587  1.00 30.55    -0.329 OA
BRANCH  29  30
HETATM   30  CAP   D T1356       9.320   9.782  14.174  1.00 33.72     0.151 C 
BRANCH  30  31
HETATM   31  CAO   D T1356       8.061  10.149  13.365  1.00 37.07     0.068 C 
BRANCH  31  32
HETATM   32  CAS   D T1356       8.439  11.201  12.313  1.00 39.71     0.253 C 
BRANCH  32  33
HETATM   33  NBL   D T1356       9.872  11.554  12.168  1.00 41.70     0.142 N 
HETATM   34  CAT   D T1356      10.225  12.924  12.607  1.00 43.12     0.282 C 
HETATM   35  CAQ   D T1356      11.753  13.125  12.535  1.00 43.52     0.178 C 
HETATM   36  OBA   D T1356      12.412  11.870  12.141  1.00 44.22    -0.350 OA
HETATM   37  CAR   D T1356      11.947  11.345  10.851  1.00 43.52     0.178 C 
HETATM   38  CAU   D T1356      10.406  11.299  10.813  1.00 42.73     0.282 C 
ENDBRANCH  32  33
ENDBRANCH  31  32
ENDBRANCH  30  31
ENDBRANCH  29  30
ENDBRANCH   1  29
TORSDOF 10
ENDMDL
MODEL 2
REMARK VINA RESULT:    -7.272      3.399      9.772
REMARK INTER + INTRA:         -13.078
REMARK INTER:                 -11.475
REMARK INTRA:                  -1.603
REMARK UNBOUND:                -1.556
REMARK  10 active torsions:
REMARK  status: ('A' for Active; 'I' for Inactive)
REMARK    1  A    between atoms: NBL_6  and  CAS_7 
REMARK    2  A    between atoms: CAS_7  and  CAO_8 
REMARK    3  A    between atoms: CAO_8  and  CAP_9 
REMARK    4  A    between atoms: CAP_9  and  OBB_10 
REMARK    5  A    between atoms: OBB_10  and  CBH_11 
REMARK    6  A    between atoms: CBG_13  and  OAZ_14 
REMARK    7  A    between atoms: C6_22  and  NAY_23 
REMARK    8  A    between atoms: NAY_23  and  CBE_24 
REMARK    9  A    between atoms: CBD_29  and  NAX_30 
REMARK       I    between atoms: NAX_30  and  CBC_31 
REMARK   10  A    between atoms: CBC_31  and  CBF_33 
ROOT
HETATM    1  CBH   D T1356       1.988   6.134   8.155  1.00 30.53     0.118 A 
HETATM    2  CAM   D T1356       3.059   6.499   7.331  1.00 29.88     0.045 A 
HETATM    3  CBG   D T1356       2.203   5.209   9.197  1.00 30.48     0.117 A 
HETATM    4  CAN   D T1356       3.465   4.651   9.402  1.00 29.67     0.031 A 
HETATM    5  C5    D T1356       4.538   5.015   8.584  1.00 29.79     0.056 A 
HETATM    6  C4    D T1356       4.327   5.943   7.547  1.00 29.99     0.088 A 
HETATM    7  N3    D T1356       5.344   6.304   6.750  1.00 29.16    -0.224 NA
HETATM    8  C2    D T1356       6.622   5.765   6.936  1.00 30.02     0.200 A 
HETATM    9  N1    D T1356       6.839   4.843   7.974  1.00 29.74    -0.205 NA
HETATM   10  C6    D T1356       5.822   4.476   8.775  1.00 29.94     0.166 A 
ENDROOT
BRANCH  10  11
HETATM   11  NAY   D T1356       5.977   3.578   9.783  1.00 31.31    -0.227 NA
BRANCH  11  12
HETATM   12  CBE   D T1356       6.546   3.945  10.964  1.00 32.67     0.083 A 
HETATM   13  CAK   D T1356       7.885   4.345  10.983  1.00 33.73     0.021 A 
HETATM   14  CAI   D T1356       8.496   4.737  12.177  1.00 34.14     0.021 A 
HETATM   15  CBD   D T1356       7.772   4.759  13.377  1.00 33.99     0.085 A 
HETATM   16  CAH   D T1356       6.436   4.358  13.359  1.00 33.61     0.021 A 
HETATM   17  CAJ   D T1356       5.830   3.965  12.165  1.00 33.42     0.021 A 
BRANCH  15  18
HETATM   18  NAX   D T1356       8.324   5.106  14.565  1.00 34.41    -0.208 NA
HETATM   19  CBC   D T1356       8.552   6.400  14.898  1.00 37.04     0.279 C 
HETATM   20  OAB   D T1356       8.275   7.373  14.190  1.00 38.15    -0.265 OA
BRANCH  19  21
HETATM   21  CBF   D T1356       9.147   6.583  16.149  1.00 37.03     0.058 A 
HETATM   22  CAF   D T1356       8.991   7.793  16.827  1.00 38.06     0.005 A 
HETATM   23  CAD   D T1356       9.591   7.982  18.069  1.00 38.28     0.000 A 
HETATM   24  CAC   D T1356      10.351   6.963  18.641  1.00 38.02     0.000 A 
HETATM   25  CAE   D T1356      10.504   5.752  17.971  1.00 37.90     0.000 A 
HETATM   26  CAG   D T1356       9.910   5.566  16.724  1.00 37.23     0.005 A 
ENDBRANCH  19  21
ENDBRANCH  15  18
ENDBRANCH  11  12
ENDBRANCH  10  11
BRANCH   3  27
HETATM   27  OAZ   D T1356       1.146   4.834   9.994  1.00 30.66    -0.326 OA
HETATM   28  CAA   D T1356       0.972   3.431  10.211  1.00 33.36     0.181 C 
ENDBRANCH   3  27
BRANCH   1  29
HETATM   29  OBB   D T1356       0.714   6.626   8.017  1.00 30.55    -0.329 OA
BRANCH  29  30
HETATM   30  CAP   D T1356      -0.052   6.290   6.839  1.00 33.72     0.151 C 
BRANCH  30  31
HETATM   31  CAO   D T1356      -0.657   7.576   6.243  1.00 37.07     0.068 C 
BRANCH  31  32
HETATM   32  CAS   D T1356       0.039   7.876   4.908  1.00 39.71     0.253 C 
BRANCH  32  33
HETATM   33  NBL   D T1356       1.413   8.434   4.951  1.00 41.70     0.142 N 
HETATM   34  CAT   D T1356       1.569   9.645   5.789  1.00 43.12     0.282 C 
HETATM   35  CAQ   D T1356       3.056  10.049   5.863  1.00 43.52     0.178 C 
HETATM   36  OBA   D T1356       3.886   9.062   5.156  1.00 44.22    -0.350 OA
HETATM   37  CAR   D T1356       3.516   8.889   3.745  1.00 43.52     0.178 C 
HETATM   38  CAU   D T1356       1.996   8.662   3.611  1.00 42.73     0.282 C 
ENDBRANCH  32  33
ENDBRANCH  31  32
ENDBRANCH  30  31
ENDBRANCH  29  30
ENDBRANCH   1  29
TORSDOF 10
ENDMDL
MODEL 3
REMARK VINA RESULT:    -7.181      1.666      2.709
REMARK INTER + INTRA:         -12.935
REMARK INTER:                 -11.522
REMARK INTRA:                  -1.413
REMARK UNBOUND:                -1.556
REMARK  10 active torsions:
REMARK  status: ('A' for Active; 'I' for Inactive)
REMARK    1  A    between atoms: NBL_6  and  CAS_7 
REMARK    2  A    between atoms: CAS_7  and  CAO_8 
REMARK    3  A    between atoms: CAO_8  and  CAP_9 
REMARK    4  A    between atoms: CAP_9  and  OBB_10 
REMARK    5  A    between atoms: OBB_10  and  CBH_11 
REMARK    6  A    between atoms: CBG_13  and  OAZ_14 
REMARK    7  A    between atoms: C6_22  and  NAY_23 
REMARK    8  A    between atoms: NAY_23  and  CBE_24 
REMARK    9  A    between atoms: CBD_29  and  NAX_30 
REMARK       I    between atoms: NAX_30  and  CBC_31 
REMARK   10  A    between atoms: CBC_31  and  CBF_33 
ROOT
HETATM    1  CBH   D T1356       9.311   7.574  13.243  1.00 30.53     0.118 A 
HETATM    2  CAM   D T1356       8.836   7.005  14.431  1.00 29.88     0.045 A 
HETATM    3  CBG   D T1356       9.074   6.916  12.020  1.00 30.48     0.117 A 
HETATM    4  CAN   D T1356       8.383   5.705  11.987  1.00 29.67     0.031 A 
HETATM    5  C5    D T1356       7.904   5.135  13.171  1.00 29.79     0.056 A 
HETATM    6  C4    D T1356       8.135   5.793  14.392  1.00 29.99     0.088 A 
HETATM    7  N3    D T1356       7.684   5.262  15.539  1.00 29.16    -0.224 NA
HETATM    8  C2    D T1356       6.983   4.050  15.536  1.00 30.02     0.200 A 
HETATM    9  N1    D T1356       6.745   3.393  14.318  1.00 29.74    -0.205 NA
HETATM   10  C6    D T1356       7.196   3.921  13.165  1.00 29.94     0.166 A 
ENDROOT
BRANCH  10  11
HETATM   11  NAY   D T1356       7.004   3.316  11.963  1.00 31.31    -0.227 NA
BRANCH  11  12
HETATM   12  CBE   D T1356       5.945   3.650  11.176  1.00 32.67     0.083 A 
HETATM   13  CAK   D T1356       4.662   3.669  11.727  1.00 33.73     0.021 A 
HETATM   14  CAI   D T1356       3.554   4.017  10.949  1.00 34.14     0.021 A 
HETATM   15  CBD   D T1356       3.712   4.375   9.602  1.00 33.99     0.085 A 
HETATM   16  CAH   D T1356       4.993   4.354   9.051  1.00 33.61     0.021 A 
HETATM   17  CAJ   D T1356       6.095   4.005   9.832  1.00 33.42     0.021 A 
BRANCH  15  18
HETATM   18  NAX   D T1356       2.669   4.695   8.798  1.00 34.41    -0.208 NA
HETATM   19  CBC   D T1356       2.252   5.975   8.641  1.00 37.04     0.279 C 
HETATM   20  OAB   D T1356       2.767   6.959   9.181  1.00 38.15    -0.265 OA
BRANCH  19  21
HETATM   21  CBF   D T1356       1.151   6.128   7.795  1.00 37.03     0.058 A 
HETATM   22  CAF   D T1356       0.126   5.180   7.802  1.00 38.06     0.005 A 
HETATM   23  CAD   D T1356      -0.968   5.325   6.954  1.00 38.28     0.000 A 
HETATM   24  CAC   D T1356      -1.045   6.418   6.092  1.00 38.02     0.000 A 
HETATM   25  CAE   D T1356      -0.028   7.369   6.087  1.00 37.90     0.000 A 
HETATM   26  CAG   D T1356       1.070   7.219   6.930  1.00 37.23     0.005 A 
ENDBRANCH  19  21
ENDBRANCH  15  18
ENDBRANCH  11  12
ENDBRANCH  10  11
BRANCH   3  27
HETATM   27  OAZ   D T1356       9.560   7.463  10.855  1.00 30.66    -0.326 OA
HETATM   28  CAA   D T1356       8.605   7.731   9.824  1.00 33.36     0.181 C 
ENDBRANCH   3  27
BRANCH   1  29
HETATM   29  OBB   D T1356      10.008   8.756  13.186  1.00 30.55    -0.329 OA
BRANCH  29  30
HETATM   30  CAP   D T1356       9.338   9.952  12.727  1.00 33.72     0.151 C 
BRANCH  30  31
HETATM   31  CAO   D T1356       8.308  10.393  13.784  1.00 37.07     0.068 C 
BRANCH  31  32
HETATM   32  CAS   D T1356       9.058  10.965  14.996  1.00 39.71     0.253 C 
BRANCH  32  33
HETATM   33  NBL   D T1356       9.011  10.201  16.266  1.00 41.70     0.142 N 
HETATM   34  CAT   D T1356       8.422  10.930  17.413  1.00 43.12     0.282 C 
HETATM   35  CAQ   D T1356       8.305   9.991  18.632  1.00 43.52     0.178 C 
HETATM   36  OBA   D T1356       8.726   8.630  18.267  1.00 44.22    -0.350 OA
HETATM   37  CAR   D T1356      10.100   8.561  17.753  1.00 43.52     0.178 C 
HETATM   38  CAU   D T1356      10.315   9.616  16.648  1.00 42.73     0.282 C 
ENDBRANCH  32  33
ENDBRANCH  31  32
ENDBRANCH  30  31
ENDBRANCH  29  30
ENDBRANCH   1  29
TORSDOF 10
ENDMDL
MODEL 4
REMARK VINA RESULT:    -7.119      2.214      9.500
REMARK INTER + INTRA:         -12.836
REMARK INTER:                 -11.687
REMARK INTRA:                  -1.149
REMARK UNBOUND:                -1.556
REMARK  10 active torsions:
REMARK  status: ('A' for Active; 'I' for Inactive)
REMARK    1  A    between atoms: NBL_6  and  CAS_7 
REMARK    2  A    between atoms: CAS_7  and  CAO_8 
REMARK    3  A    between atoms: CAO_8  and  CAP_9 
REMARK    4  A    between atoms: CAP_9  and  OBB_10 
REMARK    5  A    between atoms: OBB_10  and  CBH_11 
REMARK    6  A    between atoms: CBG_13  and  OAZ_14 
REMARK    7  A    between atoms: C6_22  and  NAY_23 
REMARK    8  A    between atoms: NAY_23  and  CBE_24 
REMARK    9  A    between atoms: CBD_29  and  NAX_30 
REMARK       I    between atoms: NAX_30  and  CBC_31 
REMARK   10  A    between atoms: CBC_31  and  CBF_33 
ROOT
HETATM    1  CBH   D T1356       2.812   4.905   9.381  1.00 30.53     0.118 A 
HETATM    2  CAM   D T1356       3.038   4.270  10.609  1.00 29.88     0.045 A 
HETATM    3  CBG   D T1356       3.912   5.273   8.581  1.00 30.48     0.117 A 
HETATM    4  CAN   D T1356       5.216   5.021   9.008  1.00 29.67     0.031 A 
HETATM    5  C5    D T1356       5.446   4.384  10.232  1.00 29.79     0.056 A 
HETATM    6  C4    D T1356       4.349   4.011  11.028  1.00 29.99     0.088 A 
HETATM    7  N3    D T1356       4.549   3.400  12.207  1.00 29.16    -0.224 NA
HETATM    8  C2    D T1356       5.847   3.129  12.657  1.00 30.02     0.200 A 
HETATM    9  N1    D T1356       6.945   3.495  11.862  1.00 29.74    -0.205 NA
HETATM   10  C6    D T1356       6.749   4.109  10.680  1.00 29.94     0.166 A 
ENDROOT
BRANCH  10  11
HETATM   11  NAY   D T1356       7.779   4.495   9.882  1.00 31.31    -0.227 NA
BRANCH  11  12
HETATM   12  CBE   D T1356       8.327   5.735  10.002  1.00 32.67     0.083 A 
HETATM   13  CAK   D T1356       8.937   6.100  11.205  1.00 33.73     0.021 A 
HETATM   14  CAI   D T1356       9.518   7.362  11.359  1.00 34.14     0.021 A 
HETATM   15  CBD   D T1356       9.519   8.281  10.300  1.00 33.99     0.085 A 
HETATM   16  CAH   D T1356       8.907   7.919   9.100  1.00 33.61     0.021 A 
HETATM   17  CAJ   D T1356       8.327   6.659   8.952  1.00 33.42     0.021 A 
BRANCH  15  18
HETATM   18  NAX   D T1356      10.045   9.526  10.405  1.00 34.41    -0.208 NA
HETATM   19  CBC   D T1356       9.350  10.552  10.953  1.00 37.04     0.279 C 
HETATM   20  OAB   D T1356       8.208  10.467  11.417  1.00 38.15    -0.265 OA
BRANCH  19  21
HETATM   21  CBF   D T1356      10.029  11.773  10.964  1.00 37.03     0.058 A 
HETATM   22  CAF   D T1356       9.470  12.889  10.337  1.00 38.06     0.005 A 
HETATM   23  CAD   D T1356      10.148  14.105  10.339  1.00 38.28     0.000 A 
HETATM   24  CAC   D T1356      11.388  14.214  10.966  1.00 38.02     0.000 A 
HETATM   25  CAE   D T1356      11.945  13.106  11.598  1.00 37.90     0.000 A 
HETATM   26  CAG   D T1356      11.271  11.887  11.589  1.00 37.23     0.005 A 
ENDBRANCH  19  21
ENDBRANCH  15  18
ENDBRANCH  11  12
ENDBRANCH  10  11
BRANCH   3  27
HETATM   27  OAZ   D T1356       3.691   5.916   7.385  1.00 30.66    -0.326 OA
HETATM   28  CAA   D T1356       4.833   6.488   6.743  1.00 33.36     0.181 C 
ENDBRANCH   3  27
BRANCH   1  29
HETATM   29  OBB   D T1356       1.563   5.199   8.891  1.00 30.55    -0.329 OA
BRANCH  29  30
HETATM   30  CAP   D T1356       0.481   4.263   9.098  1.00 33.72     0.151 C 
BRANCH  30  31
HETATM   31  CAO   D T1356      -0.697   4.641   8.181  1.00 37.07     0.068 C 
BRANCH  31  32
HETATM   32  CAS   D T1356      -0.893   6.163   8.228  1.00 39.71     0.253 C 
BRANCH  32  33
HETATM   33  NBL   D T1356      -0.723   6.924   6.967  1.00 41.70     0.142 N 
HETATM   34  CAT   D T1356      -1.270   6.262   5.760  1.00 43.12     0.282 C 
HETATM   35  CAQ   D T1356      -1.155   7.203   4.543  1.00 43.52     0.178 C 
HETATM   36  OBA   D T1356      -0.622   8.510   4.959  1.00 44.22    -0.350 OA
HETATM   37  CAR   D T1356       0.691   8.425   5.612  1.00 43.52     0.178 C 
HETATM   38  CAU   D T1356       0.671   7.356   6.724  1.00 42.73     0.282 C 
ENDBRANCH  32  33
ENDBRANCH  31  32
ENDBRANCH  30  31
ENDBRANCH  29  30
ENDBRANCH   1  29
TORSDOF 10
ENDMDL
MODEL 5
REMARK VINA RESULT:    -7.116      3.667      9.982
REMARK INTER + INTRA:         -12.831
REMARK INTER:                 -11.405
REMARK INTRA:                  -1.426
REMARK UNBOUND:                -1.556
REMARK  10 active torsions:
REMARK  status: ('A' for Active; 'I' for Inactive)
REMARK    1  A    between atoms: NBL_6  and  CAS_7 
REMARK    2  A    between atoms: CAS_7  and  CAO_8 
REMARK    3  A    between atoms: CAO_8  and  CAP_9 
REMARK    4  A    between atoms: CAP_9  and  OBB_10 
REMARK    5  A    between atoms: OBB_10  and  CBH_11 
REMARK    6  A    between atoms: CBG_13  and  OAZ_14 
REMARK    7  A    between atoms: C6_22  and  NAY_23 
REMARK    8  A    between atoms: NAY_23  and  CBE_24 
REMARK    9  A    between atoms: CBD_29  and  NAX_30 
REMARK       I    between atoms: NAX_30  and  CBC_31 
REMARK   10  A    between atoms: CBC_31  and  CBF_33 
ROOT
HETATM    1  CBH   D T1356       3.636   7.039   7.241  1.00 30.53     0.118 A 
HETATM    2  CAM   D T1356       2.477   6.615   7.901  1.00 29.88     0.045 A 
HETATM    3  CBG   D T1356       4.849   6.359   7.469  1.00 30.48     0.117 A 
HETATM    4  CAN   D T1356       4.903   5.281   8.353  1.00 29.67     0.031 A 
HETATM    5  C5    D T1356       3.747   4.853   9.012  1.00 29.79     0.056 A 
HETATM    6  C4    D T1356       2.534   5.526   8.781  1.00 29.99     0.088 A 
HETATM    7  N3    D T1356       1.414   5.131   9.406  1.00 29.16    -0.224 NA
HETATM    8  C2    D T1356       1.437   4.049  10.293  1.00 30.02     0.200 A 
HETATM    9  N1    D T1356       2.645   3.369  10.523  1.00 29.74    -0.205 NA
HETATM   10  C6    D T1356       3.771   3.763   9.900  1.00 29.94     0.166 A 
ENDROOT
BRANCH  10  11
HETATM   11  NAY   D T1356       4.966   3.147  10.099  1.00 31.31    -0.227 NA
BRANCH  11  12
HETATM   12  CBE   D T1356       5.739   3.458  11.176  1.00 32.67     0.083 A 
HETATM   13  CAK   D T1356       7.059   3.870  10.976  1.00 33.73     0.021 A 
HETATM   14  CAI   D T1356       7.876   4.205  12.059  1.00 34.14     0.021 A 
HETATM   15  CBD   D T1356       7.379   4.156  13.369  1.00 33.99     0.085 A 
HETATM   16  CAH   D T1356       6.063   3.742  13.570  1.00 33.61     0.021 A 
HETATM   17  CAJ   D T1356       5.252   3.407  12.486  1.00 33.42     0.021 A 
BRANCH  15  18
HETATM   18  NAX   D T1356       8.137   4.445  14.456  1.00 34.41    -0.208 NA
HETATM   19  CBC   D T1356       8.337   5.720  14.870  1.00 37.04     0.279 C 
HETATM   20  OAB   D T1356       7.854   6.723  14.335  1.00 38.15    -0.265 OA
BRANCH  19  21
HETATM   21  CBF   D T1356       9.161   5.845  15.992  1.00 37.03     0.058 A 
HETATM   22  CAF   D T1356       9.314   7.087  16.611  1.00 38.06     0.005 A 
HETATM   23  CAD   D T1356      10.142   7.216  17.723  1.00 38.28     0.000 A 
HETATM   24  CAC   D T1356      10.822   6.107  18.222  1.00 38.02     0.000 A 
HETATM   25  CAE   D T1356      10.666   4.865  17.611  1.00 37.90     0.000 A 
HETATM   26  CAG   D T1356       9.844   4.737  16.494  1.00 37.23     0.005 A 
ENDBRANCH  19  21
ENDBRANCH  15  18
ENDBRANCH  11  12
ENDBRANCH  10  11
BRANCH   3  27
HETATM   27  OAZ   D T1356       5.993   6.789   6.836  1.00 30.66    -0.326 OA
HETATM   28  CAA   D T1356       6.226   6.286   5.518  1.00 33.36     0.181 C 
ENDBRANCH   3  27
BRANCH   1  29
HETATM   29  OBB   D T1356       3.674   8.095   6.363  1.00 30.55    -0.329 OA
BRANCH  29  30
HETATM   30  CAP   D T1356       2.732   9.181   6.520  1.00 33.72     0.151 C 
BRANCH  30  31
HETATM   31  CAO   D T1356       2.023   9.433   5.175  1.00 37.07     0.068 C 
BRANCH  31  32
HETATM   32  CAS   D T1356       0.507   9.469   5.416  1.00 39.71     0.253 C 
BRANCH  32  33
HETATM   33  NBL   D T1356      -0.184   8.185   5.684  1.00 41.70     0.142 N 
HETATM   34  CAT   D T1356      -1.199   7.800   4.677  1.00 43.12     0.282 C 
HETATM   35  CAQ   D T1356      -1.748   6.392   4.991  1.00 43.52     0.178 C 
HETATM   36  OBA   D T1356      -1.035   5.813   6.140  1.00 44.22    -0.350 OA
HETATM   37  CAR   D T1356      -1.124   6.633   7.356  1.00 43.52     0.178 C 
HETATM   38  CAU   D T1356      -0.757   8.099   7.045  1.00 42.73     0.282 C 
ENDBRANCH  32  33
ENDBRANCH  31  32
ENDBRANCH  30  31
ENDBRANCH  29  30
ENDBRANCH   1  29
TORSDOF 10
ENDMDL
MODEL 6
REMARK VINA RESULT:    -7.110      5.205      9.010
REMARK INTER + INTRA:         -12.823
REMARK INTER:                 -11.626
REMARK INTRA:                  -1.197
REMARK UNBOUND:                -1.556
REMARK  10 active torsions:
REMARK  status: ('A' for Active; 'I' for Inactive)
REMARK    1  A    between atoms: NBL_6  and  CAS_7 
REMARK    2  A    between atoms: CAS_7  and  CAO_8 
REMARK    3  A    between atoms: CAO_8  and  CAP_9 
REMARK    4  A    between atoms: CAP_9  and  OBB_10 
REMARK    5  A    between atoms: OBB_10  and  CBH_11 
REMARK    6  A    between atoms: CBG_13  and  OAZ_14 
REMARK    7  A    between atoms: C6_22  and  NAY_23 
REMARK    8  A    between atoms: NAY_23  and  CBE_24 
REMARK    9  A    between atoms: CBD_29  and  NAX_30 
REMARK       I    between atoms: NAX_30  and  CBC_31 
REMARK   10  A    between atoms: CBC_31  and  CBF_33 
ROOT
HETATM    1  CBH   D T1356       4.249   4.489   9.552  1.00 30.53     0.118 A 
HETATM    2  CAM   D T1356       2.874   4.660   9.350  1.00 29.88     0.045 A 
HETATM    3  CBG   D T1356       5.156   5.320   8.865  1.00 30.48     0.117 A 
HETATM    4  CAN   D T1356       4.696   6.296   7.981  1.00 29.67     0.031 A 
HETATM    5  C5    D T1356       3.324   6.472   7.779  1.00 29.79     0.056 A 
HETATM    6  C4    D T1356       2.417   5.648   8.469  1.00 29.99     0.088 A 
HETATM    7  N3    D T1356       1.095   5.800   8.286  1.00 29.16    -0.224 NA
HETATM    8  C2    D T1356       0.605   6.776   7.411  1.00 30.02     0.200 A 
HETATM    9  N1    D T1356       1.507   7.605   6.724  1.00 29.74    -0.205 NA
HETATM   10  C6    D T1356       2.832   7.455   6.902  1.00 29.94     0.166 A 
ENDROOT
BRANCH  10  11
HETATM   11  NAY   D T1356       3.745   8.222   6.251  1.00 31.31    -0.227 NA
BRANCH  11  12
HETATM   12  CBE   D T1356       3.449   8.790   5.050  1.00 32.67     0.083 A 
HETATM   13  CAK   D T1356       2.787  10.020   5.019  1.00 33.73     0.021 A 
HETATM   14  CAI   D T1356       2.476  10.634   3.802  1.00 34.14     0.021 A 
HETATM   15  CBD   D T1356       2.843  10.038   2.588  1.00 33.99     0.085 A 
HETATM   16  CAH   D T1356       3.501   8.809   2.618  1.00 33.61     0.021 A 
HETATM   17  CAJ   D T1356       3.808   8.199   3.834  1.00 33.42     0.021 A 
BRANCH  15  18
HETATM   18  NAX   D T1356       2.543  10.579   1.381  1.00 34.41    -0.208 NA
HETATM   19  CBC   D T1356       3.369  11.458   0.765  1.00 37.04     0.279 C 
HETATM   20  OAB   D T1356       4.458  11.838   1.209  1.00 38.15    -0.265 OA
BRANCH  19  21
HETATM   21  CBF   D T1356       2.900  11.937  -0.461  1.00 37.03     0.058 A 
HETATM   22  CAF   D T1356       3.689  12.803  -1.221  1.00 38.06     0.005 A 
HETATM   23  CAD   D T1356       3.221  13.289  -2.439  1.00 38.28     0.000 A 
HETATM   24  CAC   D T1356       1.961  12.915  -2.903  1.00 38.02     0.000 A 
HETATM   25  CAE   D T1356       1.174  12.047  -2.151  1.00 37.90     0.000 A 
HETATM   26  CAG   D T1356       1.640  11.567  -0.930  1.00 37.23     0.005 A 
ENDBRANCH  19  21
ENDBRANCH  15  18
ENDBRANCH  11  12
ENDBRANCH  10  11
BRANCH   3  27
HETATM   27  OAZ   D T1356       6.508   5.138   9.047  1.00 30.66    -0.326 OA
HETATM   28  CAA   D T1356       7.237   4.592   7.945  1.00 33.36     0.181 C 
ENDBRANCH   3  27
BRANCH   1  29
HETATM   29  OBB   D T1356       4.787   3.548  10.395  1.00 30.55    -0.329 OA
BRANCH  29  30
HETATM   30  CAP   D T1356       4.570   3.664  11.819  1.00 33.72     0.151 C 
BRANCH  30  31
HETATM   31  CAO   D T1356       5.691   2.916  12.565  1.00 37.07     0.068 C 
BRANCH  31  32
HETATM   32  CAS   D T1356       7.014   3.135  11.817  1.00 39.71     0.253 C 
BRANCH  32  33
HETATM   33  NBL   D T1356       8.174   2.292  12.198  1.00 41.70     0.142 N 
HETATM   34  CAT   D T1356       8.417   2.186  13.655  1.00 43.12     0.282 C 
HETATM   35  CAQ   D T1356       9.557   1.183  13.928  1.00 43.52     0.178 C 
HETATM   36  OBA   D T1356      10.002   0.563  12.671  1.00 44.22    -0.350 OA
HETATM   37  CAR   D T1356      10.462   1.535  11.670  1.00 43.52     0.178 C 
HETATM   38  CAU   D T1356       9.424   2.663  11.498  1.00 42.73     0.282 C 
ENDBRANCH  32  33
ENDBRANCH  31  32
ENDBRANCH  30  31
ENDBRANCH  29  30
ENDBRANCH   1  29
TORSDOF 10
ENDMDL
MODEL 7
REMARK VINA RESULT:    -7.093      2.353      4.159
REMARK INTER + INTRA:         -12.796
REMARK INTER:                 -11.071
REMARK INTRA:                  -1.724
REMARK UNBOUND:                -1.556
REMARK  10 active torsions:
REMARK  status: ('A' for Active; 'I' for Inactive)
REMARK    1  A    between atoms: NBL_6  and  CAS_7 
REMARK    2  A    between atoms: CAS_7  and  CAO_8 
REMARK    3  A    between atoms: CAO_8  and  CAP_9 
REMARK    4  A    between atoms: CAP_9  and  OBB_10 
REMARK    5  A    between atoms: OBB_10  and  CBH_11 
REMARK    6  A    between atoms: CBG_13  and  OAZ_14 
REMARK    7  A    between atoms: C6_22  and  NAY_23 
REMARK    8  A    between atoms: NAY_23  and  CBE_24 
REMARK    9  A    between atoms: CBD_29  and  NAX_30 
REMARK       I    between atoms: NAX_30  and  CBC_31 
REMARK   10  A    between atoms: CBC_31  and  CBF_33 
ROOT
HETATM    1  CBH   D T1356      10.655   7.389  11.394  1.00 30.53     0.118 A 
HETATM    2  CAM   D T1356      11.327   6.248  10.939  1.00 29.88     0.045 A 
HETATM    3  CBG   D T1356       9.415   7.246  12.047  1.00 30.48     0.117 A 
HETATM    4  CAN   D T1356       8.850   5.983  12.230  1.00 29.67     0.031 A 
HETATM    5  C5    D T1356       9.519   4.841  11.780  1.00 29.79     0.056 A 
HETATM    6  C4    D T1356      10.760   4.981  11.134  1.00 29.99     0.088 A 
HETATM    7  N3    D T1356      11.416   3.897  10.694  1.00 29.16    -0.224 NA
HETATM    8  C2    D T1356      10.877   2.617  10.870  1.00 30.02     0.200 A 
HETATM    9  N1    D T1356       9.640   2.472  11.520  1.00 29.74    -0.205 NA
HETATM   10  C6    D T1356       8.977   3.556  11.962  1.00 29.94     0.166 A 
ENDROOT
BRANCH  10  11
HETATM   11  NAY   D T1356       7.772   3.469  12.583  1.00 31.31    -0.227 NA
BRANCH  11  12
HETATM   12  CBE   D T1356       6.614   3.623  11.884  1.00 32.67     0.083 A 
HETATM   13  CAK   D T1356       6.671   3.829  10.503  1.00 33.73     0.021 A 
HETATM   14  CAI   D T1356       5.501   3.981   9.754  1.00 34.14     0.021 A 
HETATM   15  CBD   D T1356       4.244   3.907  10.370  1.00 33.99     0.085 A 
HETATM   16  CAH   D T1356       4.187   3.704  11.749  1.00 33.61     0.021 A 
HETATM   17  CAJ   D T1356       5.358   3.555  12.493  1.00 33.42     0.021 A 
BRANCH  15  18
HETATM   18  NAX   D T1356       3.081   4.073   9.695  1.00 34.41    -0.208 NA
HETATM   19  CBC   D T1356       2.502   5.290   9.555  1.00 37.04     0.279 C 
HETATM   20  OAB   D T1356       2.962   6.349   9.997  1.00 38.15    -0.265 OA
BRANCH  19  21
HETATM   21  CBF   D T1356       1.296   5.284   8.850  1.00 37.03     0.058 A 
HETATM   22  CAF   D T1356       1.030   6.282   7.910  1.00 38.06     0.005 A 
HETATM   23  CAD   D T1356      -0.175   6.283   7.213  1.00 38.28     0.000 A 
HETATM   24  CAC   D T1356      -1.122   5.288   7.451  1.00 38.02     0.000 A 
HETATM   25  CAE   D T1356      -0.858   4.288   8.382  1.00 37.90     0.000 A 
HETATM   26  CAG   D T1356       0.344   4.291   9.086  1.00 37.23     0.005 A 
ENDBRANCH  19  21
ENDBRANCH  15  18
ENDBRANCH  11  12
ENDBRANCH  10  11
BRANCH   3  27
HETATM   27  OAZ   D T1356       8.744   8.369  12.475  1.00 30.66    -0.326 OA
HETATM   28  CAA   D T1356       8.701   8.592  13.886  1.00 33.36     0.181 C 
ENDBRANCH   3  27
BRANCH   1  29
HETATM   29  OBB   D T1356      11.133   8.668  11.247  1.00 30.55    -0.329 OA
BRANCH  29  30
HETATM   30  CAP   D T1356      11.259   9.229   9.920  1.00 33.72     0.151 C 
BRANCH  30  31
HETATM   31  CAO   D T1356       9.857   9.556   9.374  1.00 37.07     0.068 C 
BRANCH  31  32
HETATM   32  CAS   D T1356       9.595   8.689   8.134  1.00 39.71     0.253 C 
BRANCH  32  33
HETATM   33  NBL   D T1356       8.185   8.465   7.730  1.00 41.70     0.142 N 
HETATM   34  CAT   D T1356       7.406   9.697   7.473  1.00 43.12     0.282 C 
HETATM   35  CAQ   D T1356       6.006   9.335   6.934  1.00 43.52     0.178 C 
HETATM   36  OBA   D T1356       5.895   7.880   6.747  1.00 44.22    -0.350 OA
HETATM   37  CAR   D T1356       6.136   7.113   7.976  1.00 43.52     0.178 C 
HETATM   38  CAU   D T1356       7.445   7.575   8.651  1.00 42.73     0.282 C 
ENDBRANCH  32  33
ENDBRANCH  31  32
ENDBRANCH  30  31
ENDBRANCH  29  30
ENDBRANCH   1  29
TORSDOF 10
ENDMDL
MODEL 8
REMARK VINA RESULT:    -6.905      1.889      3.053
REMARK INTER + INTRA:         -12.497
REMARK INTER:                 -11.021
REMARK INTRA:                  -1.476
REMARK UNBOUND:                -1.556
REMARK  10 active torsions:
REMARK  status: ('A' for Active; 'I' for Inactive)
REMARK    1  A    between atoms: NBL_6  and  CAS_7 
REMARK    2  A    between atoms: CAS_7  and  CAO_8 
REMARK    3  A    between atoms: CAO_8  and  CAP_9 
REMARK    4  A    between atoms: CAP_9  and  OBB_10 
REMARK    5  A    between atoms: OBB_10  and  CBH_11 
REMARK    6  A    between atoms: CBG_13  and  OAZ_14 
REMARK    7  A    between atoms: C6_22  and  NAY_23 
REMARK    8  A    between atoms: NAY_23  and  CBE_24 
REMARK    9  A    between atoms: CBD_29  and  NAX_30 
REMARK       I    between atoms: NAX_30  and  CBC_31 
REMARK   10  A    between atoms: CBC_31  and  CBF_33 
ROOT
HETATM    1  CBH   D T1356      10.808   7.242  13.475  1.00 30.53     0.118 A 
HETATM    2  CAM   D T1356      11.405   6.411  12.519  1.00 29.88     0.045 A 
HETATM    3  CBG   D T1356       9.521   6.928  13.955  1.00 30.48     0.117 A 
HETATM    4  CAN   D T1356       8.839   5.809  13.478  1.00 29.67     0.031 A 
HETATM    5  C5    D T1356       9.433   4.975  12.526  1.00 29.79     0.056 A 
HETATM    6  C4    D T1356      10.720   5.283  12.050  1.00 29.99     0.088 A 
HETATM    7  N3    D T1356      11.306   4.496  11.135  1.00 29.16    -0.224 NA
HETATM    8  C2    D T1356      10.647   3.363  10.643  1.00 30.02     0.200 A 
HETATM    9  N1    D T1356       9.364   3.048  11.120  1.00 29.74    -0.205 NA
HETATM   10  C6    D T1356       8.772   3.835  12.036  1.00 29.94     0.166 A 
ENDROOT
BRANCH  10  11
HETATM   11  NAY   D T1356       7.527   3.581  12.518  1.00 31.31    -0.227 NA
BRANCH  11  12
HETATM   12  CBE   D T1356       6.425   3.786  11.745  1.00 32.67     0.083 A 
HETATM   13  CAK   D T1356       6.585   4.225  10.428  1.00 33.73     0.021 A 
HETATM   14  CAI   D T1356       5.475   4.436   9.605  1.00 34.14     0.021 A 
HETATM   15  CBD   D T1356       4.178   4.190  10.078  1.00 33.99     0.085 A 
HETATM   16  CAH   D T1356       4.018   3.754  11.393  1.00 33.61     0.021 A 
HETATM   17  CAJ   D T1356       5.129   3.547  12.212  1.00 33.42     0.021 A 
BRANCH  15  18
HETATM   18  NAX   D T1356       3.068   4.403   9.330  1.00 34.41    -0.208 NA
HETATM   19  CBC   D T1356       2.426   5.596   9.326  1.00 37.04     0.279 C 
HETATM   20  OAB   D T1356       2.778   6.592   9.966  1.00 38.15    -0.265 OA
BRANCH  19  21
HETATM   21  CBF   D T1356       1.287   5.641   8.518  1.00 37.03     0.058 A 
HETATM   22  CAF   D T1356       1.242   6.502   7.420  1.00 38.06     0.005 A 
HETATM   23  CAD   D T1356       0.105   6.556   6.619  1.00 38.28     0.000 A 
HETATM   24  CAC   D T1356      -0.995   5.752   6.911  1.00 38.02     0.000 A 
HETATM   25  CAE   D T1356      -0.952   4.887   8.001  1.00 37.90     0.000 A 
HETATM   26  CAG   D T1356       0.183   4.839   8.807  1.00 37.23     0.005 A 
ENDBRANCH  19  21
ENDBRANCH  15  18
ENDBRANCH  11  12
ENDBRANCH  10  11
BRANCH   3  27
HETATM   27  OAZ   D T1356       8.925   7.756  14.878  1.00 30.66    -0.326 OA
HETATM   28  CAA   D T1356       8.956   7.326  16.242  1.00 33.36     0.181 C 
ENDBRANCH   3  27
BRANCH   1  29
HETATM   29  OBB   D T1356      11.404   8.367  13.990  1.00 30.55    -0.329 OA
BRANCH  29  30
HETATM   30  CAP   D T1356      12.556   8.928  13.322  1.00 33.72     0.151 C 
BRANCH  30  31
HETATM   31  CAO   D T1356      12.206  10.337  12.807  1.00 37.07     0.068 C 
BRANCH  31  32
HETATM   32  CAS   D T1356      11.712  10.225  11.357  1.00 39.71     0.253 C 
BRANCH  32  33
HETATM   33  NBL   D T1356      10.350  10.724  11.048  1.00 41.70     0.142 N 
HETATM   34  CAT   D T1356       9.349  10.509  12.118  1.00 43.12     0.282 C 
HETATM   35  CAQ   D T1356       8.015  11.186  11.737  1.00 43.52     0.178 C 
HETATM   36  OBA   D T1356       8.161  11.920  10.471  1.00 44.22    -0.350 OA
HETATM   37  CAR   D T1356       8.594  11.073   9.351  1.00 43.52     0.178 C 
HETATM   38  CAU   D T1356       9.826  10.236   9.753  1.00 42.73     0.282 C 
ENDBRANCH  32  33
ENDBRANCH  31  32
ENDBRANCH  30  31
ENDBRANCH  29  30
ENDBRANCH   1  29
TORSDOF 10
ENDMDL
MODEL 9
REMARK VINA RESULT:    -6.854      3.721      9.475
REMARK INTER + INTRA:         -12.417
REMARK INTER:                 -11.212
REMARK INTRA:                  -1.205
REMARK UNBOUND:                -1.556
REMARK  10 active torsions:
REMARK  status: ('A' for Active; 'I' for Inactive)
REMARK    1  A    between atoms: NBL_6  and  CAS_7 
REMARK    2  A    between atoms: CAS_7  and  CAO_8 
REMARK    3  A    between atoms: CAO_8  and  CAP_9 
REMARK    4  A    between atoms: CAP_9  and  OBB_10 
REMARK    5  A    between atoms: OBB_10  and  CBH_11 
REMARK    6  A    between atoms: CBG_13  and  OAZ_14 
REMARK    7  A    between atoms: C6_22  and  NAY_23 
REMARK    8  A    between atoms: NAY_23  and  CBE_24 
REMARK    9  A    between atoms: CBD_29  and  NAX_30 
REMARK       I    between atoms: NAX_30  and  CBC_31 
REMARK   10  A    between atoms: CBC_31  and  CBF_33 
ROOT
HETATM    1  CBH   D T1356       3.150   7.121   7.255  1.00 30.53     0.118 A 
HETATM    2  CAM   D T1356       2.057   6.605   7.962  1.00 29.88     0.045 A 
HETATM    3  CBG   D T1356       4.415   6.521   7.405  1.00 30.48     0.117 A 
HETATM    4  CAN   D T1356       4.587   5.430   8.259  1.00 29.67     0.031 A 
HETATM    5  C5    D T1356       3.498   4.910   8.965  1.00 29.79     0.056 A 
HETATM    6  C4    D T1356       2.233   5.505   8.811  1.00 29.99     0.088 A 
HETATM    7  N3    D T1356       1.176   5.020   9.481  1.00 29.16    -0.224 NA
HETATM    8  C2    D T1356       1.317   3.924  10.340  1.00 30.02     0.200 A 
HETATM    9  N1    D T1356       2.578   3.323  10.491  1.00 29.74    -0.205 NA
HETATM   10  C6    D T1356       3.641   3.806   9.823  1.00 29.94     0.166 A 
ENDROOT
BRANCH  10  11
HETATM   11  NAY   D T1356       4.884   3.269   9.947  1.00 31.31    -0.227 NA
BRANCH  11  12
HETATM   12  CBE   D T1356       5.661   3.555  11.027  1.00 32.67     0.083 A 
HETATM   13  CAK   D T1356       6.961   4.028  10.829  1.00 33.73     0.021 A 
HETATM   14  CAI   D T1356       7.782   4.340  11.916  1.00 34.14     0.021 A 
HETATM   15  CBD   D T1356       7.310   4.204  13.229  1.00 33.99     0.085 A 
HETATM   16  CAH   D T1356       6.014   3.730  13.428  1.00 33.61     0.021 A 
HETATM   17  CAJ   D T1356       5.198   3.418  12.339  1.00 33.42     0.021 A 
BRANCH  15  18
HETATM   18  NAX   D T1356       8.074   4.468  14.318  1.00 34.41    -0.208 NA
HETATM   19  CBC   D T1356       8.234   5.727  14.792  1.00 37.04     0.279 C 
HETATM   20  OAB   D T1356       7.708   6.737  14.314  1.00 38.15    -0.265 OA
BRANCH  19  21
HETATM   21  CBF   D T1356       9.071   5.827  15.906  1.00 37.03     0.058 A 
HETATM   22  CAF   D T1356       9.277   7.065  16.517  1.00 38.06     0.005 A 
HETATM   23  CAD   D T1356      10.116   7.170  17.623  1.00 38.28     0.000 A 
HETATM   24  CAC   D T1356      10.757   6.038  18.124  1.00 38.02     0.000 A 
HETATM   25  CAE   D T1356      10.549   4.799  17.522  1.00 37.90     0.000 A 
HETATM   26  CAG   D T1356       9.715   4.697  16.411  1.00 37.23     0.005 A 
ENDBRANCH  19  21
ENDBRANCH  15  18
ENDBRANCH  11  12
ENDBRANCH  10  11
BRANCH   3  27
HETATM   27  OAZ   D T1356       5.494   7.040   6.727  1.00 30.66    -0.326 OA
HETATM   28  CAA   D T1356       5.914   6.339   5.554  1.00 33.36     0.181 C 
ENDBRANCH   3  27
BRANCH   1  29
HETATM   29  OBB   D T1356       3.071   8.196   6.403  1.00 30.55    -0.329 OA
BRANCH  29  30
HETATM   30  CAP   D T1356       1.795   8.549   5.824  1.00 33.72     0.151 C 
BRANCH  30  31
HETATM   31  CAO   D T1356       1.932   9.890   5.079  1.00 37.07     0.068 C 
BRANCH  31  32
HETATM   32  CAS   D T1356       3.413  10.124   4.750  1.00 39.71     0.253 C 
BRANCH  32  33
HETATM   33  NBL   D T1356       3.760  10.544   3.370  1.00 41.70     0.142 N 
HETATM   34  CAT   D T1356       5.116  11.119   3.214  1.00 43.12     0.282 C 
HETATM   35  CAQ   D T1356       5.406  11.390   1.723  1.00 43.52     0.178 C 
HETATM   36  OBA   D T1356       4.289  10.914   0.893  1.00 44.22    -0.350 OA
HETATM   37  CAR   D T1356       3.000  11.528   1.239  1.00 43.52     0.178 C 
HETATM   38  CAU   D T1356       2.753  11.440   2.759  1.00 42.73     0.282 C 
ENDBRANCH  32  33
ENDBRANCH  31  32
ENDBRANCH  30  31
ENDBRANCH  29  30
ENDBRANCH   1  29
TORSDOF 10
ENDMDL
