MODEL 1
REMARK VINA RESULT:    -8.348      0.000      0.000
REMARK INTER + INTRA:         -11.059
REMARK INTER:                 -10.788
REMARK INTRA:                  -0.271
REMARK UNBOUND:                -0.271
REMARK  5 active torsions:
REMARK  status: ('A' for Active; 'I' for Inactive)
REMARK    1  A    between atoms: C17_7  and  C21_10 
REMARK    2  A    between atoms: C21_10  and  O27_12 
REMARK    3  A    between atoms: O27_12  and  C15_13 
REMARK    4  A    between atoms: C14_19  and  C16_20 
REMARK    5  A    between atoms: N26_23  and  C20_25 
ROOT
HETATM    1  C15   D T2346       9.753  -2.709  -3.731  1.00 39.29     0.125 A 
HETATM    2  C4    D T2346      10.341  -2.001  -2.659  1.00 40.72     0.029 A 
HETATM    3  C19   D T2346       9.718  -4.107  -3.609  1.00 38.96     0.173 A 
HETATM    4  N22   D T2346       9.163  -4.888  -4.631  1.00 36.18    -0.078 NA
HETATM    5  N23   D T2346      10.196  -4.775  -2.530  1.00 39.65    -0.228 NA
HETATM    6  C5    D T2346      10.743  -4.057  -1.527  1.00 40.33     0.100 A 
HETATM    7  C14   D T2346      10.847  -2.671  -1.521  1.00 42.26     0.024 A 
ENDROOT
BRANCH   1   8
HETATM    8  O27   D T2346       9.200  -2.224  -4.901  1.00 39.48    -0.326 OA
BRANCH   8   9
HETATM    9  C21   D T2346       7.953  -1.500  -5.002  1.00 39.13     0.145 C 
HETATM   10  C1    D T2346       6.926  -2.466  -5.586  1.00 39.28     0.038 C 
BRANCH   9  11
HETATM   11  C17   D T2346       8.091  -0.220  -5.837  1.00 39.21     0.029 A 
HETATM   12  C13   D T2346       8.654   0.965  -5.292  1.00 38.58     0.057 A 
HETATM   13 CL     D T2346       9.207   1.118  -3.656  1.00 39.67    -0.083 Cl
HETATM   14  C3    D T2346       8.800   2.138  -6.048  1.00 38.18     0.013 A 
HETATM   15  C2    D T2346       8.387   2.195  -7.367  1.00 37.72     0.031 A 
HETATM   16  C12   D T2346       7.836   1.056  -7.914  1.00 38.63     0.150 A 
HETATM   17  F     D T2346       7.447   1.114  -9.180  1.00 38.40    -0.203 F 
HETATM   18  C18   D T2346       7.687  -0.135  -7.190  1.00 40.35     0.084 A 
HETATM   19 CL2    D T2346       6.958  -1.444  -8.065  1.00 48.02    -0.080 Cl
ENDBRANCH   9  11
ENDBRANCH   8   9
ENDBRANCH   1   8
BRANCH   7  20
HETATM   20  C16   D T2346      11.485  -2.003  -0.391  1.00 45.17     0.042 A 
HETATM   21  C6    D T2346      11.027  -1.640   0.900  1.00 46.03     0.122 A 
HETATM   22  N24   D T2346      11.947  -1.000   1.627  1.00 47.73    -0.164 NA
HETATM   23  N26   D T2346      13.017  -0.927   0.803  1.00 49.42    -0.236 N 
HETATM   24  C7    D T2346      12.773  -1.503  -0.406  1.00 47.26     0.101 A 
BRANCH  23  25
HETATM   25  C20   D T2346      14.267  -0.293   1.231  1.00 52.42     0.042 C 
HETATM   26  C8    D T2346      15.560  -1.108   1.033  1.00 53.67     0.067 C 
HETATM   27  C10   D T2346      16.434  -0.755  -0.171  1.00 56.13     0.126 C 
HETATM   28  N25   D T2346      16.484   0.724  -0.430  1.00 56.98    -0.295 NA
HETATM   29  C11   D T2346      15.162   1.428  -0.470  1.00 56.01     0.126 C 
HETATM   30  C9    D T2346      14.403   1.188   0.834  1.00 54.43     0.067 C 
ENDBRANCH  23  25
ENDBRANCH   7  20
TORSDOF 5
ENDMDL
MODEL 2
REMARK VINA RESULT:    -8.328      3.236      4.966
REMARK INTER + INTRA:         -11.034
REMARK INTER:                 -10.299
REMARK INTRA:                  -0.735
REMARK UNBOUND:                -0.271
REMARK  5 active torsions:
REMARK  status: ('A' for Active; 'I' for Inactive)
REMARK    1  A    between atoms: C17_7  and  C21_10 
REMARK    2  A    between atoms: C21_10  and  O27_12 
REMARK    3  A    between atoms: O27_12  and  C15_13 
REMARK    4  A    between atoms: C14_19  and  C16_20 
REMARK    5  A    between atoms: N26_23  and  C20_25 
ROOT
HETATM    1  C15   D T2346       9.750  -3.143  -2.700  1.00 39.29     0.125 A 
HETATM    2  C4    D T2346      10.022  -2.935  -1.329  1.00 40.72     0.029 A 
HETATM    3  C19   D T2346       9.752  -4.476  -3.140  1.00 38.96     0.173 A 
HETATM    4  N22   D T2346       9.502  -4.772  -4.486  1.00 36.18    -0.078 NA
HETATM    5  N23   D T2346       9.982  -5.533  -2.322  1.00 39.65    -0.228 NA
HETATM    6  C5    D T2346      10.232  -5.286  -1.019  1.00 40.33     0.100 A 
HETATM    7  C14   D T2346      10.265  -4.017  -0.453  1.00 42.26     0.024 A 
ENDROOT
BRANCH   1   8
HETATM    8  O27   D T2346       9.477  -2.216  -3.688  1.00 39.48    -0.326 OA
BRANCH   8   9
HETATM    9  C21   D T2346       8.611  -1.068  -3.546  1.00 39.13     0.145 C 
HETATM   10  C1    D T2346       7.303  -1.572  -2.942  1.00 39.28     0.038 C 
BRANCH   9  11
HETATM   11  C17   D T2346       8.396  -0.334  -4.876  1.00 39.21     0.029 A 
HETATM   12  C13   D T2346       7.710  -0.946  -5.960  1.00 38.58     0.057 A 
HETATM   13 CL     D T2346       7.080  -2.561  -5.927  1.00 39.67    -0.083 Cl
HETATM   14  C3    D T2346       7.494  -0.282  -7.177  1.00 38.18     0.013 A 
HETATM   15  C2    D T2346       7.953   1.007  -7.379  1.00 37.72     0.031 A 
HETATM   16  C12   D T2346       8.624   1.618  -6.341  1.00 38.63     0.150 A 
HETATM   17  F     D T2346       9.058   2.855  -6.538  1.00 38.40    -0.203 F 
HETATM   18  C18   D T2346       8.847   0.987  -5.109  1.00 40.35     0.084 A 
HETATM   19 CL2    D T2346       9.722   1.928  -3.945  1.00 48.02    -0.080 Cl
ENDBRANCH   9  11
ENDBRANCH   8   9
ENDBRANCH   1   8
BRANCH   7  20
HETATM   20  C16   D T2346      10.575  -3.872   0.966  1.00 45.17     0.042 A 
HETATM   21  C6    D T2346      11.642  -3.253   1.664  1.00 46.03     0.122 A 
HETATM   22  N24   D T2346      11.553  -3.384   2.991  1.00 47.73    -0.164 NA
HETATM   23  N26   D T2346      10.425  -4.108   3.169  1.00 49.42    -0.236 N 
HETATM   24  C7    D T2346       9.826  -4.424   1.989  1.00 47.26     0.101 A 
BRANCH  23  25
HETATM   25  C20   D T2346       9.957  -4.470   4.510  1.00 52.42     0.042 C 
HETATM   26  C8    D T2346       8.830  -5.520   4.590  1.00 53.67     0.067 C 
HETATM   27  C10   D T2346       9.231  -6.953   4.940  1.00 56.13     0.126 C 
HETATM   28  N25   D T2346      10.323  -7.008   5.970  1.00 56.98    -0.295 NA
HETATM   29  C11   D T2346      11.515  -6.140   5.709  1.00 56.01     0.126 C 
HETATM   30  C9    D T2346      11.076  -4.686   5.543  1.00 54.43     0.067 C 
ENDBRANCH  23  25
ENDBRANCH   7  20
TORSDOF 5
ENDMDL
MODEL 3
REMARK VINA RESULT:    -8.293      3.881      4.693
REMARK INTER + INTRA:         -10.989
REMARK INTER:                 -10.506
REMARK INTRA:                  -0.483
REMARK UNBOUND:                -0.271
REMARK  5 active torsions:
REMARK  status: ('A' for Active; 'I' for Inactive)
REMARK    1  A    between atoms: C17_7  and  C21_10 
REMARK    2  A    between atoms: C21_10  and  O27_12 
REMARK    3  A    between atoms: O27_12  and  C15_13 
REMARK    4  A    between atoms: C14_19  and  C16_20 
REMARK    5  A    between atoms: N26_23  and  C20_25 
ROOT
HETATM    1  C15   D T2346       9.561  -3.483  -3.081  1.00 39.29     0.125 A 
HETATM    2  C4    D T2346       9.532  -3.723  -1.689  1.00 40.72     0.029 A 
HETATM    3  C19   D T2346       9.586  -4.617  -3.908  1.00 38.96     0.173 A 
HETATM    4  N22   D T2346       9.626  -4.471  -5.301  1.00 36.18    -0.078 NA
HETATM    5  N23   D T2346       9.568  -5.887  -3.435  1.00 39.65    -0.228 NA
HETATM    6  C5    D T2346       9.534  -6.068  -2.097  1.00 40.33     0.100 A 
HETATM    7  C14   D T2346       9.512  -5.036  -1.167  1.00 42.26     0.024 A 
ENDROOT
BRANCH   1   8
HETATM    8  O27   D T2346       9.568  -2.280  -3.762  1.00 39.48    -0.326 OA
BRANCH   8   9
HETATM    9  C21   D T2346       8.619  -1.206  -3.578  1.00 39.13     0.145 C 
HETATM   10  C1    D T2346       7.324  -1.839  -3.079  1.00 39.28     0.038 C 
BRANCH   9  11
HETATM   11  C17   D T2346       8.413  -0.387  -4.859  1.00 39.21     0.029 A 
HETATM   12  C13   D T2346       8.910   0.939  -4.981  1.00 38.58     0.057 A 
HETATM   13 CL     D T2346       9.757   1.782  -3.725  1.00 39.67    -0.083 Cl
HETATM   14  C3    D T2346       8.742   1.694  -6.152  1.00 38.18     0.013 A 
HETATM   15  C2    D T2346       8.068   1.179  -7.244  1.00 37.72     0.031 A 
HETATM   16  C12   D T2346       7.576  -0.105  -7.145  1.00 38.63     0.150 A 
HETATM   17  F     D T2346       6.935  -0.596  -8.197  1.00 38.40    -0.203 F 
HETATM   18  C18   D T2346       7.736  -0.890  -5.995  1.00 40.35     0.084 A 
HETATM   19 CL2    D T2346       7.029  -2.471  -6.076  1.00 48.02    -0.080 Cl
ENDBRANCH   9  11
ENDBRANCH   8   9
ENDBRANCH   1   8
BRANCH   7  20
HETATM   20  C16   D T2346       9.504  -5.354   0.258  1.00 45.17     0.042 A 
HETATM   21  C6    D T2346       9.357  -6.567   0.976  1.00 46.03     0.122 A 
HETATM   22  N24   D T2346       9.378  -6.402   2.302  1.00 47.73    -0.164 NA
HETATM   23  N26   D T2346       9.525  -5.067   2.459  1.00 49.42    -0.236 N 
HETATM   24  C7    D T2346       9.592  -4.414   1.267  1.00 47.26     0.101 A 
BRANCH  23  25
HETATM   25  C20   D T2346       9.602  -4.461   3.792  1.00 52.42     0.042 C 
HETATM   26  C8    D T2346       8.832  -5.174   4.922  1.00 53.67     0.067 C 
HETATM   27  C10   D T2346       9.641  -6.054   5.876  1.00 56.13     0.126 C 
HETATM   28  N25   D T2346      10.985  -5.466   6.198  1.00 56.98    -0.295 NA
HETATM   29  C11   D T2346      11.800  -5.011   5.026  1.00 56.01     0.126 C 
HETATM   30  C9    D T2346      11.010  -3.995   4.203  1.00 54.43     0.067 C 
ENDBRANCH  23  25
ENDBRANCH   7  20
TORSDOF 5
ENDMDL
MODEL 4
REMARK VINA RESULT:    -8.270      2.176      2.665
REMARK INTER + INTRA:         -10.959
REMARK INTER:                 -10.147
REMARK INTRA:                  -0.812
REMARK UNBOUND:                -0.271
REMARK  5 active torsions:
REMARK  status: ('A' for Active; 'I' for Inactive)
REMARK    1  A    between atoms: C17_7  and  C21_10 
REMARK    2  A    between atoms: C21_10  and  O27_12 
REMARK    3  A    between atoms: O27_12  and  C15_13 
REMARK    4  A    between atoms: C14_19  and  C16_20 
REMARK    5  A    between atoms: N26_23  and  C20_25 
ROOT
HETATM    1  C15   D T2346      10.097  -2.872  -2.606  1.00 39.29     0.125 A 
HETATM    2  C4    D T2346      10.613  -2.513  -1.341  1.00 40.72     0.029 A 
HETATM    3  C19   D T2346       9.992  -4.247  -2.868  1.00 38.96     0.173 A 
HETATM    4  N22   D T2346       9.500  -4.691  -4.102  1.00 36.18    -0.078 NA
HETATM    5  N23   D T2346      10.340  -5.206  -1.976  1.00 39.65    -0.228 NA
HETATM    6  C5    D T2346      10.824  -4.816  -0.778  1.00 40.33     0.100 A 
HETATM    7  C14   D T2346      10.985  -3.491  -0.391  1.00 42.26     0.024 A 
ENDROOT
BRANCH   1   8
HETATM    8  O27   D T2346       9.673  -2.059  -3.641  1.00 39.48    -0.326 OA
BRANCH   8   9
HETATM    9  C21   D T2346       8.745  -0.958  -3.517  1.00 39.13     0.145 C 
HETATM   10  C1    D T2346       7.475  -1.518  -2.884  1.00 39.28     0.038 C 
BRANCH   9  11
HETATM   11  C17   D T2346       8.475  -0.273  -4.863  1.00 39.21     0.029 A 
HETATM   12  C13   D T2346       8.908   1.055  -5.121  1.00 38.58     0.057 A 
HETATM   13 CL     D T2346       9.742   2.049  -3.970  1.00 39.67    -0.083 Cl
HETATM   14  C3    D T2346       8.680   1.689  -6.352  1.00 38.18     0.013 A 
HETATM   15  C2    D T2346       8.007   1.045  -7.374  1.00 37.72     0.031 A 
HETATM   16  C12   D T2346       7.576  -0.244  -7.143  1.00 38.63     0.150 A 
HETATM   17  F     D T2346       6.935  -0.859  -8.128  1.00 38.40    -0.203 F 
HETATM   18  C18   D T2346       7.797  -0.910  -5.929  1.00 40.35     0.084 A 
HETATM   19 CL2    D T2346       7.160  -2.520  -5.845  1.00 48.02    -0.080 Cl
ENDBRANCH   9  11
ENDBRANCH   8   9
ENDBRANCH   1   8
BRANCH   7  20
HETATM   20  C16   D T2346      11.545  -3.190   0.923  1.00 45.17     0.042 A 
HETATM   21  C6    D T2346      12.267  -3.964   1.866  1.00 46.03     0.122 A 
HETATM   22  N24   D T2346      12.568  -3.292   2.981  1.00 47.73    -0.164 NA
HETATM   23  N26   D T2346      12.025  -2.070   2.779  1.00 49.42    -0.236 N 
HETATM   24  C7    D T2346      11.402  -1.979   1.573  1.00 47.26     0.101 A 
BRANCH  23  25
HETATM   25  C20   D T2346      12.141  -1.010   3.785  1.00 52.42     0.042 C 
HETATM   26  C8    D T2346      12.541  -1.447   5.208  1.00 53.67     0.067 C 
HETATM   27  C10   D T2346      13.999  -1.242   5.621  1.00 56.13     0.126 C 
HETATM   28  N25   D T2346      14.572   0.040   5.088  1.00 56.98    -0.295 NA
HETATM   29  C11   D T2346      14.360   0.295   3.627  1.00 56.01     0.126 C 
HETATM   30  C9    D T2346      12.869   0.256   3.300  1.00 54.43     0.067 C 
ENDBRANCH  23  25
ENDBRANCH   7  20
TORSDOF 5
ENDMDL
MODEL 5
REMARK VINA RESULT:    -8.211      1.858      2.731
REMARK INTER + INTRA:         -10.883
REMARK INTER:                 -10.093
REMARK INTRA:                  -0.790
REMARK UNBOUND:                -0.271
REMARK  5 active torsions:
REMARK  status: ('A' for Active; 'I' for Inactive)
REMARK    1  A    between atoms: C17_7  and  C21_10 
REMARK    2  A    between atoms: C21_10  and  O27_12 
REMARK    3  A    between atoms: O27_12  and  C15_13 
REMARK    4  A    between atoms: C14_19  and  C16_20 
REMARK    5  A    between atoms: N26_23  and  C20_25 
ROOT
HETATM    1  C15   D T2346       9.928  -3.048  -2.648  1.00 39.29     0.125 A 
HETATM    2  C4    D T2346      10.349  -2.733  -1.337  1.00 40.72     0.029 A 
HETATM    3  C19   D T2346       9.895  -4.411  -2.982  1.00 38.96     0.173 A 
HETATM    4  N22   D T2346       9.500  -4.812  -4.264  1.00 36.18    -0.078 NA
HETATM    5  N23   D T2346      10.225  -5.400  -2.115  1.00 39.65    -0.228 NA
HETATM    6  C5    D T2346      10.616  -5.052  -0.871  1.00 40.33     0.100 A 
HETATM    7  C14   D T2346      10.699  -3.743  -0.412  1.00 42.26     0.024 A 
ENDROOT
BRANCH   1   8
HETATM    8  O27   D T2346       9.538  -2.202  -3.669  1.00 39.48    -0.326 OA
BRANCH   8   9
HETATM    9  C21   D T2346       8.616  -1.096  -3.537  1.00 39.13     0.145 C 
HETATM   10  C1    D T2346       7.327  -1.663  -2.948  1.00 39.28     0.038 C 
BRANCH   9  11
HETATM   11  C17   D T2346       8.381  -0.373  -4.870  1.00 39.21     0.029 A 
HETATM   12  C13   D T2346       7.711  -1.006  -5.951  1.00 38.58     0.057 A 
HETATM   13 CL     D T2346       7.122  -2.637  -5.911  1.00 39.67    -0.083 Cl
HETATM   14  C3    D T2346       7.476  -0.352  -7.170  1.00 38.18     0.013 A 
HETATM   15  C2    D T2346       7.902   0.947  -7.377  1.00 37.72     0.031 A 
HETATM   16  C12   D T2346       8.557   1.579  -6.341  1.00 38.63     0.150 A 
HETATM   17  F     D T2346       8.959   2.826  -6.543  1.00 38.40    -0.203 F 
HETATM   18  C18   D T2346       8.797   0.958  -5.108  1.00 40.35     0.084 A 
HETATM   19 CL2    D T2346       9.648   1.926  -3.948  1.00 48.02    -0.080 Cl
ENDBRANCH   9  11
ENDBRANCH   8   9
ENDBRANCH   1   8
BRANCH   7  20
HETATM   20  C16   D T2346      11.162  -3.487   0.948  1.00 45.17     0.042 A 
HETATM   21  C6    D T2346      10.653  -3.835   2.224  1.00 46.03     0.122 A 
HETATM   22  N24   D T2346      11.387  -3.361   3.235  1.00 47.73    -0.164 NA
HETATM   23  N26   D T2346      12.381  -2.680   2.620  1.00 49.42    -0.236 N 
HETATM   24  C7    D T2346      12.272  -2.726   1.264  1.00 47.26     0.101 A 
BRANCH  23  25
HETATM   25  C20   D T2346      13.428  -2.001   3.389  1.00 52.42     0.042 C 
HETATM   26  C8    D T2346      14.768  -1.757   2.668  1.00 53.67     0.067 C 
HETATM   27  C10   D T2346      15.024  -0.352   2.120  1.00 56.13     0.126 C 
HETATM   28  N25   D T2346      14.507   0.722   3.033  1.00 56.98    -0.295 NA
HETATM   29  C11   D T2346      13.097   0.554   3.511  1.00 56.01     0.126 C 
HETATM   30  C9    D T2346      12.939  -0.795   4.210  1.00 54.43     0.067 C 
ENDBRANCH  23  25
ENDBRANCH   7  20
TORSDOF 5
ENDMDL
MODEL 6
REMARK VINA RESULT:    -7.806      4.387      8.097
REMARK INTER + INTRA:         -10.359
REMARK INTER:                  -9.321
REMARK INTRA:                  -1.038
REMARK UNBOUND:                -0.271
REMARK  5 active torsions:
REMARK  status: ('A' for Active; 'I' for Inactive)
REMARK    1  A    between atoms: C17_7  and  C21_10 
REMARK    2  A    between atoms: C21_10  and  O27_12 
REMARK    3  A    between atoms: O27_12  and  C15_13 
REMARK    4  A    between atoms: C14_19  and  C16_20 
REMARK    5  A    between atoms: N26_23  and  C20_25 
ROOT
HETATM    1  C15   D T2346      10.568  -3.347   1.106  1.00 39.29     0.125 A 
HETATM    2  C4    D T2346      10.136  -2.530   0.038  1.00 40.72     0.029 A 
HETATM    3  C19   D T2346      10.059  -4.655   1.135  1.00 38.96     0.173 A 
HETATM    4  N22   D T2346      10.426  -5.530   2.166  1.00 36.18    -0.078 NA
HETATM    5  N23   D T2346       9.212  -5.148   0.198  1.00 39.65    -0.228 NA
HETATM    6  C5    D T2346       8.831  -4.332  -0.808  1.00 40.33     0.100 A 
HETATM    7  C14   D T2346       9.254  -3.017  -0.954  1.00 42.26     0.024 A 
ENDROOT
BRANCH   1   8
HETATM    8  O27   D T2346      11.429  -3.047   2.144  1.00 39.48    -0.326 OA
BRANCH   8   9
HETATM    9  C21   D T2346      12.850  -2.815   2.016  1.00 39.13     0.145 C 
HETATM   10  C1    D T2346      13.541  -3.723   3.029  1.00 39.28     0.038 C 
BRANCH   9  11
HETATM   11  C17   D T2346      13.217  -1.338   2.210  1.00 39.21     0.029 A 
HETATM   12  C13   D T2346      12.936  -0.656   3.424  1.00 38.58     0.057 A 
HETATM   13 CL     D T2346      12.138  -1.376   4.784  1.00 39.67    -0.083 Cl
HETATM   14  C3    D T2346      13.280   0.691   3.620  1.00 38.18     0.013 A 
HETATM   15  C2    D T2346      13.902   1.422   2.626  1.00 37.72     0.031 A 
HETATM   16  C12   D T2346      14.181   0.779   1.438  1.00 38.63     0.150 A 
HETATM   17  F     D T2346      14.783   1.484   0.489  1.00 38.40    -0.203 F 
HETATM   18  C18   D T2346      13.862  -0.567   1.214  1.00 40.35     0.084 A 
HETATM   19 CL2    D T2346      14.288  -1.175  -0.353  1.00 48.02    -0.080 Cl
ENDBRANCH   9  11
ENDBRANCH   8   9
ENDBRANCH   1   8
BRANCH   7  20
HETATM   20  C16   D T2346       8.752  -2.221  -2.070  1.00 45.17     0.042 A 
HETATM   21  C6    D T2346       7.942  -2.531  -3.191  1.00 46.03     0.122 A 
HETATM   22  N24   D T2346       7.745  -1.490  -4.005  1.00 47.73    -0.164 NA
HETATM   23  N26   D T2346       8.443  -0.489  -3.424  1.00 49.42    -0.236 N 
HETATM   24  C7    D T2346       9.061  -0.890  -2.280  1.00 47.26     0.101 A 
BRANCH  23  25
HETATM   25  C20   D T2346       8.479   0.854  -4.011  1.00 52.42     0.042 C 
HETATM   26  C8    D T2346       9.825   1.602  -3.945  1.00 53.67     0.067 C 
HETATM   27  C10   D T2346      10.681   1.622  -5.212  1.00 56.13     0.126 C 
HETATM   28  N25   D T2346       9.855   1.761  -6.459  1.00 56.98    -0.295 NA
HETATM   29  C11   D T2346       8.690   0.828  -6.582  1.00 56.01     0.126 C 
HETATM   30  C9    D T2346       7.770   0.978  -5.371  1.00 54.43     0.067 C 
ENDBRANCH  23  25
ENDBRANCH   7  20
TORSDOF 5
ENDMDL
MODEL 7
REMARK VINA RESULT:    -7.788      1.793      2.761
REMARK INTER + INTRA:         -10.336
REMARK INTER:                  -9.880
REMARK INTRA:                  -0.456
REMARK UNBOUND:                -0.271
REMARK  5 active torsions:
REMARK  status: ('A' for Active; 'I' for Inactive)
REMARK    1  A    between atoms: C17_7  and  C21_10 
REMARK    2  A    between atoms: C21_10  and  O27_12 
REMARK    3  A    between atoms: O27_12  and  C15_13 
REMARK    4  A    between atoms: C14_19  and  C16_20 
REMARK    5  A    between atoms: N26_23  and  C20_25 
ROOT
HETATM    1  C15   D T2346       9.200  -3.099  -1.412  1.00 39.29     0.125 A 
HETATM    2  C4    D T2346      10.098  -2.188  -0.810  1.00 40.72     0.029 A 
HETATM    3  C19   D T2346       9.027  -4.328  -0.758  1.00 38.96     0.173 A 
HETATM    4  N22   D T2346       8.164  -5.293  -1.291  1.00 36.18    -0.078 NA
HETATM    5  N23   D T2346       9.656  -4.654   0.399  1.00 39.65    -0.228 NA
HETATM    6  C5    D T2346      10.501  -3.750   0.940  1.00 40.33     0.100 A 
HETATM    7  C14   D T2346      10.767  -2.500   0.395  1.00 42.26     0.024 A 
ENDROOT
BRANCH   1   8
HETATM    8  O27   D T2346       8.455  -2.958  -2.568  1.00 39.48    -0.326 OA
BRANCH   8   9
HETATM    9  C21   D T2346       8.968  -3.062  -3.915  1.00 39.13     0.145 C 
HETATM   10  C1    D T2346      10.424  -3.505  -3.801  1.00 39.28     0.038 C 
BRANCH   9  11
HETATM   11  C17   D T2346       8.815  -1.752  -4.698  1.00 39.21     0.029 A 
HETATM   12  C13   D T2346       7.812  -1.593  -5.692  1.00 38.58     0.057 A 
HETATM   13 CL     D T2346       6.692  -2.834  -6.153  1.00 39.67    -0.083 Cl
HETATM   14  C3    D T2346       7.652  -0.396  -6.406  1.00 38.18     0.013 A 
HETATM   15  C2    D T2346       8.479   0.689  -6.178  1.00 37.72     0.031 A 
HETATM   16  C12   D T2346       9.460   0.554  -5.219  1.00 38.63     0.150 A 
HETATM   17  F     D T2346      10.247   1.598  -5.000  1.00 38.40    -0.203 F 
HETATM   18  C18   D T2346       9.640  -0.623  -4.480  1.00 40.35     0.084 A 
HETATM   19 CL2    D T2346      10.941  -0.585  -3.334  1.00 48.02    -0.080 Cl
ENDBRANCH   9  11
ENDBRANCH   8   9
ENDBRANCH   1   8
BRANCH   7  20
HETATM   20  C16   D T2346      11.722  -1.617   1.057  1.00 45.17     0.042 A 
HETATM   21  C6    D T2346      11.788  -1.070   2.363  1.00 46.03     0.122 A 
HETATM   22  N24   D T2346      12.838  -0.265   2.547  1.00 47.73    -0.164 NA
HETATM   23  N26   D T2346      13.462  -0.268   1.347  1.00 49.42    -0.236 N 
HETATM   24  C7    D T2346      12.821  -1.051   0.438  1.00 47.26     0.101 A 
BRANCH  23  25
HETATM   25  C20   D T2346      14.690   0.502   1.125  1.00 52.42     0.042 C 
HETATM   26  C8    D T2346      15.932  -0.292   0.674  1.00 53.67     0.067 C 
HETATM   27  C10   D T2346      16.290  -0.250  -0.812  1.00 56.13     0.126 C 
HETATM   28  N25   D T2346      16.056   1.103  -1.421  1.00 56.98    -0.295 NA
HETATM   29  C11   D T2346      14.720   1.723  -1.147  1.00 56.01     0.126 C 
HETATM   30  C9    D T2346      14.489   1.822   0.360  1.00 54.43     0.067 C 
ENDBRANCH  23  25
ENDBRANCH   7  20
TORSDOF 5
ENDMDL
MODEL 8
REMARK VINA RESULT:    -7.670      4.330      7.978
REMARK INTER + INTRA:         -10.183
REMARK INTER:                  -8.960
REMARK INTRA:                  -1.223
REMARK UNBOUND:                -0.271
REMARK  5 active torsions:
REMARK  status: ('A' for Active; 'I' for Inactive)
REMARK    1  A    between atoms: C17_7  and  C21_10 
REMARK    2  A    between atoms: C21_10  and  O27_12 
REMARK    3  A    between atoms: O27_12  and  C15_13 
REMARK    4  A    between atoms: C14_19  and  C16_20 
REMARK    5  A    between atoms: N26_23  and  C20_25 
ROOT
HETATM    1  C15   D T2346      11.890  -1.797   1.979  1.00 39.29     0.125 A 
HETATM    2  C4    D T2346      11.349  -1.492   0.710  1.00 40.72     0.029 A 
HETATM    3  C19   D T2346      11.387  -2.944   2.612  1.00 38.96     0.173 A 
HETATM    4  N22   D T2346      11.860  -3.314   3.877  1.00 36.18    -0.078 NA
HETATM    5  N23   D T2346      10.446  -3.749   2.060  1.00 39.65    -0.228 NA
HETATM    6  C5    D T2346       9.962  -3.422   0.843  1.00 40.33     0.100 A 
HETATM    7  C14   D T2346      10.367  -2.313   0.110  1.00 42.26     0.024 A 
ENDROOT
BRANCH   1   8
HETATM    8  O27   D T2346      12.856  -1.123   2.703  1.00 39.48    -0.326 OA
BRANCH   8   9
HETATM    9  C21   D T2346      14.280  -1.188   2.465  1.00 39.13     0.145 C 
HETATM   10  C1    D T2346      14.962  -0.599   3.697  1.00 39.28     0.038 C 
BRANCH   9  11
HETATM   11  C17   D T2346      14.686  -0.469   1.172  1.00 39.21     0.029 A 
HETATM   12  C13   D T2346      14.486   0.928   1.004  1.00 38.58     0.057 A 
HETATM   13 CL     D T2346      13.748   1.956   2.190  1.00 39.67    -0.083 Cl
HETATM   14  C3    D T2346      14.865   1.601  -0.167  1.00 38.18     0.013 A 
HETATM   15  C2    D T2346      15.448   0.925  -1.223  1.00 37.72     0.031 A 
HETATM   16  C12   D T2346      15.650  -0.431  -1.081  1.00 38.63     0.150 A 
HETATM   17  F     D T2346      16.213  -1.075  -2.095  1.00 38.40    -0.203 F 
HETATM   18  C18   D T2346      15.292  -1.132   0.079  1.00 40.35     0.084 A 
HETATM   19 CL2    D T2346      15.621  -2.835   0.044  1.00 48.02    -0.080 Cl
ENDBRANCH   9  11
ENDBRANCH   8   9
ENDBRANCH   1   8
BRANCH   7  20
HETATM   20  C16   D T2346       9.751  -2.044  -1.185  1.00 45.17     0.042 A 
HETATM   21  C6    D T2346       8.486  -2.364  -1.738  1.00 46.03     0.122 A 
HETATM   22  N24   D T2346       8.338  -1.947  -2.999  1.00 47.73    -0.164 NA
HETATM   23  N26   D T2346       9.522  -1.360  -3.285  1.00 49.42    -0.236 N 
HETATM   24  C7    D T2346      10.387  -1.410  -2.235  1.00 47.26     0.101 A 
BRANCH  23  25
HETATM   25  C20   D T2346       9.774  -0.753  -4.595  1.00 52.42     0.042 C 
HETATM   26  C8    D T2346       8.537  -0.410  -5.449  1.00 53.67     0.067 C 
HETATM   27  C10   D T2346       8.082   1.050  -5.471  1.00 56.13     0.126 C 
HETATM   28  N25   D T2346       9.237   2.010  -5.483  1.00 56.98    -0.295 NA
HETATM   29  C11   D T2346      10.302   1.769  -4.456  1.00 56.01     0.126 C 
HETATM   30  C9    D T2346      10.849   0.349  -4.595  1.00 54.43     0.067 C 
ENDBRANCH  23  25
ENDBRANCH   7  20
TORSDOF 5
ENDMDL
MODEL 9
REMARK VINA RESULT:    -7.500      4.561      8.234
REMARK INTER + INTRA:          -9.964
REMARK INTER:                  -8.927
REMARK INTRA:                  -1.036
REMARK UNBOUND:                -0.271
REMARK  5 active torsions:
REMARK  status: ('A' for Active; 'I' for Inactive)
REMARK    1  A    between atoms: C17_7  and  C21_10 
REMARK    2  A    between atoms: C21_10  and  O27_12 
REMARK    3  A    between atoms: O27_12  and  C15_13 
REMARK    4  A    between atoms: C14_19  and  C16_20 
REMARK    5  A    between atoms: N26_23  and  C20_25 
ROOT
HETATM    1  C15   D T2346      10.454  -3.470   1.175  1.00 39.29     0.125 A 
HETATM    2  C4    D T2346      10.225  -2.687   0.021  1.00 40.72     0.029 A 
HETATM    3  C19   D T2346       9.740  -4.675   1.262  1.00 38.96     0.173 A 
HETATM    4  N22   D T2346       9.898  -5.508   2.377  1.00 36.18    -0.078 NA
HETATM    5  N23   D T2346       8.884  -5.107   0.303  1.00 39.65    -0.228 NA
HETATM    6  C5    D T2346       8.702  -4.329  -0.785  1.00 40.33     0.100 A 
HETATM    7  C14   D T2346       9.339  -3.112  -0.994  1.00 42.26     0.024 A 
ENDROOT
BRANCH   1   8
HETATM    8  O27   D T2346      11.287  -3.222   2.250  1.00 39.48    -0.326 OA
BRANCH   8   9
HETATM    9  C21   D T2346      12.729  -3.147   2.194  1.00 39.13     0.145 C 
HETATM   10  C1    D T2346      13.257  -3.800   3.468  1.00 39.28     0.038 C 
BRANCH   9  11
HETATM   11  C17   D T2346      13.230  -1.707   2.024  1.00 39.21     0.029 A 
HETATM   12  C13   D T2346      13.933  -1.296   0.860  1.00 38.58     0.057 A 
HETATM   13 CL     D T2346      14.330  -2.348  -0.460  1.00 39.67    -0.083 Cl
HETATM   14  C3    D T2346      14.384   0.021   0.686  1.00 38.18     0.013 A 
HETATM   15  C2    D T2346      14.170   0.984   1.655  1.00 37.72     0.031 A 
HETATM   16  C12   D T2346      13.492   0.606   2.794  1.00 38.63     0.150 A 
HETATM   17  F     D T2346      13.286   1.533   3.719  1.00 38.40    -0.203 F 
HETATM   18  C18   D T2346      13.019  -0.698   2.995  1.00 40.35     0.084 A 
HETATM   19 CL2    D T2346      12.204  -0.964   4.502  1.00 48.02    -0.080 Cl
ENDBRANCH   9  11
ENDBRANCH   8   9
ENDBRANCH   1   8
BRANCH   7  20
HETATM   20  C16   D T2346       9.041  -2.343  -2.199  1.00 45.17     0.042 A 
HETATM   21  C6    D T2346       8.710  -2.716  -3.526  1.00 46.03     0.122 A 
HETATM   22  N24   D T2346       8.544  -1.672  -4.343  1.00 47.73    -0.164 NA
HETATM   23  N26   D T2346       8.783  -0.602  -3.552  1.00 49.42    -0.236 N 
HETATM   24  C7    D T2346       9.091  -0.964  -2.277  1.00 47.26     0.101 A 
BRANCH  23  25
HETATM   25  C20   D T2346       8.695   0.765  -4.074  1.00 52.42     0.042 C 
HETATM   26  C8    D T2346      10.012   1.563  -4.150  1.00 53.67     0.067 C 
HETATM   27  C10   D T2346      10.689   1.671  -5.517  1.00 56.13     0.126 C 
HETATM   28  N25   D T2346       9.699   1.831  -6.636  1.00 56.98    -0.295 NA
HETATM   29  C11   D T2346       8.560   0.858  -6.648  1.00 56.01     0.126 C 
HETATM   30  C9    D T2346       7.806   0.919  -5.321  1.00 54.43     0.067 C 
ENDBRANCH  23  25
ENDBRANCH   7  20
TORSDOF 5
ENDMDL
