MODEL 1
REMARK VINA RESULT:    -8.376      0.000      0.000
REMARK INTER + INTRA:         -11.685
REMARK INTER:                 -10.824
REMARK INTRA:                  -0.861
REMARK UNBOUND:                -0.861
REMARK  5 active torsions:
REMARK  status: ('A' for Active; 'I' for Inactive)
REMARK    1  A    between atoms: C17_7  and  C21_10 
REMARK    2  A    between atoms: C21_10  and  O27_12 
REMARK    3  A    between atoms: O27_12  and  C15_13 
REMARK    4  A    between atoms: C14_19  and  C16_20 
REMARK    5  A    between atoms: N26_23  and  C20_25 
ROOT
HETATM    1  C15   D T2346      -1.574   0.732  14.702  1.00 39.29     0.125 A 
HETATM    2  C4    D T2346      -1.124  -0.486  15.257  1.00 40.72     0.029 A 
HETATM    3  C19   D T2346      -2.962   0.866  14.537  1.00 38.96     0.173 A 
HETATM    4  N22   D T2346      -3.493   2.038  13.985  1.00 36.18    -0.078 NA
HETATM    5  N23   D T2346      -3.853  -0.092  14.894  1.00 39.65    -0.228 NA
HETATM    6  C5    D T2346      -3.377  -1.238  15.427  1.00 40.33     0.100 A 
HETATM    7  C14   D T2346      -2.030  -1.504  15.639  1.00 42.26     0.024 A 
ENDROOT
BRANCH   1   8
HETATM    8  O27   D T2346      -0.842   1.829  14.290  1.00 39.48    -0.326 OA
BRANCH   8   9
HETATM    9  C21   D T2346       0.520   1.796  13.809  1.00 39.13     0.145 C 
HETATM   10  C1    D T2346       1.397   2.364  14.921  1.00 39.28     0.038 C 
BRANCH   9  11
HETATM   11  C17   D T2346       0.687   2.558  12.488  1.00 39.21     0.029 A 
HETATM   12  C13   D T2346       1.422   2.010  11.401  1.00 38.58     0.057 A 
HETATM   13 CL     D T2346       2.225   0.475  11.444  1.00 39.67    -0.083 Cl
HETATM   14  C3    D T2346       1.570   2.689  10.182  1.00 38.18     0.013 A 
HETATM   15  C2    D T2346       1.011   3.939   9.987  1.00 37.72     0.031 A 
HETATM   16  C12   D T2346       0.296   4.489  11.029  1.00 38.63     0.150 A 
HETATM   17  F     D T2346      -0.243   5.685  10.836  1.00 38.40    -0.203 F 
HETATM   18  C18   D T2346       0.119   3.833  12.255  1.00 40.35     0.084 A 
HETATM   19 CL2    D T2346      -0.803   4.709  13.435  1.00 48.02    -0.080 Cl
ENDBRANCH   9  11
ENDBRANCH   8   9
ENDBRANCH   1   8
BRANCH   7  20
HETATM   20  C16   D T2346      -1.630  -2.792  16.196  1.00 45.17     0.042 A 
HETATM   21  C6    D T2346      -0.371  -3.415  16.385  1.00 46.03     0.122 A 
HETATM   22  N24   D T2346      -0.462  -4.641  16.911  1.00 47.73    -0.164 NA
HETATM   23  N26   D T2346      -1.792  -4.833  17.056  1.00 49.42    -0.236 N 
HETATM   24  C7    D T2346      -2.514  -3.762  16.631  1.00 47.26     0.101 A 
BRANCH  23  25
HETATM   25  C20   D T2346      -2.324  -6.078  17.619  1.00 52.42     0.042 C 
HETATM   26  C8    D T2346      -1.665  -6.591  18.914  1.00 53.67     0.067 C 
HETATM   27  C10   D T2346      -2.401  -6.325  20.228  1.00 56.13     0.126 C 
HETATM   28  N25   D T2346      -3.891  -6.464  20.090  1.00 56.98    -0.295 NA
HETATM   29  C11   D T2346      -4.513  -5.734  18.940  1.00 56.01     0.126 C 
HETATM   30  C9    D T2346      -3.861  -6.170  17.629  1.00 54.43     0.067 C 
ENDBRANCH  23  25
ENDBRANCH   7  20
TORSDOF 5
ENDMDL
MODEL 2
REMARK VINA RESULT:    -8.068      4.997     10.499
REMARK INTER + INTRA:         -11.287
REMARK INTER:                 -10.527
REMARK INTRA:                  -0.760
REMARK UNBOUND:                -0.861
REMARK  5 active torsions:
REMARK  status: ('A' for Active; 'I' for Inactive)
REMARK    1  A    between atoms: C17_7  and  C21_10 
REMARK    2  A    between atoms: C21_10  and  O27_12 
REMARK    3  A    between atoms: O27_12  and  C15_13 
REMARK    4  A    between atoms: C14_19  and  C16_20 
REMARK    5  A    between atoms: N26_23  and  C20_25 
ROOT
HETATM    1  C15   D T2346       1.487   0.694  13.122  1.00 39.29     0.125 A 
HETATM    2  C4    D T2346       1.814   1.660  12.145  1.00 40.72     0.029 A 
HETATM    3  C19   D T2346       2.562  -0.012  13.684  1.00 38.96     0.173 A 
HETATM    4  N22   D T2346       2.327  -0.994  14.653  1.00 36.18    -0.078 NA
HETATM    5  N23   D T2346       3.857   0.204  13.343  1.00 39.65    -0.228 NA
HETATM    6  C5    D T2346       4.123   1.142  12.409  1.00 40.33     0.100 A 
HETATM    7  C14   D T2346       3.156   1.907  11.770  1.00 42.26     0.024 A 
ENDROOT
BRANCH   1   8
HETATM    8  O27   D T2346       0.248   0.336  13.617  1.00 39.48    -0.326 OA
BRANCH   8   9
HETATM    9  C21   D T2346      -0.623   1.186  14.395  1.00 39.13     0.145 C 
HETATM   10  C1    D T2346      -0.048   1.238  15.807  1.00 39.28     0.038 C 
BRANCH   9  11
HETATM   11  C17   D T2346      -2.078   0.700  14.375  1.00 39.21     0.029 A 
HETATM   12  C13   D T2346      -2.452  -0.552  14.935  1.00 38.58     0.057 A 
HETATM   13 CL     D T2346      -1.340  -1.667  15.659  1.00 39.67    -0.083 Cl
HETATM   14  C3    D T2346      -3.781  -1.002  14.937  1.00 38.18     0.013 A 
HETATM   15  C2    D T2346      -4.793  -0.244  14.378  1.00 37.72     0.031 A 
HETATM   16  C12   D T2346      -4.452   0.972  13.826  1.00 38.63     0.150 A 
HETATM   17  F     D T2346      -5.427   1.698  13.296  1.00 38.40    -0.203 F 
HETATM   18  C18   D T2346      -3.137   1.457  13.818  1.00 40.35     0.084 A 
HETATM   19 CL2    D T2346      -2.924   3.003  13.062  1.00 48.02    -0.080 Cl
ENDBRANCH   9  11
ENDBRANCH   8   9
ENDBRANCH   1   8
BRANCH   7  20
HETATM   20  C16   D T2346       3.559   2.873  10.752  1.00 45.17     0.042 A 
HETATM   21  C6    D T2346       2.872   3.917  10.084  1.00 46.03     0.122 A 
HETATM   22  N24   D T2346       3.625   4.550   9.179  1.00 47.73    -0.164 NA
HETATM   23  N26   D T2346       4.813   3.908   9.240  1.00 49.42    -0.236 N 
HETATM   24  C7    D T2346       4.805   2.901  10.155  1.00 47.26     0.101 A 
BRANCH  23  25
HETATM   25  C20   D T2346       5.940   4.309   8.392  1.00 52.42     0.042 C 
HETATM   26  C8    D T2346       7.138   3.343   8.328  1.00 53.67     0.067 C 
HETATM   27  C10   D T2346       7.245   2.439   7.099  1.00 56.13     0.126 C 
HETATM   28  N25   D T2346       6.832   3.139   5.834  1.00 56.98    -0.295 NA
HETATM   29  C11   D T2346       5.524   3.866   5.885  1.00 56.01     0.126 C 
HETATM   30  C9    D T2346       5.537   4.886   7.022  1.00 54.43     0.067 C 
ENDBRANCH  23  25
ENDBRANCH   7  20
TORSDOF 5
ENDMDL
MODEL 3
REMARK VINA RESULT:    -8.023      1.505      2.189
REMARK INTER + INTRA:         -11.230
REMARK INTER:                 -10.376
REMARK INTRA:                  -0.853
REMARK UNBOUND:                -0.861
REMARK  5 active torsions:
REMARK  status: ('A' for Active; 'I' for Inactive)
REMARK    1  A    between atoms: C17_7  and  C21_10 
REMARK    2  A    between atoms: C21_10  and  O27_12 
REMARK    3  A    between atoms: O27_12  and  C15_13 
REMARK    4  A    between atoms: C14_19  and  C16_20 
REMARK    5  A    between atoms: N26_23  and  C20_25 
ROOT
HETATM    1  C15   D T2346      -1.599   0.702  14.613  1.00 39.29     0.125 A 
HETATM    2  C4    D T2346      -1.104  -0.509  15.145  1.00 40.72     0.029 A 
HETATM    3  C19   D T2346      -2.996   0.824  14.535  1.00 38.96     0.173 A 
HETATM    4  N22   D T2346      -3.571   1.988  14.012  1.00 36.18    -0.078 NA
HETATM    5  N23   D T2346      -3.854  -0.141  14.950  1.00 39.65    -0.228 NA
HETATM    6  C5    D T2346      -3.335  -1.280  15.457  1.00 40.33     0.100 A 
HETATM    7  C14   D T2346      -1.975  -1.533  15.586  1.00 42.26     0.024 A 
ENDROOT
BRANCH   1   8
HETATM    8  O27   D T2346      -0.905   1.804  14.153  1.00 39.48    -0.326 OA
BRANCH   8   9
HETATM    9  C21   D T2346       0.483   1.814  13.752  1.00 39.13     0.145 C 
HETATM   10  C1    D T2346       1.276   2.407  14.913  1.00 39.28     0.038 C 
BRANCH   9  11
HETATM   11  C17   D T2346       0.704   2.582  12.443  1.00 39.21     0.029 A 
HETATM   12  C13   D T2346       1.446   2.021  11.368  1.00 38.58     0.057 A 
HETATM   13 CL     D T2346       2.199   0.460  11.414  1.00 39.67    -0.083 Cl
HETATM   14  C3    D T2346       1.644   2.706  10.159  1.00 38.18     0.013 A 
HETATM   15  C2    D T2346       1.129   3.974   9.964  1.00 37.72     0.031 A 
HETATM   16  C12   D T2346       0.408   4.538  10.995  1.00 38.63     0.150 A 
HETATM   17  F     D T2346      -0.088   5.752  10.801  1.00 38.40    -0.203 F 
HETATM   18  C18   D T2346       0.183   3.877  12.210  1.00 40.35     0.084 A 
HETATM   19 CL2    D T2346      -0.737   4.771  13.378  1.00 48.02    -0.080 Cl
ENDBRANCH   9  11
ENDBRANCH   8   9
ENDBRANCH   1   8
BRANCH   7  20
HETATM   20  C16   D T2346      -1.529  -2.815  16.122  1.00 45.17     0.042 A 
HETATM   21  C6    D T2346      -2.204  -3.879  16.771  1.00 46.03     0.122 A 
HETATM   22  N24   D T2346      -1.391  -4.875  17.138  1.00 47.73    -0.164 NA
HETATM   23  N26   D T2346      -0.168  -4.457  16.741  1.00 49.42    -0.236 N 
HETATM   24  C7    D T2346      -0.212  -3.234  16.146  1.00 47.26     0.101 A 
BRANCH  23  25
HETATM   25  C20   D T2346       1.025  -5.281  16.956  1.00 52.42     0.042 C 
HETATM   26  C8    D T2346       1.503  -5.443  18.412  1.00 53.67     0.067 C 
HETATM   27  C10   D T2346       1.144  -6.747  19.126  1.00 56.13     0.126 C 
HETATM   28  N25   D T2346       1.228  -7.942  18.217  1.00 56.98    -0.295 NA
HETATM   29  C11   D T2346       0.528  -7.812  16.899  1.00 56.01     0.126 C 
HETATM   30  C9    D T2346       1.053  -6.591  16.146  1.00 54.43     0.067 C 
ENDBRANCH  23  25
ENDBRANCH   7  20
TORSDOF 5
ENDMDL
MODEL 4
REMARK VINA RESULT:    -8.017      1.190      2.050
REMARK INTER + INTRA:         -11.221
REMARK INTER:                 -10.369
REMARK INTRA:                  -0.852
REMARK UNBOUND:                -0.861
REMARK  5 active torsions:
REMARK  status: ('A' for Active; 'I' for Inactive)
REMARK    1  A    between atoms: C17_7  and  C21_10 
REMARK    2  A    between atoms: C21_10  and  O27_12 
REMARK    3  A    between atoms: O27_12  and  C15_13 
REMARK    4  A    between atoms: C14_19  and  C16_20 
REMARK    5  A    between atoms: N26_23  and  C20_25 
ROOT
HETATM    1  C15   D T2346      -1.627   0.451  14.740  1.00 39.29     0.125 A 
HETATM    2  C4    D T2346      -1.205  -0.776  15.296  1.00 40.72     0.029 A 
HETATM    3  C19   D T2346      -3.014   0.658  14.669  1.00 38.96     0.173 A 
HETATM    4  N22   D T2346      -3.520   1.843  14.123  1.00 36.18    -0.078 NA
HETATM    5  N23   D T2346      -3.927  -0.241  15.113  1.00 39.65    -0.228 NA
HETATM    6  C5    D T2346      -3.477  -1.399  15.644  1.00 40.33     0.100 A 
HETATM    7  C14   D T2346      -2.134  -1.733  15.768  1.00 42.26     0.024 A 
ENDROOT
BRANCH   1   8
HETATM    8  O27   D T2346      -0.869   1.496  14.248  1.00 39.48    -0.326 OA
BRANCH   8   9
HETATM    9  C21   D T2346       0.566   1.486  14.081  1.00 39.13     0.145 C 
HETATM   10  C1    D T2346       1.149   2.350  15.195  1.00 39.28     0.038 C 
BRANCH   9  11
HETATM   11  C17   D T2346       0.991   1.964  12.687  1.00 39.21     0.029 A 
HETATM   12  C13   D T2346       0.464   3.154  12.116  1.00 38.58     0.057 A 
HETATM   13 CL     D T2346      -0.716   4.164  12.886  1.00 39.67    -0.083 Cl
HETATM   14  C3    D T2346       0.855   3.611  10.848  1.00 38.18     0.013 A 
HETATM   15  C2    D T2346       1.773   2.910  10.088  1.00 37.72     0.031 A 
HETATM   16  C12   D T2346       2.295   1.752  10.622  1.00 38.63     0.150 A 
HETATM   17  F     D T2346       3.178   1.086   9.891  1.00 38.40    -0.203 F 
HETATM   18  C18   D T2346       1.935   1.274  11.889  1.00 40.35     0.084 A 
HETATM   19 CL2    D T2346       2.699  -0.209  12.364  1.00 48.02    -0.080 Cl
ENDBRANCH   9  11
ENDBRANCH   8   9
ENDBRANCH   1   8
BRANCH   7  20
HETATM   20  C16   D T2346      -1.765  -3.028  16.331  1.00 45.17     0.042 A 
HETATM   21  C6    D T2346      -0.520  -3.675  16.534  1.00 46.03     0.122 A 
HETATM   22  N24   D T2346      -0.639  -4.897  17.061  1.00 47.73    -0.164 NA
HETATM   23  N26   D T2346      -1.974  -5.064  17.193  1.00 49.42    -0.236 N 
HETATM   24  C7    D T2346      -2.672  -3.979  16.759  1.00 47.26     0.101 A 
BRANCH  23  25
HETATM   25  C20   D T2346      -2.536  -6.297  17.753  1.00 52.42     0.042 C 
HETATM   26  C8    D T2346      -1.846  -6.866  19.007  1.00 53.67     0.067 C 
HETATM   27  C10   D T2346      -2.513  -6.599  20.357  1.00 56.13     0.126 C 
HETATM   28  N25   D T2346      -4.013  -6.671  20.281  1.00 56.98    -0.295 NA
HETATM   29  C11   D T2346      -4.650  -5.889  19.174  1.00 56.01     0.126 C 
HETATM   30  C9    D T2346      -4.074  -6.324  17.827  1.00 54.43     0.067 C 
ENDBRANCH  23  25
ENDBRANCH   7  20
TORSDOF 5
ENDMDL
MODEL 5
REMARK VINA RESULT:    -7.918      5.759     10.656
REMARK INTER + INTRA:         -11.094
REMARK INTER:                 -11.504
REMARK INTRA:                   0.410
REMARK UNBOUND:                -0.861
REMARK  5 active torsions:
REMARK  status: ('A' for Active; 'I' for Inactive)
REMARK    1  A    between atoms: C17_7  and  C21_10 
REMARK    2  A    between atoms: C21_10  and  O27_12 
REMARK    3  A    between atoms: O27_12  and  C15_13 
REMARK    4  A    between atoms: C14_19  and  C16_20 
REMARK    5  A    between atoms: N26_23  and  C20_25 
ROOT
HETATM    1  C15   D T2346      -0.269   3.562  11.880  1.00 39.29     0.125 A 
HETATM    2  C4    D T2346       1.053   3.229  11.511  1.00 40.72     0.029 A 
HETATM    3  C19   D T2346      -0.608   4.923  11.818  1.00 38.96     0.173 A 
HETATM    4  N22   D T2346      -1.894   5.343  12.175  1.00 36.18    -0.078 NA
HETATM    5  N23   D T2346       0.254   5.891  11.416  1.00 39.65    -0.228 NA
HETATM    6  C5    D T2346       1.506   5.524  11.066  1.00 40.33     0.100 A 
HETATM    7  C14   D T2346       1.974   4.216  11.088  1.00 42.26     0.024 A 
ENDROOT
BRANCH   1   8
HETATM    8  O27   D T2346      -1.295   2.737  12.298  1.00 39.48    -0.326 OA
BRANCH   8   9
HETATM    9  C21   D T2346      -1.564   2.360  13.667  1.00 39.13     0.145 C 
HETATM   10  C1    D T2346      -0.285   1.733  14.214  1.00 39.28     0.038 C 
BRANCH   9  11
HETATM   11  C17   D T2346      -2.771   1.422  13.784  1.00 39.21     0.029 A 
HETATM   12  C13   D T2346      -3.889   1.534  12.912  1.00 38.58     0.057 A 
HETATM   13 CL     D T2346      -4.037   2.732  11.668  1.00 39.67    -0.083 Cl
HETATM   14  C3    D T2346      -4.993   0.673  12.999  1.00 38.18     0.013 A 
HETATM   15  C2    D T2346      -5.047  -0.327  13.953  1.00 37.72     0.031 A 
HETATM   16  C12   D T2346      -3.975  -0.451  14.810  1.00 38.63     0.150 A 
HETATM   17  F     D T2346      -4.029  -1.414  15.720  1.00 38.40    -0.203 F 
HETATM   18  C18   D T2346      -2.852   0.384  14.744  1.00 40.35     0.084 A 
HETATM   19 CL2    D T2346      -1.622   0.065  15.925  1.00 48.02    -0.080 Cl
ENDBRANCH   9  11
ENDBRANCH   8   9
ENDBRANCH   1   8
BRANCH   7  20
HETATM   20  C16   D T2346       3.358   3.941  10.715  1.00 45.17     0.042 A 
HETATM   21  C6    D T2346       4.388   3.177  11.318  1.00 46.03     0.122 A 
HETATM   22  N24   D T2346       5.543   3.223  10.646  1.00 47.73    -0.164 NA
HETATM   23  N26   D T2346       5.276   4.036   9.600  1.00 49.42    -0.236 N 
HETATM   24  C7    D T2346       3.993   4.489   9.617  1.00 47.26     0.101 A 
BRANCH  23  25
HETATM   25  C20   D T2346       6.299   4.347   8.597  1.00 52.42     0.042 C 
HETATM   26  C8    D T2346       7.355   3.259   8.323  1.00 53.67     0.067 C 
HETATM   27  C10   D T2346       7.169   2.402   7.070  1.00 56.13     0.126 C 
HETATM   28  N25   D T2346       6.652   3.195   5.903  1.00 56.98    -0.295 NA
HETATM   29  C11   D T2346       5.459   4.058   6.174  1.00 56.01     0.126 C 
HETATM   30  C9    D T2346       5.761   5.022   7.321  1.00 54.43     0.067 C 
ENDBRANCH  23  25
ENDBRANCH   7  20
TORSDOF 5
ENDMDL
MODEL 6
REMARK VINA RESULT:    -7.869      5.472     10.471
REMARK INTER + INTRA:         -11.030
REMARK INTER:                 -10.145
REMARK INTRA:                  -0.885
REMARK UNBOUND:                -0.861
REMARK  5 active torsions:
REMARK  status: ('A' for Active; 'I' for Inactive)
REMARK    1  A    between atoms: C17_7  and  C21_10 
REMARK    2  A    between atoms: C21_10  and  O27_12 
REMARK    3  A    between atoms: O27_12  and  C15_13 
REMARK    4  A    between atoms: C14_19  and  C16_20 
REMARK    5  A    between atoms: N26_23  and  C20_25 
ROOT
HETATM    1  C15   D T2346       2.651   0.403  13.107  1.00 39.29     0.125 A 
HETATM    2  C4    D T2346       3.432   0.880  12.032  1.00 40.72     0.029 A 
HETATM    3  C19   D T2346       3.302  -0.435  14.026  1.00 38.96     0.173 A 
HETATM    4  N22   D T2346       2.601  -0.961  15.117  1.00 36.18    -0.078 NA
HETATM    5  N23   D T2346       4.612  -0.776  13.928  1.00 39.65    -0.228 NA
HETATM    6  C5    D T2346       5.321  -0.291  12.886  1.00 40.33     0.100 A 
HETATM    7  C14   D T2346       4.799   0.541  11.903  1.00 42.26     0.024 A 
ENDROOT
BRANCH   1   8
HETATM    8  O27   D T2346       1.321   0.641  13.396  1.00 39.48    -0.326 OA
BRANCH   8   9
HETATM    9  C21   D T2346       0.737   1.937  13.653  1.00 39.13     0.145 C 
HETATM   10  C1    D T2346       1.403   2.482  14.913  1.00 39.28     0.038 C 
BRANCH   9  11
HETATM   11  C17   D T2346      -0.790   1.871  13.782  1.00 39.21     0.029 A 
HETATM   12  C13   D T2346      -1.637   2.755  13.060  1.00 38.58     0.057 A 
HETATM   13 CL     D T2346      -1.066   4.004  12.002  1.00 39.67    -0.083 Cl
HETATM   14  C3    D T2346      -3.036   2.696  13.158  1.00 38.18     0.013 A 
HETATM   15  C2    D T2346      -3.656   1.771  13.977  1.00 37.72     0.031 A 
HETATM   16  C12   D T2346      -2.854   0.905  14.687  1.00 38.63     0.150 A 
HETATM   17  F     D T2346      -3.454   0.017  15.468  1.00 38.40    -0.203 F 
HETATM   18  C18   D T2346      -1.455   0.930  14.605  1.00 40.35     0.084 A 
HETATM   19 CL2    D T2346      -0.635  -0.237  15.592  1.00 48.02    -0.080 Cl
ENDBRANCH   9  11
ENDBRANCH   8   9
ENDBRANCH   1   8
BRANCH   7  20
HETATM   20  C16   D T2346       5.654   0.981  10.806  1.00 45.17     0.042 A 
HETATM   21  C6    D T2346       6.687   0.347  10.069  1.00 46.03     0.122 A 
HETATM   22  N24   D T2346       7.245   1.142   9.151  1.00 47.73    -0.164 NA
HETATM   23  N26   D T2346       6.587   2.314   9.294  1.00 49.42    -0.236 N 
HETATM   24  C7    D T2346       5.645   2.257  10.274  1.00 47.26     0.101 A 
BRANCH  23  25
HETATM   25  C20   D T2346       6.901   3.471   8.450  1.00 52.42     0.042 C 
HETATM   26  C8    D T2346       7.466   3.175   7.048  1.00 53.67     0.067 C 
HETATM   27  C10   D T2346       6.498   3.269   5.868  1.00 56.13     0.126 C 
HETATM   28  N25   D T2346       5.525   4.406   6.012  1.00 56.98    -0.295 NA
HETATM   29  C11   D T2346       4.817   4.499   7.328  1.00 56.01     0.126 C 
HETATM   30  C9    D T2346       5.835   4.583   8.465  1.00 54.43     0.067 C 
ENDBRANCH  23  25
ENDBRANCH   7  20
TORSDOF 5
ENDMDL
MODEL 7
REMARK VINA RESULT:    -7.749      5.136     10.821
REMARK INTER + INTRA:         -10.875
REMARK INTER:                 -10.578
REMARK INTRA:                  -0.297
REMARK UNBOUND:                -0.861
REMARK  5 active torsions:
REMARK  status: ('A' for Active; 'I' for Inactive)
REMARK    1  A    between atoms: C17_7  and  C21_10 
REMARK    2  A    between atoms: C21_10  and  O27_12 
REMARK    3  A    between atoms: O27_12  and  C15_13 
REMARK    4  A    between atoms: C14_19  and  C16_20 
REMARK    5  A    between atoms: N26_23  and  C20_25 
ROOT
HETATM    1  C15   D T2346       0.865   2.846  12.129  1.00 39.29     0.125 A 
HETATM    2  C4    D T2346       2.208   3.061  11.752  1.00 40.72     0.029 A 
HETATM    3  C19   D T2346      -0.059   3.824  11.728  1.00 38.96     0.173 A 
HETATM    4  N22   D T2346      -1.411   3.695  12.066  1.00 36.18    -0.078 NA
HETATM    5  N23   D T2346       0.281   4.921  11.005  1.00 39.65    -0.228 NA
HETATM    6  C5    D T2346       1.577   5.082  10.662  1.00 40.33     0.100 A 
HETATM    7  C14   D T2346       2.592   4.196  10.999  1.00 42.26     0.024 A 
ENDROOT
BRANCH   1   8
HETATM    8  O27   D T2346       0.313   1.800  12.843  1.00 39.48    -0.326 OA
BRANCH   8   9
HETATM    9  C21   D T2346      -0.176   1.876  14.200  1.00 39.13     0.145 C 
HETATM   10  C1    D T2346       1.028   2.165  15.090  1.00 39.28     0.038 C 
BRANCH   9  11
HETATM   11  C17   D T2346      -0.921   0.603  14.621  1.00 39.21     0.029 A 
HETATM   12  C13   D T2346      -0.229  -0.605  14.906  1.00 38.58     0.057 A 
HETATM   13 CL     D T2346       1.490  -0.794  14.784  1.00 39.67    -0.083 Cl
HETATM   14  C3    D T2346      -0.896  -1.773  15.306  1.00 38.18     0.013 A 
HETATM   15  C2    D T2346      -2.273  -1.801  15.431  1.00 37.72     0.031 A 
HETATM   16  C12   D T2346      -2.964  -0.641  15.157  1.00 38.63     0.150 A 
HETATM   17  F     D T2346      -4.284  -0.673  15.284  1.00 38.40    -0.203 F 
HETATM   18  C18   D T2346      -2.328   0.545  14.767  1.00 40.35     0.084 A 
HETATM   19 CL2    D T2346      -3.387   1.884  14.458  1.00 48.02    -0.080 Cl
ENDBRANCH   9  11
ENDBRANCH   8   9
ENDBRANCH   1   8
BRANCH   7  20
HETATM   20  C16   D T2346       3.965   4.488  10.598  1.00 45.17     0.042 A 
HETATM   21  C6    D T2346       5.083   5.018  11.290  1.00 46.03     0.122 A 
HETATM   22  N24   D T2346       6.165   5.157  10.518  1.00 47.73    -0.164 NA
HETATM   23  N26   D T2346       5.753   4.730   9.303  1.00 49.42    -0.236 N 
HETATM   24  C7    D T2346       4.450   4.338   9.312  1.00 47.26     0.101 A 
BRANCH  23  25
HETATM   25  C20   D T2346       6.662   4.716   8.153  1.00 52.42     0.042 C 
HETATM   26  C8    D T2346       7.476   3.427   7.929  1.00 53.67     0.067 C 
HETATM   27  C10   D T2346       6.978   2.462   6.852  1.00 56.13     0.126 C 
HETATM   28  N25   D T2346       6.439   3.176   5.645  1.00 56.98    -0.295 NA
HETATM   29  C11   D T2346       5.454   4.270   5.917  1.00 56.01     0.126 C 
HETATM   30  C9    D T2346       6.068   5.304   6.860  1.00 54.43     0.067 C 
ENDBRANCH  23  25
ENDBRANCH   7  20
TORSDOF 5
ENDMDL
MODEL 8
REMARK VINA RESULT:    -7.736      1.703      2.992
REMARK INTER + INTRA:         -10.858
REMARK INTER:                 -10.003
REMARK INTRA:                  -0.855
REMARK UNBOUND:                -0.861
REMARK  5 active torsions:
REMARK  status: ('A' for Active; 'I' for Inactive)
REMARK    1  A    between atoms: C17_7  and  C21_10 
REMARK    2  A    between atoms: C21_10  and  O27_12 
REMARK    3  A    between atoms: O27_12  and  C15_13 
REMARK    4  A    between atoms: C14_19  and  C16_20 
REMARK    5  A    between atoms: N26_23  and  C20_25 
ROOT
HETATM    1  C15   D T2346      -1.489   0.690  14.547  1.00 39.29     0.125 A 
HETATM    2  C4    D T2346      -1.064  -0.539  15.098  1.00 40.72     0.029 A 
HETATM    3  C19   D T2346      -2.876   0.880  14.444  1.00 38.96     0.173 A 
HETATM    4  N22   D T2346      -3.384   2.066  13.901  1.00 36.18    -0.078 NA
HETATM    5  N23   D T2346      -3.788  -0.037  14.854  1.00 39.65    -0.228 NA
HETATM    6  C5    D T2346      -3.335  -1.195  15.380  1.00 40.33     0.100 A 
HETATM    7  C14   D T2346      -1.992  -1.514  15.533  1.00 42.26     0.024 A 
ENDROOT
BRANCH   1   8
HETATM    8  O27   D T2346      -0.732   1.751  14.089  1.00 39.48    -0.326 OA
BRANCH   8   9
HETATM    9  C21   D T2346       0.667   1.694  13.735  1.00 39.13     0.145 C 
HETATM   10  C1    D T2346       1.447   2.266  14.915  1.00 39.28     0.038 C 
BRANCH   9  11
HETATM   11  C17   D T2346       0.966   2.433  12.425  1.00 39.21     0.029 A 
HETATM   12  C13   D T2346       0.436   3.726  12.162  1.00 38.58     0.057 A 
HETATM   13 CL     D T2346      -0.609   4.588  13.243  1.00 39.67    -0.083 Cl
HETATM   14  C3    D T2346       0.713   4.419  10.974  1.00 38.18     0.013 A 
HETATM   15  C2    D T2346       1.513   3.864   9.992  1.00 37.72     0.031 A 
HETATM   16  C12   D T2346       2.035   2.610  10.225  1.00 38.63     0.150 A 
HETATM   17  F     D T2346       2.805   2.084   9.283  1.00 38.40    -0.203 F 
HETATM   18  C18   D T2346       1.788   1.895  11.405  1.00 40.35     0.084 A 
HETATM   19 CL2    D T2346       2.530   0.329  11.490  1.00 48.02    -0.080 Cl
ENDBRANCH   9  11
ENDBRANCH   8   9
ENDBRANCH   1   8
BRANCH   7  20
HETATM   20  C16   D T2346      -1.620  -2.811  16.089  1.00 45.17     0.042 A 
HETATM   21  C6    D T2346      -2.358  -3.835  16.734  1.00 46.03     0.122 A 
HETATM   22  N24   D T2346      -1.602  -4.866  17.123  1.00 47.73    -0.164 NA
HETATM   23  N26   D T2346      -0.353  -4.513  16.746  1.00 49.42    -0.236 N 
HETATM   24  C7    D T2346      -0.326  -3.295  16.140  1.00 47.26     0.101 A 
BRANCH  23  25
HETATM   25  C20   D T2346       0.794  -5.392  16.990  1.00 52.42     0.042 C 
HETATM   26  C8    D T2346       2.125  -4.710  17.359  1.00 53.67     0.067 C 
HETATM   27  C10   D T2346       2.520  -4.696  18.837  1.00 56.13     0.126 C 
HETATM   28  N25   D T2346       2.163  -5.976  19.539  1.00 56.98    -0.295 NA
HETATM   29  C11   D T2346       0.763  -6.466  19.336  1.00 56.01     0.126 C 
HETATM   30  C9    D T2346       0.478  -6.635  17.844  1.00 54.43     0.067 C 
ENDBRANCH  23  25
ENDBRANCH   7  20
TORSDOF 5
ENDMDL
MODEL 9
REMARK VINA RESULT:    -7.708      5.246      9.348
REMARK INTER + INTRA:         -10.823
REMARK INTER:                 -10.602
REMARK INTRA:                  -0.221
REMARK UNBOUND:                -0.861
REMARK  5 active torsions:
REMARK  status: ('A' for Active; 'I' for Inactive)
REMARK    1  A    between atoms: C17_7  and  C21_10 
REMARK    2  A    between atoms: C21_10  and  O27_12 
REMARK    3  A    between atoms: O27_12  and  C15_13 
REMARK    4  A    between atoms: C14_19  and  C16_20 
REMARK    5  A    between atoms: N26_23  and  C20_25 
ROOT
HETATM    1  C15   D T2346       0.611   3.110  12.157  1.00 39.29     0.125 A 
HETATM    2  C4    D T2346       1.554   2.065  12.057  1.00 40.72     0.029 A 
HETATM    3  C19   D T2346       0.626   4.064  11.127  1.00 38.96     0.173 A 
HETATM    4  N22   D T2346      -0.269   5.140  11.152  1.00 36.18    -0.078 NA
HETATM    5  N23   D T2346       1.476   4.009  10.071  1.00 39.65    -0.228 NA
HETATM    6  C5    D T2346       2.357   2.987  10.014  1.00 40.33     0.100 A 
HETATM    7  C14   D T2346       2.453   1.982  10.967  1.00 42.26     0.024 A 
ENDROOT
BRANCH   1   8
HETATM    8  O27   D T2346      -0.342   3.339  13.131  1.00 39.48    -0.326 OA
BRANCH   8   9
HETATM    9  C21   D T2346      -1.733   2.958  13.051  1.00 39.13     0.145 C 
HETATM   10  C1    D T2346      -2.550   4.161  13.512  1.00 39.28     0.038 C 
BRANCH   9  11
HETATM   11  C17   D T2346      -2.038   1.697  13.869  1.00 39.21     0.029 A 
HETATM   12  C13   D T2346      -1.157   1.238  14.885  1.00 38.58     0.057 A 
HETATM   13 CL     D T2346       0.343   2.004  15.292  1.00 39.67    -0.083 Cl
HETATM   14  C3    D T2346      -1.431   0.094  15.650  1.00 38.18     0.013 A 
HETATM   15  C2    D T2346      -2.578  -0.649  15.439  1.00 37.72     0.031 A 
HETATM   16  C12   D T2346      -3.444  -0.223  14.456  1.00 38.63     0.150 A 
HETATM   17  F     D T2346      -4.545  -0.937  14.261  1.00 38.40    -0.203 F 
HETATM   18  C18   D T2346      -3.207   0.920  13.682  1.00 40.35     0.084 A 
HETATM   19 CL2    D T2346      -4.419   1.271  12.491  1.00 48.02    -0.080 Cl
ENDBRANCH   9  11
ENDBRANCH   8   9
ENDBRANCH   1   8
BRANCH   7  20
HETATM   20  C16   D T2346       3.465   0.941  10.816  1.00 45.17     0.042 A 
HETATM   21  C6    D T2346       3.393  -0.470  10.707  1.00 46.03     0.122 A 
HETATM   22  N24   D T2346       4.592  -1.055  10.617  1.00 47.73    -0.164 NA
HETATM   23  N26   D T2346       5.462  -0.022  10.682  1.00 49.42    -0.236 N 
HETATM   24  C7    D T2346       4.828   1.174  10.812  1.00 47.26     0.101 A 
BRANCH  23  25
HETATM   25  C20   D T2346       6.910  -0.241  10.610  1.00 52.42     0.042 C 
HETATM   26  C8    D T2346       7.390  -1.429   9.755  1.00 53.67     0.067 C 
HETATM   27  C10   D T2346       7.920  -1.117   8.355  1.00 56.13     0.126 C 
HETATM   28  N25   D T2346       8.723   0.153   8.314  1.00 56.98    -0.295 NA
HETATM   29  C11   D T2346       8.089   1.349   8.955  1.00 56.01     0.126 C 
HETATM   30  C9    D T2346       7.741   1.040  10.410  1.00 54.43     0.067 C 
ENDBRANCH  23  25
ENDBRANCH   7  20
TORSDOF 5
ENDMDL
