MODEL 1
REMARK VINA RESULT:    -8.426      0.000      0.000
REMARK INTER + INTRA:         -11.632
REMARK INTER:                 -10.889
REMARK INTRA:                  -0.743
REMARK UNBOUND:                -0.743
REMARK  5 active torsions:
REMARK  status: ('A' for Active; 'I' for Inactive)
REMARK    1  A    between atoms: C17_7  and  C21_10 
REMARK    2  A    between atoms: C21_10  and  O27_12 
REMARK    3  A    between atoms: O27_12  and  C15_13 
REMARK    4  A    between atoms: C14_19  and  C16_20 
REMARK    5  A    between atoms: N26_23  and  C20_25 
ROOT
HETATM    1  C15   D T2346     -11.794   4.891  -3.711  1.00 39.29     0.125 A 
HETATM    2  C4    D T2346     -12.033   3.896  -4.684  1.00 40.72     0.029 A 
HETATM    3  C19   D T2346     -10.505   5.445  -3.690  1.00 38.96     0.173 A 
HETATM    4  N22   D T2346     -10.179   6.431  -2.750  1.00 36.18    -0.078 NA
HETATM    5  N23   D T2346      -9.522   5.082  -4.551  1.00 39.65    -0.228 NA
HETATM    6  C5    D T2346      -9.797   4.132  -5.468  1.00 40.33     0.100 A 
HETATM    7  C14   D T2346     -11.027   3.498  -5.596  1.00 42.26     0.024 A 
ENDROOT
BRANCH   1   8
HETATM    8  O27   D T2346     -12.653   5.410  -2.761  1.00 39.48    -0.326 OA
BRANCH   8   9
HETATM    9  C21   D T2346     -13.967   4.894  -2.446  1.00 39.13     0.145 C 
HETATM   10  C1    D T2346     -14.920   5.433  -3.509  1.00 39.28     0.038 C 
BRANCH   9  11
HETATM   11  C17   D T2346     -14.410   5.262  -1.024  1.00 39.21     0.029 A 
HETATM   12  C13   D T2346     -15.174   4.366  -0.228  1.00 38.58     0.057 A 
HETATM   13 CL     D T2346     -15.713   2.807  -0.763  1.00 39.67    -0.083 Cl
HETATM   14  C3    D T2346     -15.573   4.683   1.079  1.00 38.18     0.013 A 
HETATM   15  C2    D T2346     -15.245   5.898   1.651  1.00 37.72     0.031 A 
HETATM   16  C12   D T2346     -14.506   6.782   0.896  1.00 38.63     0.150 A 
HETATM   17  F     D T2346     -14.190   7.944   1.451  1.00 38.40    -0.203 F 
HETATM   18  C18   D T2346     -14.082   6.493  -0.408  1.00 40.35     0.084 A 
HETATM   19 CL2    D T2346     -13.174   7.749  -1.186  1.00 48.02    -0.080 Cl
ENDBRANCH   9  11
ENDBRANCH   8   9
ENDBRANCH   1   8
BRANCH   7  20
HETATM   20  C16   D T2346     -11.200   2.462  -6.609  1.00 45.17     0.042 A 
HETATM   21  C6    D T2346     -10.310   1.848  -7.526  1.00 46.03     0.122 A 
HETATM   22  N24   D T2346     -10.904   0.949  -8.316  1.00 47.73    -0.164 NA
HETATM   23  N26   D T2346     -12.199   0.982  -7.929  1.00 49.42    -0.236 N 
HETATM   24  C7    D T2346     -12.411   1.876  -6.927  1.00 47.26     0.101 A 
BRANCH  23  25
HETATM   25  C20   D T2346     -13.204   0.119  -8.558  1.00 52.42     0.042 C 
HETATM   26  C8    D T2346     -12.677  -1.045  -9.418  1.00 53.67     0.067 C 
HETATM   27  C10   D T2346     -12.672  -2.439  -8.787  1.00 56.13     0.126 C 
HETATM   28  N25   D T2346     -13.882  -2.685  -7.931  1.00 56.98    -0.295 NA
HETATM   29  C11   D T2346     -14.205  -1.615  -6.932  1.00 56.01     0.126 C 
HETATM   30  C9    D T2346     -14.376  -0.273  -7.640  1.00 54.43     0.067 C 
ENDBRANCH  23  25
ENDBRANCH   7  20
TORSDOF 5
ENDMDL
MODEL 2
REMARK VINA RESULT:    -8.409      0.819      1.869
REMARK INTER + INTRA:         -11.609
REMARK INTER:                 -10.942
REMARK INTRA:                  -0.667
REMARK UNBOUND:                -0.743
REMARK  5 active torsions:
REMARK  status: ('A' for Active; 'I' for Inactive)
REMARK    1  A    between atoms: C17_7  and  C21_10 
REMARK    2  A    between atoms: C21_10  and  O27_12 
REMARK    3  A    between atoms: O27_12  and  C15_13 
REMARK    4  A    between atoms: C14_19  and  C16_20 
REMARK    5  A    between atoms: N26_23  and  C20_25 
ROOT
HETATM    1  C15   D T2346     -11.766   4.870  -3.702  1.00 39.29     0.125 A 
HETATM    2  C4    D T2346     -12.021   3.877  -4.672  1.00 40.72     0.029 A 
HETATM    3  C19   D T2346     -10.482   5.439  -3.716  1.00 38.96     0.173 A 
HETATM    4  N22   D T2346     -10.141   6.424  -2.781  1.00 36.18    -0.078 NA
HETATM    5  N23   D T2346      -9.521   5.091  -4.607  1.00 39.65    -0.228 NA
HETATM    6  C5    D T2346      -9.812   4.142  -5.521  1.00 40.33     0.100 A 
HETATM    7  C14   D T2346     -11.038   3.494  -5.615  1.00 42.26     0.024 A 
ENDROOT
BRANCH   1   8
HETATM    8  O27   D T2346     -12.602   5.374  -2.724  1.00 39.48    -0.326 OA
BRANCH   8   9
HETATM    9  C21   D T2346     -13.926   4.881  -2.416  1.00 39.13     0.145 C 
HETATM   10  C1    D T2346     -14.860   5.414  -3.498  1.00 39.28     0.038 C 
BRANCH   9  11
HETATM   11  C17   D T2346     -14.379   5.278  -1.005  1.00 39.21     0.029 A 
HETATM   12  C13   D T2346     -14.040   6.539  -0.443  1.00 38.58     0.057 A 
HETATM   13 CL     D T2346     -13.071   7.732  -1.243  1.00 39.67    -0.083 Cl
HETATM   14  C3    D T2346     -14.460   6.921   0.840  1.00 38.18     0.013 A 
HETATM   15  C2    D T2346     -15.222   6.076   1.624  1.00 37.72     0.031 A 
HETATM   16  C12   D T2346     -15.562   4.848   1.098  1.00 38.63     0.150 A 
HETATM   17  F     D T2346     -16.298   4.042   1.852  1.00 38.40    -0.203 F 
HETATM   18  C18   D T2346     -15.168   4.439  -0.183  1.00 40.35     0.084 A 
HETATM   19 CL2    D T2346     -15.691   2.851  -0.646  1.00 48.02    -0.080 Cl
ENDBRANCH   9  11
ENDBRANCH   8   9
ENDBRANCH   1   8
BRANCH   7  20
HETATM   20  C16   D T2346     -11.229   2.461  -6.628  1.00 45.17     0.042 A 
HETATM   21  C6    D T2346     -10.356   1.850  -7.562  1.00 46.03     0.122 A 
HETATM   22  N24   D T2346     -10.963   0.953  -8.344  1.00 47.73    -0.164 NA
HETATM   23  N26   D T2346     -12.250   0.983  -7.933  1.00 49.42    -0.236 N 
HETATM   24  C7    D T2346     -12.445   1.875  -6.925  1.00 47.26     0.101 A 
BRANCH  23  25
HETATM   25  C20   D T2346     -13.266   0.122  -8.546  1.00 52.42     0.042 C 
HETATM   26  C8    D T2346     -12.754  -1.087  -9.353  1.00 53.67     0.067 C 
HETATM   27  C10   D T2346     -12.793  -2.455  -8.669  1.00 56.13     0.126 C 
HETATM   28  N25   D T2346     -14.023  -2.639  -7.825  1.00 56.98    -0.295 NA
HETATM   29  C11   D T2346     -14.336  -1.525  -6.872  1.00 56.01     0.126 C 
HETATM   30  C9    D T2346     -14.462  -0.207  -7.634  1.00 54.43     0.067 C 
ENDBRANCH  23  25
ENDBRANCH   7  20
TORSDOF 5
ENDMDL
MODEL 3
REMARK VINA RESULT:    -8.399      3.231      4.881
REMARK INTER + INTRA:         -11.597
REMARK INTER:                 -10.726
REMARK INTRA:                  -0.871
REMARK UNBOUND:                -0.743
REMARK  5 active torsions:
REMARK  status: ('A' for Active; 'I' for Inactive)
REMARK    1  A    between atoms: C17_7  and  C21_10 
REMARK    2  A    between atoms: C21_10  and  O27_12 
REMARK    3  A    between atoms: O27_12  and  C15_13 
REMARK    4  A    between atoms: C14_19  and  C16_20 
REMARK    5  A    between atoms: N26_23  and  C20_25 
ROOT
HETATM    1  C15   D T2346     -14.930   4.494  -0.896  1.00 39.29     0.125 A 
HETATM    2  C4    D T2346     -14.548   3.812  -2.072  1.00 40.72     0.029 A 
HETATM    3  C19   D T2346     -14.090   5.539  -0.481  1.00 38.96     0.173 A 
HETATM    4  N22   D T2346     -14.389   6.261   0.681  1.00 36.18    -0.078 NA
HETATM    5  N23   D T2346     -12.974   5.912  -1.155  1.00 39.65    -0.228 NA
HETATM    6  C5    D T2346     -12.651   5.237  -2.277  1.00 40.33     0.100 A 
HETATM    7  C14   D T2346     -13.389   4.180  -2.796  1.00 42.26     0.024 A 
ENDROOT
BRANCH   1   8
HETATM    8  O27   D T2346     -16.025   4.283  -0.079  1.00 39.48    -0.326 OA
BRANCH   8   9
HETATM    9  C21   D T2346     -17.406   4.302  -0.505  1.00 39.13     0.145 C 
HETATM   10  C1    D T2346     -17.794   5.767  -0.684  1.00 39.28     0.038 C 
BRANCH   9  11
HETATM   11  C17   D T2346     -18.327   3.570   0.480  1.00 39.21     0.029 A 
HETATM   12  C13   D T2346     -19.188   2.522   0.054  1.00 38.58     0.057 A 
HETATM   13 CL     D T2346     -19.325   1.981  -1.587  1.00 39.67    -0.083 Cl
HETATM   14  C3    D T2346     -20.025   1.835   0.946  1.00 38.18     0.013 A 
HETATM   15  C2    D T2346     -20.055   2.157   2.290  1.00 37.72     0.031 A 
HETATM   16  C12   D T2346     -19.229   3.172   2.724  1.00 38.63     0.150 A 
HETATM   17  F     D T2346     -19.258   3.474   4.015  1.00 38.40    -0.203 F 
HETATM   18  C18   D T2346     -18.373   3.871   1.862  1.00 40.35     0.084 A 
HETATM   19 CL2    D T2346     -17.429   5.119   2.610  1.00 48.02    -0.080 Cl
ENDBRANCH   9  11
ENDBRANCH   8   9
ENDBRANCH   1   8
BRANCH   7  20
HETATM   20  C16   D T2346     -12.927   3.505  -4.004  1.00 45.17     0.042 A 
HETATM   21  C6    D T2346     -13.344   2.327  -4.673  1.00 46.03     0.122 A 
HETATM   22  N24   D T2346     -12.609   2.044  -5.752  1.00 47.73    -0.164 NA
HETATM   23  N26   D T2346     -11.689   3.033  -5.787  1.00 49.42    -0.236 N 
HETATM   24  C7    D T2346     -11.842   3.911  -4.758  1.00 47.26     0.101 A 
BRANCH  23  25
HETATM   25  C20   D T2346     -10.676   3.095  -6.845  1.00 52.42     0.042 C 
HETATM   26  C8    D T2346      -9.208   3.209  -6.391  1.00 53.67     0.067 C 
HETATM   27  C10   D T2346      -8.364   1.933  -6.415  1.00 56.13     0.126 C 
HETATM   28  N25   D T2346      -8.672   1.065  -7.602  1.00 56.98    -0.295 NA
HETATM   29  C11   D T2346     -10.123   0.785  -7.850  1.00 56.01     0.126 C 
HETATM   30  C9    D T2346     -10.890   2.097  -7.997  1.00 54.43     0.067 C 
ENDBRANCH  23  25
ENDBRANCH   7  20
TORSDOF 5
ENDMDL
MODEL 4
REMARK VINA RESULT:    -8.325      1.232      2.142
REMARK INTER + INTRA:         -11.501
REMARK INTER:                 -10.689
REMARK INTRA:                  -0.812
REMARK UNBOUND:                -0.743
REMARK  5 active torsions:
REMARK  status: ('A' for Active; 'I' for Inactive)
REMARK    1  A    between atoms: C17_7  and  C21_10 
REMARK    2  A    between atoms: C21_10  and  O27_12 
REMARK    3  A    between atoms: O27_12  and  C15_13 
REMARK    4  A    between atoms: C14_19  and  C16_20 
REMARK    5  A    between atoms: N26_23  and  C20_25 
ROOT
HETATM    1  C15   D T2346     -11.429   4.374  -4.654  1.00 39.29     0.125 A 
HETATM    2  C4    D T2346     -11.785   3.374  -5.585  1.00 40.72     0.029 A 
HETATM    3  C19   D T2346     -10.062   4.683  -4.563  1.00 38.96     0.173 A 
HETATM    4  N22   D T2346      -9.621   5.655  -3.658  1.00 36.18    -0.078 NA
HETATM    5  N23   D T2346      -9.111   4.088  -5.324  1.00 39.65    -0.228 NA
HETATM    6  C5    D T2346      -9.497   3.142  -6.205  1.00 40.33     0.100 A 
HETATM    7  C14   D T2346     -10.813   2.736  -6.392  1.00 42.26     0.024 A 
ENDROOT
BRANCH   1   8
HETATM    8  O27   D T2346     -12.237   5.105  -3.804  1.00 39.48    -0.326 OA
BRANCH   8   9
HETATM    9  C21   D T2346     -13.595   4.769  -3.440  1.00 39.13     0.145 C 
HETATM   10  C1    D T2346     -14.506   5.445  -4.461  1.00 39.28     0.038 C 
BRANCH   9  11
HETATM   11  C17   D T2346     -13.928   5.176  -1.999  1.00 39.21     0.029 A 
HETATM   12  C13   D T2346     -13.528   6.434  -1.471  1.00 38.58     0.057 A 
HETATM   13 CL     D T2346     -12.611   7.612  -2.351  1.00 39.67    -0.083 Cl
HETATM   14  C3    D T2346     -13.838   6.826  -0.160  1.00 38.18     0.013 A 
HETATM   15  C2    D T2346     -14.546   5.993   0.686  1.00 37.72     0.031 A 
HETATM   16  C12   D T2346     -14.943   4.768   0.194  1.00 38.63     0.150 A 
HETATM   17  F     D T2346     -15.625   3.974   1.008  1.00 38.40    -0.203 F 
HETATM   18  C18   D T2346     -14.659   4.350  -1.113  1.00 40.35     0.084 A 
HETATM   19 CL2    D T2346     -15.238   2.768  -1.525  1.00 48.02    -0.080 Cl
ENDBRANCH   9  11
ENDBRANCH   8   9
ENDBRANCH   1   8
BRANCH   7  20
HETATM   20  C16   D T2346     -11.110   1.682  -7.356  1.00 45.17     0.042 A 
HETATM   21  C6    D T2346     -10.317   0.986  -8.303  1.00 46.03     0.122 A 
HETATM   22  N24   D T2346     -11.011   0.101  -9.024  1.00 47.73    -0.164 NA
HETATM   23  N26   D T2346     -12.275   0.224  -8.561  1.00 49.42    -0.236 N 
HETATM   24  C7    D T2346     -12.371   1.161  -7.579  1.00 47.26     0.101 A 
BRANCH  23  25
HETATM   25  C20   D T2346     -13.366  -0.595  -9.097  1.00 52.42     0.042 C 
HETATM   26  C8    D T2346     -12.970  -1.737 -10.052  1.00 53.67     0.067 C 
HETATM   27  C10   D T2346     -12.925  -3.153  -9.474  1.00 56.13     0.126 C 
HETATM   28  N25   D T2346     -14.033  -3.406  -8.492  1.00 56.98    -0.295 NA
HETATM   29  C11   D T2346     -14.213  -2.368  -7.426  1.00 56.01     0.126 C 
HETATM   30  C9    D T2346     -14.433  -0.997  -8.062  1.00 54.43     0.067 C 
ENDBRANCH  23  25
ENDBRANCH   7  20
TORSDOF 5
ENDMDL
MODEL 5
REMARK VINA RESULT:    -8.231      1.511      1.901
REMARK INTER + INTRA:         -11.379
REMARK INTER:                 -10.602
REMARK INTRA:                  -0.777
REMARK UNBOUND:                -0.743
REMARK  5 active torsions:
REMARK  status: ('A' for Active; 'I' for Inactive)
REMARK    1  A    between atoms: C17_7  and  C21_10 
REMARK    2  A    between atoms: C21_10  and  O27_12 
REMARK    3  A    between atoms: O27_12  and  C15_13 
REMARK    4  A    between atoms: C14_19  and  C16_20 
REMARK    5  A    between atoms: N26_23  and  C20_25 
ROOT
HETATM    1  C15   D T2346     -11.579   3.811  -5.172  1.00 39.29     0.125 A 
HETATM    2  C4    D T2346     -12.125   2.814  -6.009  1.00 40.72     0.029 A 
HETATM    3  C19   D T2346     -10.202   4.052  -5.307  1.00 38.96     0.173 A 
HETATM    4  N22   D T2346      -9.577   5.017  -4.508  1.00 36.18    -0.078 NA
HETATM    5  N23   D T2346      -9.413   3.396  -6.193  1.00 39.65    -0.228 NA
HETATM    6  C5    D T2346      -9.979   2.456  -6.978  1.00 40.33     0.100 A 
HETATM    7  C14   D T2346     -11.326   2.113  -6.943  1.00 42.26     0.024 A 
ENDROOT
BRANCH   1   8
HETATM    8  O27   D T2346     -12.205   4.597  -4.224  1.00 39.48    -0.326 OA
BRANCH   8   9
HETATM    9  C21   D T2346     -13.579   4.461  -3.796  1.00 39.13     0.145 C 
HETATM   10  C1    D T2346     -14.446   5.095  -4.880  1.00 39.28     0.038 C 
BRANCH   9  11
HETATM   11  C17   D T2346     -13.822   5.086  -2.416  1.00 39.21     0.029 A 
HETATM   12  C13   D T2346     -14.490   4.373  -1.383  1.00 38.58     0.057 A 
HETATM   13 CL     D T2346     -15.125   2.770  -1.562  1.00 39.67    -0.083 Cl
HETATM   14  C3    D T2346     -14.706   4.926  -0.112  1.00 38.18     0.013 A 
HETATM   15  C2    D T2346     -14.282   6.207   0.191  1.00 37.72     0.031 A 
HETATM   16  C12   D T2346     -13.632   6.916  -0.797  1.00 38.63     0.150 A 
HETATM   17  F     D T2346     -13.223   8.143  -0.499  1.00 38.40    -0.203 F 
HETATM   18  C18   D T2346     -13.392   6.390  -2.073  1.00 40.35     0.084 A 
HETATM   19 CL2    D T2346     -12.571   7.455  -3.169  1.00 48.02    -0.080 Cl
ENDBRANCH   9  11
ENDBRANCH   8   9
ENDBRANCH   1   8
BRANCH   7  20
HETATM   20  C16   D T2346     -11.822   1.058  -7.821  1.00 45.17     0.042 A 
HETATM   21  C6    D T2346     -11.213   0.280  -8.837  1.00 46.03     0.122 A 
HETATM   22  N24   D T2346     -12.057  -0.570  -9.428  1.00 47.73    -0.164 NA
HETATM   23  N26   D T2346     -13.236  -0.341  -8.809  1.00 49.42    -0.236 N 
HETATM   24  C7    D T2346     -13.135   0.628  -7.858  1.00 47.26     0.101 A 
BRANCH  23  25
HETATM   25  C20   D T2346     -14.444  -1.090  -9.167  1.00 52.42     0.042 C 
HETATM   26  C8    D T2346     -14.346  -2.014 -10.396  1.00 53.67     0.067 C 
HETATM   27  C10   D T2346     -14.158  -3.510 -10.136  1.00 56.13     0.126 C 
HETATM   28  N25   D T2346     -14.949  -3.990  -8.952  1.00 56.98    -0.295 NA
HETATM   29  C11   D T2346     -14.809  -3.179  -7.699  1.00 56.01     0.126 C 
HETATM   30  C9    D T2346     -15.182  -1.724  -7.974  1.00 54.43     0.067 C 
ENDBRANCH  23  25
ENDBRANCH   7  20
TORSDOF 5
ENDMDL
MODEL 6
REMARK VINA RESULT:    -8.199      4.388      8.655
REMARK INTER + INTRA:         -11.338
REMARK INTER:                 -11.267
REMARK INTRA:                  -0.071
REMARK UNBOUND:                -0.743
REMARK  5 active torsions:
REMARK  status: ('A' for Active; 'I' for Inactive)
REMARK    1  A    between atoms: C17_7  and  C21_10 
REMARK    2  A    between atoms: C21_10  and  O27_12 
REMARK    3  A    between atoms: O27_12  and  C15_13 
REMARK    4  A    between atoms: C14_19  and  C16_20 
REMARK    5  A    between atoms: N26_23  and  C20_25 
ROOT
HETATM    1  C15   D T2346     -12.229   5.825  -2.670  1.00 39.29     0.125 A 
HETATM    2  C4    D T2346     -13.229   5.699  -1.682  1.00 40.72     0.029 A 
HETATM    3  C19   D T2346     -11.671   7.103  -2.832  1.00 38.96     0.173 A 
HETATM    4  N22   D T2346     -10.680   7.320  -3.798  1.00 36.18    -0.078 NA
HETATM    5  N23   D T2346     -12.035   8.177  -2.088  1.00 39.65    -0.228 NA
HETATM    6  C5    D T2346     -12.990   8.008  -1.150  1.00 40.33     0.100 A 
HETATM    7  C14   D T2346     -13.629   6.801  -0.890  1.00 42.26     0.024 A 
ENDROOT
BRANCH   1   8
HETATM    8  O27   D T2346     -11.708   4.864  -3.516  1.00 39.48    -0.326 OA
BRANCH   8   9
HETATM    9  C21   D T2346     -12.446   4.159  -4.540  1.00 39.13     0.145 C 
HETATM   10  C1    D T2346     -13.366   3.174  -3.823  1.00 39.28     0.038 C 
BRANCH   9  11
HETATM   11  C17   D T2346     -11.521   3.466  -5.549  1.00 39.21     0.029 A 
HETATM   12  C13   D T2346     -12.039   2.741  -6.656  1.00 38.58     0.057 A 
HETATM   13 CL     D T2346     -13.730   2.527  -6.974  1.00 39.67    -0.083 Cl
HETATM   14  C3    D T2346     -11.206   2.114  -7.594  1.00 38.18     0.013 A 
HETATM   15  C2    D T2346      -9.829   2.168  -7.476  1.00 37.72     0.031 A 
HETATM   16  C12   D T2346      -9.306   2.865  -6.408  1.00 38.63     0.150 A 
HETATM   17  F     D T2346      -7.985   2.918  -6.301  1.00 38.40    -0.203 F 
HETATM   18  C18   D T2346     -10.110   3.511  -5.459  1.00 40.35     0.084 A 
HETATM   19 CL2    D T2346      -9.249   4.320  -4.189  1.00 48.02    -0.080 Cl
ENDBRANCH   9  11
ENDBRANCH   8   9
ENDBRANCH   1   8
BRANCH   7  20
HETATM   20  C16   D T2346     -14.669   6.744   0.132  1.00 45.17     0.042 A 
HETATM   21  C6    D T2346     -14.756   7.252   1.452  1.00 46.03     0.122 A 
HETATM   22  N24   D T2346     -15.901   6.935   2.065  1.00 47.73    -0.164 NA
HETATM   23  N26   D T2346     -16.568   6.200   1.148  1.00 49.42    -0.236 N 
HETATM   24  C7    D T2346     -15.861   6.057  -0.006  1.00 47.26     0.101 A 
BRANCH  23  25
HETATM   25  C20   D T2346     -17.899   5.655   1.429  1.00 52.42     0.042 C 
HETATM   26  C8    D T2346     -19.035   6.077   0.479  1.00 53.67     0.067 C 
HETATM   27  C10   D T2346     -19.456   5.077  -0.601  1.00 56.13     0.126 C 
HETATM   28  N25   D T2346     -19.439   3.659  -0.106  1.00 56.98    -0.295 NA
HETATM   29  C11   D T2346     -18.192   3.228   0.606  1.00 56.01     0.126 C 
HETATM   30  C9    D T2346     -17.916   4.157   1.786  1.00 54.43     0.067 C 
ENDBRANCH  23  25
ENDBRANCH   7  20
TORSDOF 5
ENDMDL
MODEL 7
REMARK VINA RESULT:    -8.072      4.364      8.509
REMARK INTER + INTRA:         -11.174
REMARK INTER:                 -11.399
REMARK INTRA:                   0.225
REMARK UNBOUND:                -0.743
REMARK  5 active torsions:
REMARK  status: ('A' for Active; 'I' for Inactive)
REMARK    1  A    between atoms: C17_7  and  C21_10 
REMARK    2  A    between atoms: C21_10  and  O27_12 
REMARK    3  A    between atoms: O27_12  and  C15_13 
REMARK    4  A    between atoms: C14_19  and  C16_20 
REMARK    5  A    between atoms: N26_23  and  C20_25 
ROOT
HETATM    1  C15   D T2346     -11.767   5.443  -3.290  1.00 39.29     0.125 A 
HETATM    2  C4    D T2346     -12.911   5.450  -2.463  1.00 40.72     0.029 A 
HETATM    3  C19   D T2346     -10.925   6.563  -3.200  1.00 38.96     0.173 A 
HETATM    4  N22   D T2346      -9.775   6.643  -3.993  1.00 36.18    -0.078 NA
HETATM    5  N23   D T2346     -11.158   7.606  -2.364  1.00 39.65    -0.228 NA
HETATM    6  C5    D T2346     -12.260   7.567  -1.587  1.00 40.33     0.100 A 
HETATM    7  C14   D T2346     -13.179   6.524  -1.581  1.00 42.26     0.024 A 
ENDROOT
BRANCH   1   8
HETATM    8  O27   D T2346     -11.344   4.483  -4.190  1.00 39.48    -0.326 OA
BRANCH   8   9
HETATM    9  C21   D T2346     -12.208   3.659  -5.006  1.00 39.13     0.145 C 
HETATM   10  C1    D T2346     -13.001   2.770  -4.052  1.00 39.28     0.038 C 
BRANCH   9  11
HETATM   11  C17   D T2346     -11.423   2.847  -6.044  1.00 39.21     0.029 A 
HETATM   12  C13   D T2346     -10.002   2.829  -6.055  1.00 38.58     0.057 A 
HETATM   13 CL     D T2346      -9.009   3.724  -4.952  1.00 39.67    -0.083 Cl
HETATM   14  C3    D T2346      -9.272   2.080  -6.990  1.00 38.18     0.013 A 
HETATM   15  C2    D T2346      -9.910   1.325  -7.956  1.00 37.72     0.031 A 
HETATM   16  C12   D T2346     -11.289   1.329  -7.964  1.00 38.63     0.150 A 
HETATM   17  F     D T2346     -11.897   0.600  -8.890  1.00 38.40    -0.203 F 
HETATM   18  C18   D T2346     -12.048   2.058  -7.039  1.00 40.35     0.084 A 
HETATM   19 CL2    D T2346     -13.767   1.935  -7.234  1.00 48.02    -0.080 Cl
ENDBRANCH   9  11
ENDBRANCH   8   9
ENDBRANCH   1   8
BRANCH   7  20
HETATM   20  C16   D T2346     -14.352   6.605  -0.717  1.00 45.17     0.042 A 
HETATM   21  C6    D T2346     -14.689   7.437   0.379  1.00 46.03     0.122 A 
HETATM   22  N24   D T2346     -15.877   7.145   0.918  1.00 47.73    -0.164 NA
HETATM   23  N26   D T2346     -16.319   6.101   0.182  1.00 49.42    -0.236 N 
HETATM   24  C7    D T2346     -15.434   5.748  -0.789  1.00 47.26     0.101 A 
BRANCH  23  25
HETATM   25  C20   D T2346     -17.617   5.474   0.451  1.00 52.42     0.042 C 
HETATM   26  C8    D T2346     -18.714   5.672  -0.611  1.00 53.67     0.067 C 
HETATM   27  C10   D T2346     -18.973   4.514  -1.578  1.00 56.13     0.126 C 
HETATM   28  N25   D T2346     -18.872   3.174  -0.907  1.00 56.98    -0.295 NA
HETATM   29  C11   D T2346     -17.646   2.949  -0.073  1.00 56.01     0.126 C 
HETATM   30  C9    D T2346     -17.533   4.036   0.993  1.00 54.43     0.067 C 
ENDBRANCH  23  25
ENDBRANCH   7  20
TORSDOF 5
ENDMDL
MODEL 8
REMARK VINA RESULT:    -7.982      4.532      8.107
REMARK INTER + INTRA:         -11.059
REMARK INTER:                 -10.511
REMARK INTRA:                  -0.547
REMARK UNBOUND:                -0.743
REMARK  5 active torsions:
REMARK  status: ('A' for Active; 'I' for Inactive)
REMARK    1  A    between atoms: C17_7  and  C21_10 
REMARK    2  A    between atoms: C21_10  and  O27_12 
REMARK    3  A    between atoms: O27_12  and  C15_13 
REMARK    4  A    between atoms: C14_19  and  C16_20 
REMARK    5  A    between atoms: N26_23  and  C20_25 
ROOT
HETATM    1  C15   D T2346     -12.592   4.976  -3.775  1.00 39.29     0.125 A 
HETATM    2  C4    D T2346     -13.870   4.917  -3.177  1.00 40.72     0.029 A 
HETATM    3  C19   D T2346     -11.656   5.825  -3.163  1.00 38.96     0.173 A 
HETATM    4  N22   D T2346     -10.368   5.951  -3.697  1.00 36.18    -0.078 NA
HETATM    5  N23   D T2346     -11.924   6.551  -2.049  1.00 39.65    -0.228 NA
HETATM    6  C5    D T2346     -13.156   6.459  -1.509  1.00 40.33     0.100 A 
HETATM    7  C14   D T2346     -14.177   5.663  -2.014  1.00 42.26     0.024 A 
ENDROOT
BRANCH   1   8
HETATM    8  O27   D T2346     -12.116   4.312  -4.890  1.00 39.48    -0.326 OA
BRANCH   8   9
HETATM    9  C21   D T2346     -11.577   2.971  -4.902  1.00 39.13     0.145 C 
HETATM   10  C1    D T2346     -10.254   3.033  -5.660  1.00 39.28     0.038 C 
BRANCH   9  11
HETATM   11  C17   D T2346     -12.553   1.959  -5.515  1.00 39.21     0.029 A 
HETATM   12  C13   D T2346     -13.519   1.282  -4.720  1.00 38.58     0.057 A 
HETATM   13 CL     D T2346     -13.683   1.486  -3.006  1.00 39.67    -0.083 Cl
HETATM   14  C3    D T2346     -14.427   0.365  -5.269  1.00 38.18     0.013 A 
HETATM   15  C2    D T2346     -14.416   0.069  -6.619  1.00 37.72     0.031 A 
HETATM   16  C12   D T2346     -13.487   0.713  -7.408  1.00 38.63     0.150 A 
HETATM   17  F     D T2346     -13.484   0.429  -8.703  1.00 38.40    -0.203 F 
HETATM   18  C18   D T2346     -12.573   1.642  -6.894  1.00 40.35     0.084 A 
HETATM   19 CL2    D T2346     -11.482   2.326  -8.056  1.00 48.02    -0.080 Cl
ENDBRANCH   9  11
ENDBRANCH   8   9
ENDBRANCH   1   8
BRANCH   7  20
HETATM   20  C16   D T2346     -15.481   5.665  -1.360  1.00 45.17     0.042 A 
HETATM   21  C6    D T2346     -16.015   6.396  -0.269  1.00 46.03     0.122 A 
HETATM   22  N24   D T2346     -17.271   6.055   0.031  1.00 47.73    -0.164 NA
HETATM   23  N26   D T2346     -17.564   5.080  -0.859  1.00 49.42    -0.236 N 
HETATM   24  C7    D T2346     -16.521   4.816  -1.691  1.00 47.26     0.101 A 
BRANCH  23  25
HETATM   25  C20   D T2346     -18.878   4.430  -0.872  1.00 52.42     0.042 C 
HETATM   26  C8    D T2346     -18.939   3.004  -1.451  1.00 53.67     0.067 C 
HETATM   27  C10   D T2346     -18.984   1.843  -0.456  1.00 56.13     0.126 C 
HETATM   28  N25   D T2346     -19.827   2.153   0.748  1.00 56.98    -0.295 NA
HETATM   29  C11   D T2346     -19.549   3.462   1.423  1.00 56.01     0.126 C 
HETATM   30  C9    D T2346     -19.693   4.606   0.422  1.00 54.43     0.067 C 
ENDBRANCH  23  25
ENDBRANCH   7  20
TORSDOF 5
ENDMDL
MODEL 9
REMARK VINA RESULT:    -7.934      2.276      3.453
REMARK INTER + INTRA:         -10.996
REMARK INTER:                 -10.253
REMARK INTRA:                  -0.744
REMARK UNBOUND:                -0.743
REMARK  5 active torsions:
REMARK  status: ('A' for Active; 'I' for Inactive)
REMARK    1  A    between atoms: C17_7  and  C21_10 
REMARK    2  A    between atoms: C21_10  and  O27_12 
REMARK    3  A    between atoms: O27_12  and  C15_13 
REMARK    4  A    between atoms: C14_19  and  C16_20 
REMARK    5  A    between atoms: N26_23  and  C20_25 
ROOT
HETATM    1  C15   D T2346     -11.552   2.980  -5.789  1.00 39.29     0.125 A 
HETATM    2  C4    D T2346     -12.278   2.040  -6.553  1.00 40.72     0.029 A 
HETATM    3  C19   D T2346     -10.210   3.175  -6.152  1.00 38.96     0.173 A 
HETATM    4  N22   D T2346      -9.415   4.081  -5.440  1.00 36.18    -0.078 NA
HETATM    5  N23   D T2346      -9.615   2.528  -7.185  1.00 39.65    -0.228 NA
HETATM    6  C5    D T2346     -10.349   1.644  -7.891  1.00 40.33     0.100 A 
HETATM    7  C14   D T2346     -11.683   1.351  -7.636  1.00 42.26     0.024 A 
ENDROOT
BRANCH   1   8
HETATM    8  O27   D T2346     -11.971   3.748  -4.719  1.00 39.48    -0.326 OA
BRANCH   8   9
HETATM    9  C21   D T2346     -13.331   3.848  -4.239  1.00 39.13     0.145 C 
HETATM   10  C1    D T2346     -14.119   4.613  -5.298  1.00 39.28     0.038 C 
BRANCH   9  11
HETATM   11  C17   D T2346     -13.411   4.512  -2.858  1.00 39.21     0.029 A 
HETATM   12  C13   D T2346     -14.093   3.893  -1.774  1.00 38.58     0.057 A 
HETATM   13 CL     D T2346     -14.921   2.375  -1.885  1.00 39.67    -0.083 Cl
HETATM   14  C3    D T2346     -14.162   4.482  -0.502  1.00 38.18     0.013 A 
HETATM   15  C2    D T2346     -13.573   5.706  -0.248  1.00 37.72     0.031 A 
HETATM   16  C12   D T2346     -12.908   6.323  -1.286  1.00 38.63     0.150 A 
HETATM   17  F     D T2346     -12.340   7.496  -1.036  1.00 38.40    -0.203 F 
HETATM   18  C18   D T2346     -12.811   5.759  -2.565  1.00 40.35     0.084 A 
HETATM   19 CL2    D T2346     -11.941   6.708  -3.728  1.00 48.02    -0.080 Cl
ENDBRANCH   9  11
ENDBRANCH   8   9
ENDBRANCH   1   8
BRANCH   7  20
HETATM   20  C16   D T2346     -12.369   0.353  -8.451  1.00 45.17     0.042 A 
HETATM   21  C6    D T2346     -13.736   0.028  -8.633  1.00 46.03     0.122 A 
HETATM   22  N24   D T2346     -13.928  -1.000  -9.464  1.00 47.73    -0.164 NA
HETATM   23  N26   D T2346     -12.677  -1.366  -9.822  1.00 49.42    -0.236 N 
HETATM   24  C7    D T2346     -11.728  -0.592  -9.230  1.00 47.26     0.101 A 
BRANCH  23  25
HETATM   25  C20   D T2346     -12.444  -2.477 -10.750  1.00 52.42     0.042 C 
HETATM   26  C8    D T2346     -13.657  -2.963 -11.566  1.00 53.67     0.067 C 
HETATM   27  C10   D T2346     -13.762  -2.492 -13.018  1.00 56.13     0.126 C 
HETATM   28  N25   D T2346     -12.425  -2.442 -13.701  1.00 56.98    -0.295 NA
HETATM   29  C11   D T2346     -11.334  -1.733 -12.956  1.00 56.01     0.126 C 
HETATM   30  C9    D T2346     -11.151  -2.361 -11.577  1.00 54.43     0.067 C 
ENDBRANCH  23  25
ENDBRANCH   7  20
TORSDOF 5
ENDMDL
