MODEL 1
REMARK VINA RESULT:    -8.877      0.000      0.000
REMARK INTER + INTRA:         -12.015
REMARK INTER:                 -11.471
REMARK INTRA:                  -0.544
REMARK UNBOUND:                -0.544
REMARK  5 active torsions:
REMARK  status: ('A' for Active; 'I' for Inactive)
REMARK    1  A    between atoms: C17_7  and  C21_10 
REMARK    2  A    between atoms: C21_10  and  O27_12 
REMARK    3  A    between atoms: O27_12  and  C15_13 
REMARK    4  A    between atoms: C14_19  and  C16_20 
REMARK    5  A    between atoms: N26_23  and  C20_25 
ROOT
HETATM    1  C15   D T2346       5.255  12.361   2.213  1.00 39.29     0.125 A 
HETATM    2  C4    D T2346       6.609  12.120   2.537  1.00 40.72     0.029 A 
HETATM    3  C19   D T2346       4.305  11.576   2.884  1.00 38.96     0.173 A 
HETATM    4  N22   D T2346       2.941  11.742   2.616  1.00 36.18    -0.078 NA
HETATM    5  N23   D T2346       4.629  10.640   3.810  1.00 39.65    -0.228 NA
HETATM    6  C5    D T2346       5.935  10.447   4.093  1.00 40.33     0.100 A 
HETATM    7  C14   D T2346       6.977  11.150   3.499  1.00 42.26     0.024 A 
ENDROOT
BRANCH   1   8
HETATM    8  O27   D T2346       4.717  13.268   1.320  1.00 39.48    -0.326 OA
BRANCH   8   9
HETATM    9  C21   D T2346       4.208  12.950   0.005  1.00 39.13     0.145 C 
HETATM   10  C1    D T2346       5.322  12.217  -0.736  1.00 39.28     0.038 C 
BRANCH   9  11
HETATM   11  C17   D T2346       3.728  14.196  -0.749  1.00 39.21     0.029 A 
HETATM   12  C13   D T2346       2.365  14.363  -1.116  1.00 38.58     0.057 A 
HETATM   13 CL     D T2346       1.122  13.199  -0.800  1.00 39.67    -0.083 Cl
HETATM   14  C3    D T2346       1.909  15.505  -1.794  1.00 38.18     0.013 A 
HETATM   15  C2    D T2346       2.778  16.523  -2.143  1.00 37.72     0.031 A 
HETATM   16  C12   D T2346       4.104  16.380  -1.797  1.00 38.63     0.150 A 
HETATM   17  F     D T2346       4.931  17.360  -2.131  1.00 38.40    -0.203 F 
HETATM   18  C18   D T2346       4.590  15.258  -1.112  1.00 40.35     0.084 A 
HETATM   19 CL2    D T2346       6.294  15.272  -0.786  1.00 48.02    -0.080 Cl
ENDBRANCH   9  11
ENDBRANCH   8   9
ENDBRANCH   1   8
BRANCH   7  20
HETATM   20  C16   D T2346       8.354  10.837   3.863  1.00 45.17     0.042 A 
HETATM   21  C6    D T2346       9.029   9.621   4.143  1.00 46.03     0.122 A 
HETATM   22  N24   D T2346      10.312   9.793   4.474  1.00 47.73    -0.164 NA
HETATM   23  N26   D T2346      10.482  11.133   4.428  1.00 49.42    -0.236 N 
HETATM   24  C7    D T2346       9.338  11.783   4.079  1.00 47.26     0.101 A 
BRANCH  23  25
HETATM   25  C20   D T2346      11.780  11.747   4.723  1.00 52.42     0.042 C 
HETATM   26  C8    D T2346      11.759  13.213   5.199  1.00 53.67     0.067 C 
HETATM   27  C10   D T2346      11.915  13.467   6.699  1.00 56.13     0.126 C 
HETATM   28  N25   D T2346      12.898  12.529   7.341  1.00 56.98    -0.295 NA
HETATM   29  C11   D T2346      12.714  11.075   7.032  1.00 56.01     0.126 C 
HETATM   30  C9    D T2346      12.746  10.853   5.521  1.00 54.43     0.067 C 
ENDBRANCH  23  25
ENDBRANCH   7  20
TORSDOF 5
ENDMDL
MODEL 2
REMARK VINA RESULT:    -8.871      2.300      3.677
REMARK INTER + INTRA:         -12.008
REMARK INTER:                 -10.887
REMARK INTRA:                  -1.121
REMARK UNBOUND:                -0.544
REMARK  5 active torsions:
REMARK  status: ('A' for Active; 'I' for Inactive)
REMARK    1  A    between atoms: C17_7  and  C21_10 
REMARK    2  A    between atoms: C21_10  and  O27_12 
REMARK    3  A    between atoms: O27_12  and  C15_13 
REMARK    4  A    between atoms: C14_19  and  C16_20 
REMARK    5  A    between atoms: N26_23  and  C20_25 
ROOT
HETATM    1  C15   D T2346       3.435  13.198   0.378  1.00 39.29     0.125 A 
HETATM    2  C4    D T2346       4.678  12.873   0.966  1.00 40.72     0.029 A 
HETATM    3  C19   D T2346       2.290  12.757   1.058  1.00 38.96     0.173 A 
HETATM    4  N22   D T2346       1.017  13.026   0.541  1.00 36.18    -0.078 NA
HETATM    5  N23   D T2346       2.333  12.068   2.225  1.00 39.65    -0.228 NA
HETATM    6  C5    D T2346       3.543  11.784   2.754  1.00 40.33     0.100 A 
HETATM    7  C14   D T2346       4.754  12.156   2.183  1.00 42.26     0.024 A 
ENDROOT
BRANCH   1   8
HETATM    8  O27   D T2346       3.173  13.897  -0.785  1.00 39.48    -0.326 OA
BRANCH   8   9
HETATM    9  C21   D T2346       3.544  15.271  -1.040  1.00 39.13     0.145 C 
HETATM   10  C1    D T2346       2.444  15.873  -1.909  1.00 39.28     0.038 C 
BRANCH   9  11
HETATM   11  C17   D T2346       4.930  15.388  -1.688  1.00 39.21     0.029 A 
HETATM   12  C13   D T2346       5.809  16.459  -1.373  1.00 38.58     0.057 A 
HETATM   13 CL     D T2346       5.424  17.746  -0.279  1.00 39.67    -0.083 Cl
HETATM   14  C3    D T2346       7.085  16.571  -1.947  1.00 38.18     0.013 A 
HETATM   15  C2    D T2346       7.541  15.638  -2.861  1.00 37.72     0.031 A 
HETATM   16  C12   D T2346       6.703  14.591  -3.181  1.00 38.63     0.150 A 
HETATM   17  F     D T2346       7.148  13.698  -4.053  1.00 38.40    -0.203 F 
HETATM   18  C18   D T2346       5.428  14.445  -2.618  1.00 40.35     0.084 A 
HETATM   19 CL2    D T2346       4.532  13.065  -3.167  1.00 48.02    -0.080 Cl
ENDBRANCH   9  11
ENDBRANCH   8   9
ENDBRANCH   1   8
BRANCH   7  20
HETATM   20  C16   D T2346       6.003  11.770   2.831  1.00 45.17     0.042 A 
HETATM   21  C6    D T2346       6.325  10.793   3.807  1.00 46.03     0.122 A 
HETATM   22  N24   D T2346       7.615  10.797   4.153  1.00 47.73    -0.164 NA
HETATM   23  N26   D T2346       8.147  11.796   3.412  1.00 49.42    -0.236 N 
HETATM   24  C7    D T2346       7.216  12.400   2.625  1.00 47.26     0.101 A 
BRANCH  23  25
HETATM   25  C20   D T2346       9.572  12.128   3.492  1.00 52.42     0.042 C 
HETATM   26  C8    D T2346      10.399  11.378   4.554  1.00 53.67     0.067 C 
HETATM   27  C10   D T2346      11.261  10.208   4.076  1.00 56.13     0.126 C 
HETATM   28  N25   D T2346      11.898  10.473   2.741  1.00 56.98    -0.295 NA
HETATM   29  C11   D T2346      10.982  10.974   1.666  1.00 56.01     0.126 C 
HETATM   30  C9    D T2346      10.279  12.249   2.130  1.00 54.43     0.067 C 
ENDBRANCH  23  25
ENDBRANCH   7  20
TORSDOF 5
ENDMDL
MODEL 3
REMARK VINA RESULT:    -8.810      5.668      9.688
REMARK INTER + INTRA:         -11.928
REMARK INTER:                 -11.138
REMARK INTRA:                  -0.790
REMARK UNBOUND:                -0.544
REMARK  5 active torsions:
REMARK  status: ('A' for Active; 'I' for Inactive)
REMARK    1  A    between atoms: C17_7  and  C21_10 
REMARK    2  A    between atoms: C21_10  and  O27_12 
REMARK    3  A    between atoms: O27_12  and  C15_13 
REMARK    4  A    between atoms: C14_19  and  C16_20 
REMARK    5  A    between atoms: N26_23  and  C20_25 
ROOT
HETATM    1  C15   D T2346       3.820  15.095  -2.038  1.00 39.29     0.125 A 
HETATM    2  C4    D T2346       4.708  15.624  -3.000  1.00 40.72     0.029 A 
HETATM    3  C19   D T2346       2.706  15.886  -1.717  1.00 38.96     0.173 A 
HETATM    4  N22   D T2346       1.780  15.443  -0.765  1.00 36.18    -0.078 NA
HETATM    5  N23   D T2346       2.454  17.089  -2.290  1.00 39.65    -0.228 NA
HETATM    6  C5    D T2346       3.327  17.553  -3.210  1.00 40.33     0.100 A 
HETATM    7  C14   D T2346       4.471  16.876  -3.615  1.00 42.26     0.024 A 
ENDROOT
BRANCH   1   8
HETATM    8  O27   D T2346       3.884  13.897  -1.353  1.00 39.48    -0.326 OA
BRANCH   8   9
HETATM    9  C21   D T2346       5.068  13.348  -0.731  1.00 39.13     0.145 C 
HETATM   10  C1    D T2346       5.615  12.285  -1.680  1.00 39.28     0.038 C 
BRANCH   9  11
HETATM   11  C17   D T2346       4.783  12.790   0.669  1.00 39.21     0.029 A 
HETATM   12  C13   D T2346       5.769  12.809   1.692  1.00 38.58     0.057 A 
HETATM   13 CL     D T2346       7.379  13.415   1.481  1.00 39.67    -0.083 Cl
HETATM   14  C3    D T2346       5.518  12.315   2.981  1.00 38.18     0.013 A 
HETATM   15  C2    D T2346       4.289  11.773   3.311  1.00 37.72     0.031 A 
HETATM   16  C12   D T2346       3.318  11.743   2.333  1.00 38.63     0.150 A 
HETATM   17  F     D T2346       2.141  11.228   2.656  1.00 38.40    -0.203 F 
HETATM   18  C18   D T2346       3.533  12.238   1.040  1.00 40.35     0.084 A 
HETATM   19 CL2    D T2346       2.185  12.092  -0.041  1.00 48.02    -0.080 Cl
ENDBRANCH   9  11
ENDBRANCH   8   9
ENDBRANCH   1   8
BRANCH   7  20
HETATM   20  C16   D T2346       5.358  17.488  -4.599  1.00 45.17     0.042 A 
HETATM   21  C6    D T2346       5.143  18.410  -5.654  1.00 46.03     0.122 A 
HETATM   22  N24   D T2346       6.251  18.687  -6.348  1.00 47.73    -0.164 NA
HETATM   23  N26   D T2346       7.202  17.929  -5.757  1.00 49.42    -0.236 N 
HETATM   24  C7    D T2346       6.704  17.198  -4.722  1.00 47.26     0.101 A 
BRANCH  23  25
HETATM   25  C20   D T2346       8.591  17.948  -6.223  1.00 52.42     0.042 C 
HETATM   26  C8    D T2346       9.564  16.969  -5.539  1.00 53.67     0.067 C 
HETATM   27  C10   D T2346       9.907  15.680  -6.288  1.00 56.13     0.126 C 
HETATM   28  N25   D T2346      10.048  15.898  -7.769  1.00 56.98    -0.295 NA
HETATM   29  C11   D T2346       8.936  16.655  -8.428  1.00 56.01     0.126 C 
HETATM   30  C9    D T2346       8.754  18.013  -7.753  1.00 54.43     0.067 C 
ENDBRANCH  23  25
ENDBRANCH   7  20
TORSDOF 5
ENDMDL
MODEL 4
REMARK VINA RESULT:    -8.732      6.195      9.399
REMARK INTER + INTRA:         -11.828
REMARK INTER:                 -11.330
REMARK INTRA:                  -0.498
REMARK UNBOUND:                -0.544
REMARK  5 active torsions:
REMARK  status: ('A' for Active; 'I' for Inactive)
REMARK    1  A    between atoms: C17_7  and  C21_10 
REMARK    2  A    between atoms: C21_10  and  O27_12 
REMARK    3  A    between atoms: O27_12  and  C15_13 
REMARK    4  A    between atoms: C14_19  and  C16_20 
REMARK    5  A    between atoms: N26_23  and  C20_25 
ROOT
HETATM    1  C15   D T2346       4.269  15.070  -2.697  1.00 39.29     0.125 A 
HETATM    2  C4    D T2346       5.213  15.180  -3.742  1.00 40.72     0.029 A 
HETATM    3  C19   D T2346       3.521  16.223  -2.410  1.00 38.96     0.173 A 
HETATM    4  N22   D T2346       2.569  16.205  -1.383  1.00 36.18    -0.078 NA
HETATM    5  N23   D T2346       3.658  17.390  -3.086  1.00 39.65    -0.228 NA
HETATM    6  C5    D T2346       4.569  17.448  -4.082  1.00 40.33     0.100 A 
HETATM    7  C14   D T2346       5.378  16.385  -4.465  1.00 42.26     0.024 A 
ENDROOT
BRANCH   1   8
HETATM    8  O27   D T2346       3.966  13.981  -1.903  1.00 39.48    -0.326 OA
BRANCH   8   9
HETATM    9  C21   D T2346       4.856  13.370  -0.942  1.00 39.13     0.145 C 
HETATM   10  C1    D T2346       5.660  12.313  -1.693  1.00 39.28     0.038 C 
BRANCH   9  11
HETATM   11  C17   D T2346       4.101  12.785   0.258  1.00 39.21     0.029 A 
HETATM   12  C13   D T2346       2.708  12.511   0.198  1.00 38.58     0.057 A 
HETATM   13 CL     D T2346       1.711  12.828  -1.184  1.00 39.67    -0.083 Cl
HETATM   14  C3    D T2346       2.007  11.963   1.284  1.00 38.18     0.013 A 
HETATM   15  C2    D T2346       2.648  11.671   2.474  1.00 37.72     0.031 A 
HETATM   16  C12   D T2346       4.000  11.930   2.554  1.00 38.63     0.150 A 
HETATM   17  F     D T2346       4.610  11.645   3.695  1.00 38.40    -0.203 F 
HETATM   18  C18   D T2346       4.730  12.467   1.485  1.00 40.35     0.084 A 
HETATM   19 CL2    D T2346       6.416  12.728   1.800  1.00 48.02    -0.080 Cl
ENDBRANCH   9  11
ENDBRANCH   8   9
ENDBRANCH   1   8
BRANCH   7  20
HETATM   20  C16   D T2346       6.349  16.572  -5.538  1.00 45.17     0.042 A 
HETATM   21  C6    D T2346       6.304  17.266  -6.774  1.00 46.03     0.122 A 
HETATM   22  N24   D T2346       7.427  17.150  -7.486  1.00 47.73    -0.164 NA
HETATM   23  N26   D T2346       8.216  16.359  -6.723  1.00 49.42    -0.236 N 
HETATM   24  C7    D T2346       7.602  15.990  -5.565  1.00 47.26     0.101 A 
BRANCH  23  25
HETATM   25  C20   D T2346       9.568  15.990  -7.151  1.00 52.42     0.042 C 
HETATM   26  C8    D T2346      10.206  16.858  -8.253  1.00 53.67     0.067 C 
HETATM   27  C10   D T2346      11.225  17.912  -7.815  1.00 56.13     0.126 C 
HETATM   28  N25   D T2346      12.105  17.428  -6.697  1.00 56.98    -0.295 NA
HETATM   29  C11   D T2346      11.400  16.808  -5.530  1.00 56.01     0.126 C 
HETATM   30  C9    D T2346      10.532  15.642  -6.002  1.00 54.43     0.067 C 
ENDBRANCH  23  25
ENDBRANCH   7  20
TORSDOF 5
ENDMDL
MODEL 5
REMARK VINA RESULT:    -8.474      6.619      9.550
REMARK INTER + INTRA:         -11.495
REMARK INTER:                 -10.923
REMARK INTRA:                  -0.572
REMARK UNBOUND:                -0.544
REMARK  5 active torsions:
REMARK  status: ('A' for Active; 'I' for Inactive)
REMARK    1  A    between atoms: C17_7  and  C21_10 
REMARK    2  A    between atoms: C21_10  and  O27_12 
REMARK    3  A    between atoms: O27_12  and  C15_13 
REMARK    4  A    between atoms: C14_19  and  C16_20 
REMARK    5  A    between atoms: N26_23  and  C20_25 
ROOT
HETATM    1  C15   D T2346       4.352  16.108  -2.342  1.00 39.29     0.125 A 
HETATM    2  C4    D T2346       5.314  15.999  -3.370  1.00 40.72     0.029 A 
HETATM    3  C19   D T2346       3.415  17.146  -2.474  1.00 38.96     0.173 A 
HETATM    4  N22   D T2346       2.432  17.333  -1.495  1.00 36.18    -0.078 NA
HETATM    5  N23   D T2346       3.395  18.005  -3.522  1.00 39.65    -0.228 NA
HETATM    6  C5    D T2346       4.331  17.859  -4.485  1.00 40.33     0.100 A 
HETATM    7  C14   D T2346       5.317  16.881  -4.476  1.00 42.26     0.024 A 
ENDROOT
BRANCH   1   8
HETATM    8  O27   D T2346       4.190  15.335  -1.209  1.00 39.48    -0.326 OA
BRANCH   8   9
HETATM    9  C21   D T2346       4.318  13.896  -1.149  1.00 39.13     0.145 C 
HETATM   10  C1    D T2346       3.856  13.354  -2.499  1.00 39.28     0.038 C 
BRANCH   9  11
HETATM   11  C17   D T2346       3.533  13.291   0.022  1.00 39.21     0.029 A 
HETATM   12  C13   D T2346       4.186  12.585   1.068  1.00 38.58     0.057 A 
HETATM   13 CL     D T2346       5.893  12.297   1.131  1.00 39.67    -0.083 Cl
HETATM   14  C3    D T2346       3.482  12.039   2.153  1.00 38.18     0.013 A 
HETATM   15  C2    D T2346       2.107  12.159   2.245  1.00 37.72     0.031 A 
HETATM   16  C12   D T2346       1.454  12.839   1.240  1.00 38.63     0.150 A 
HETATM   17  F     D T2346       0.137  12.954   1.336  1.00 38.40    -0.203 F 
HETATM   18  C18   D T2346       2.128  13.405   0.149  1.00 40.35     0.084 A 
HETATM   19 CL2    D T2346       1.116  14.206  -1.009  1.00 48.02    -0.080 Cl
ENDBRANCH   9  11
ENDBRANCH   8   9
ENDBRANCH   1   8
BRANCH   7  20
HETATM   20  C16   D T2346       6.295  16.836  -5.558  1.00 45.17     0.042 A 
HETATM   21  C6    D T2346       6.294  17.338  -6.885  1.00 46.03     0.122 A 
HETATM   22  N24   D T2346       7.404  17.038  -7.564  1.00 47.73    -0.164 NA
HETATM   23  N26   D T2346       8.138  16.319  -6.685  1.00 49.42    -0.236 N 
HETATM   24  C7    D T2346       7.505  16.171  -5.489  1.00 47.26     0.101 A 
BRANCH  23  25
HETATM   25  C20   D T2346       9.460  15.797  -7.043  1.00 52.42     0.042 C 
HETATM   26  C8    D T2346      10.155  16.447  -8.255  1.00 53.67     0.067 C 
HETATM   27  C10   D T2346      11.247  17.479  -7.968  1.00 56.13     0.126 C 
HETATM   28  N25   D T2346      12.093  17.105  -6.784  1.00 56.98    -0.295 NA
HETATM   29  C11   D T2346      11.349  16.713  -5.544  1.00 56.01     0.126 C 
HETATM   30  C9    D T2346      10.400  15.555  -5.848  1.00 54.43     0.067 C 
ENDBRANCH  23  25
ENDBRANCH   7  20
TORSDOF 5
ENDMDL
MODEL 6
REMARK VINA RESULT:    -8.474      6.134      9.304
REMARK INTER + INTRA:         -11.494
REMARK INTER:                 -11.054
REMARK INTRA:                  -0.441
REMARK UNBOUND:                -0.544
REMARK  5 active torsions:
REMARK  status: ('A' for Active; 'I' for Inactive)
REMARK    1  A    between atoms: C17_7  and  C21_10 
REMARK    2  A    between atoms: C21_10  and  O27_12 
REMARK    3  A    between atoms: O27_12  and  C15_13 
REMARK    4  A    between atoms: C14_19  and  C16_20 
REMARK    5  A    between atoms: N26_23  and  C20_25 
ROOT
HETATM    1  C15   D T2346       5.968  13.742  -1.395  1.00 39.29     0.125 A 
HETATM    2  C4    D T2346       6.952  14.501  -2.066  1.00 40.72     0.029 A 
HETATM    3  C19   D T2346       4.717  13.648  -2.025  1.00 38.96     0.173 A 
HETATM    4  N22   D T2346       3.680  12.924  -1.424  1.00 36.18    -0.078 NA
HETATM    5  N23   D T2346       4.437  14.226  -3.219  1.00 39.65    -0.228 NA
HETATM    6  C5    D T2346       5.410  14.937  -3.828  1.00 40.33     0.100 A 
HETATM    7  C14   D T2346       6.689  15.115  -3.313  1.00 42.26     0.024 A 
ENDROOT
BRANCH   1   8
HETATM    8  O27   D T2346       6.052  13.068  -0.192  1.00 39.48    -0.326 OA
BRANCH   8   9
HETATM    9  C21   D T2346       5.598  13.570   1.085  1.00 39.13     0.145 C 
HETATM   10  C1    D T2346       6.552  14.691   1.485  1.00 39.28     0.038 C 
BRANCH   9  11
HETATM   11  C17   D T2346       5.516  12.467   2.148  1.00 39.21     0.029 A 
HETATM   12  C13   D T2346       4.268  11.930   2.567  1.00 38.58     0.057 A 
HETATM   13 CL     D T2346       2.730  12.464   1.975  1.00 39.67    -0.083 Cl
HETATM   14  C3    D T2346       4.180  10.910   3.527  1.00 38.18     0.013 A 
HETATM   15  C2    D T2346       5.314  10.386   4.119  1.00 37.72     0.031 A 
HETATM   16  C12   D T2346       6.534  10.893   3.728  1.00 38.63     0.150 A 
HETATM   17  F     D T2346       7.618  10.384   4.295  1.00 38.40    -0.203 F 
HETATM   18  C18   D T2346       6.658  11.903   2.764  1.00 40.35     0.084 A 
HETATM   19 CL2    D T2346       8.284  12.407   2.428  1.00 48.02    -0.080 Cl
ENDBRANCH   9  11
ENDBRANCH   8   9
ENDBRANCH   1   8
BRANCH   7  20
HETATM   20  C16   D T2346       7.652  15.928  -4.047  1.00 45.17     0.042 A 
HETATM   21  C6    D T2346       8.545  16.958  -3.656  1.00 46.03     0.122 A 
HETATM   22  N24   D T2346       9.240  17.470  -4.675  1.00 47.73    -0.164 NA
HETATM   23  N26   D T2346       8.791  16.785  -5.751  1.00 49.42    -0.236 N 
HETATM   24  C7    D T2346       7.841  15.870  -5.415  1.00 47.26     0.101 A 
BRANCH  23  25
HETATM   25  C20   D T2346       9.317  17.043  -7.094  1.00 52.42     0.042 C 
HETATM   26  C8    D T2346      10.064  18.375  -7.299  1.00 53.67     0.067 C 
HETATM   27  C10   D T2346      11.593  18.330  -7.305  1.00 56.13     0.126 C 
HETATM   28  N25   D T2346      12.128  17.106  -7.993  1.00 56.98    -0.295 NA
HETATM   29  C11   D T2346      11.528  15.801  -7.569  1.00 56.01     0.126 C 
HETATM   30  C9    D T2346      10.012  15.837  -7.754  1.00 54.43     0.067 C 
ENDBRANCH  23  25
ENDBRANCH   7  20
TORSDOF 5
ENDMDL
MODEL 7
REMARK VINA RESULT:    -8.220      5.307      7.895
REMARK INTER + INTRA:         -11.166
REMARK INTER:                 -10.343
REMARK INTRA:                  -0.823
REMARK UNBOUND:                -0.544
REMARK  5 active torsions:
REMARK  status: ('A' for Active; 'I' for Inactive)
REMARK    1  A    between atoms: C17_7  and  C21_10 
REMARK    2  A    between atoms: C21_10  and  O27_12 
REMARK    3  A    between atoms: O27_12  and  C15_13 
REMARK    4  A    between atoms: C14_19  and  C16_20 
REMARK    5  A    between atoms: N26_23  and  C20_25 
ROOT
HETATM    1  C15   D T2346       5.848  15.926  -3.900  1.00 39.29     0.125 A 
HETATM    2  C4    D T2346       5.892  14.970  -2.862  1.00 40.72     0.029 A 
HETATM    3  C19   D T2346       4.765  16.819  -3.881  1.00 38.96     0.173 A 
HETATM    4  N22   D T2346       4.638  17.792  -4.879  1.00 36.18    -0.078 NA
HETATM    5  N23   D T2346       3.804  16.805  -2.925  1.00 39.65    -0.228 NA
HETATM    6  C5    D T2346       3.889  15.878  -1.947  1.00 40.33     0.100 A 
HETATM    7  C14   D T2346       4.903  14.932  -1.850  1.00 42.26     0.024 A 
ENDROOT
BRANCH   1   8
HETATM    8  O27   D T2346       6.726  16.117  -4.951  1.00 39.48    -0.326 OA
BRANCH   8   9
HETATM    9  C21   D T2346       8.141  16.384  -4.824  1.00 39.13     0.145 C 
HETATM   10  C1    D T2346       8.276  17.778  -4.218  1.00 39.28     0.038 C 
BRANCH   9  11
HETATM   11  C17   D T2346       8.878  16.255  -6.163  1.00 39.21     0.029 A 
HETATM   12  C13   D T2346      10.163  15.653  -6.249  1.00 38.58     0.057 A 
HETATM   13 CL     D T2346      11.044  15.041  -4.888  1.00 39.67    -0.083 Cl
HETATM   14  C3    D T2346      10.843  15.516  -7.469  1.00 38.18     0.013 A 
HETATM   15  C2    D T2346      10.289  15.974  -8.651  1.00 37.72     0.031 A 
HETATM   16  C12   D T2346       9.044  16.563  -8.589  1.00 38.63     0.150 A 
HETATM   17  F     D T2346       8.517  16.996  -9.725  1.00 38.40    -0.203 F 
HETATM   18  C18   D T2346       8.334  16.706  -7.389  1.00 40.35     0.084 A 
HETATM   19 CL2    D T2346       6.792  17.486  -7.532  1.00 48.02    -0.080 Cl
ENDBRANCH   9  11
ENDBRANCH   8   9
ENDBRANCH   1   8
BRANCH   7  20
HETATM   20  C16   D T2346       4.877  13.959  -0.764  1.00 45.17     0.042 A 
HETATM   21  C6    D T2346       4.231  12.707  -0.601  1.00 46.03     0.122 A 
HETATM   22  N24   D T2346       4.454  12.149   0.592  1.00 47.73    -0.164 NA
HETATM   23  N26   D T2346       5.240  13.046   1.229  1.00 49.42    -0.236 N 
HETATM   24  C7    D T2346       5.501  14.137   0.457  1.00 47.26     0.101 A 
BRANCH  23  25
HETATM   25  C20   D T2346       5.726  12.803   2.590  1.00 52.42     0.042 C 
HETATM   26  C8    D T2346       4.799  11.997   3.521  1.00 53.67     0.067 C 
HETATM   27  C10   D T2346       5.127  10.517   3.729  1.00 56.13     0.126 C 
HETATM   28  N25   D T2346       6.606  10.264   3.810  1.00 56.98    -0.295 NA
HETATM   29  C11   D T2346       7.436  10.877   2.724  1.00 56.01     0.126 C 
HETATM   30  C9    D T2346       7.205  12.387   2.679  1.00 54.43     0.067 C 
ENDBRANCH  23  25
ENDBRANCH   7  20
TORSDOF 5
ENDMDL
MODEL 8
REMARK VINA RESULT:    -8.118      5.704      8.782
REMARK INTER + INTRA:         -11.035
REMARK INTER:                 -10.490
REMARK INTRA:                  -0.545
REMARK UNBOUND:                -0.544
REMARK  5 active torsions:
REMARK  status: ('A' for Active; 'I' for Inactive)
REMARK    1  A    between atoms: C17_7  and  C21_10 
REMARK    2  A    between atoms: C21_10  and  O27_12 
REMARK    3  A    between atoms: O27_12  and  C15_13 
REMARK    4  A    between atoms: C14_19  and  C16_20 
REMARK    5  A    between atoms: N26_23  and  C20_25 
ROOT
HETATM    1  C15   D T2346       4.225  15.522  -2.133  1.00 39.29     0.125 A 
HETATM    2  C4    D T2346       5.294  15.271  -3.021  1.00 40.72     0.029 A 
HETATM    3  C19   D T2346       3.514  16.715  -2.335  1.00 38.96     0.173 A 
HETATM    4  N22   D T2346       2.445  17.048  -1.494  1.00 36.18    -0.078 NA
HETATM    5  N23   D T2346       3.799  17.595  -3.326  1.00 39.65    -0.228 NA
HETATM    6  C5    D T2346       4.826  17.312  -4.156  1.00 40.33     0.100 A 
HETATM    7  C14   D T2346       5.614  16.171  -4.065  1.00 42.26     0.024 A 
ENDROOT
BRANCH   1   8
HETATM    8  O27   D T2346       3.765  14.756  -1.079  1.00 39.48    -0.326 OA
BRANCH   8   9
HETATM    9  C21   D T2346       3.785  13.312  -1.019  1.00 39.13     0.145 C 
HETATM   10  C1    D T2346       2.331  12.849  -1.002  1.00 39.28     0.038 C 
BRANCH   9  11
HETATM   11  C17   D T2346       4.578  12.791   0.187  1.00 39.21     0.029 A 
HETATM   12  C13   D T2346       5.958  12.469   0.085  1.00 38.58     0.057 A 
HETATM   13 CL     D T2346       6.881  12.585  -1.377  1.00 39.67    -0.083 Cl
HETATM   14  C3    D T2346       6.699  12.005   1.183  1.00 38.18     0.013 A 
HETATM   15  C2    D T2346       6.108  11.832   2.422  1.00 37.72     0.031 A 
HETATM   16  C12   D T2346       4.770  12.138   2.541  1.00 38.63     0.150 A 
HETATM   17  F     D T2346       4.210  11.974   3.732  1.00 38.40    -0.203 F 
HETATM   18  C18   D T2346       4.004  12.613   1.468  1.00 40.35     0.084 A 
HETATM   19 CL2    D T2346       2.337  12.924   1.830  1.00 48.02    -0.080 Cl
ENDBRANCH   9  11
ENDBRANCH   8   9
ENDBRANCH   1   8
BRANCH   7  20
HETATM   20  C16   D T2346       6.717  15.984  -5.001  1.00 45.17     0.042 A 
HETATM   21  C6    D T2346       6.772  15.775  -6.403  1.00 46.03     0.122 A 
HETATM   22  N24   D T2346       8.015  15.615  -6.865  1.00 47.73    -0.164 NA
HETATM   23  N26   D T2346       8.787  15.702  -5.758  1.00 49.42    -0.236 N 
HETATM   24  C7    D T2346       8.048  15.910  -4.634  1.00 47.26     0.101 A 
BRANCH  23  25
HETATM   25  C20   D T2346      10.245  15.585  -5.834  1.00 52.42     0.042 C 
HETATM   26  C8    D T2346      10.997  16.742  -6.521  1.00 53.67     0.067 C 
HETATM   27  C10   D T2346      11.676  17.773  -5.618  1.00 56.13     0.126 C 
HETATM   28  N25   D T2346      12.299  17.149  -4.402  1.00 56.98    -0.295 NA
HETATM   29  C11   D T2346      11.426  16.210  -3.627  1.00 56.01     0.126 C 
HETATM   30  C9    D T2346      10.919  15.094  -4.539  1.00 54.43     0.067 C 
ENDBRANCH  23  25
ENDBRANCH   7  20
TORSDOF 5
ENDMDL
MODEL 9
REMARK VINA RESULT:    -7.981      6.643      9.903
REMARK INTER + INTRA:         -10.858
REMARK INTER:                  -9.968
REMARK INTRA:                  -0.889
REMARK UNBOUND:                -0.544
REMARK  5 active torsions:
REMARK  status: ('A' for Active; 'I' for Inactive)
REMARK    1  A    between atoms: C17_7  and  C21_10 
REMARK    2  A    between atoms: C21_10  and  O27_12 
REMARK    3  A    between atoms: O27_12  and  C15_13 
REMARK    4  A    between atoms: C14_19  and  C16_20 
REMARK    5  A    between atoms: N26_23  and  C20_25 
ROOT
HETATM    1  C15   D T2346       7.765  15.514  -4.420  1.00 39.29     0.125 A 
HETATM    2  C4    D T2346       7.173  14.926  -3.281  1.00 40.72     0.029 A 
HETATM    3  C19   D T2346       6.897  16.177  -5.302  1.00 38.96     0.173 A 
HETATM    4  N22   D T2346       7.399  16.778  -6.463  1.00 36.18    -0.078 NA
HETATM    5  N23   D T2346       5.561  16.281  -5.097  1.00 39.65    -0.228 NA
HETATM    6  C5    D T2346       5.038  15.709  -3.991  1.00 40.33     0.100 A 
HETATM    7  C14   D T2346       5.781  15.020  -3.040  1.00 42.26     0.024 A 
ENDROOT
BRANCH   1   8
HETATM    8  O27   D T2346       9.092  15.535  -4.804  1.00 39.48    -0.326 OA
BRANCH   8   9
HETATM    9  C21   D T2346      10.186  16.052  -4.013  1.00 39.13     0.145 C 
HETATM   10  C1    D T2346      10.233  17.558  -4.253  1.00 39.28     0.038 C 
BRANCH   9  11
HETATM   11  C17   D T2346      11.518  15.367  -4.345  1.00 39.21     0.029 A 
HETATM   12  C13   D T2346      12.408  14.940  -3.323  1.00 38.58     0.057 A 
HETATM   13 CL     D T2346      12.127  15.166  -1.628  1.00 39.67    -0.083 Cl
HETATM   14  C3    D T2346      13.623  14.299  -3.612  1.00 38.18     0.013 A 
HETATM   15  C2    D T2346      14.013  14.061  -4.917  1.00 37.72     0.031 A 
HETATM   16  C12   D T2346      13.164  14.468  -5.923  1.00 38.63     0.150 A 
HETATM   17  F     D T2346      13.540  14.234  -7.172  1.00 38.40    -0.203 F 
HETATM   18  C18   D T2346      11.940  15.101  -5.669  1.00 40.35     0.084 A 
HETATM   19 CL2    D T2346      11.030  15.543  -7.079  1.00 48.02    -0.080 Cl
ENDBRANCH   9  11
ENDBRANCH   8   9
ENDBRANCH   1   8
BRANCH   7  20
HETATM   20  C16   D T2346       5.104  14.418  -1.897  1.00 45.17     0.042 A 
HETATM   21  C6    D T2346       5.451  14.280  -0.529  1.00 46.03     0.122 A 
HETATM   22  N24   D T2346       4.537  13.617   0.184  1.00 47.73    -0.164 NA
HETATM   23  N26   D T2346       3.585  13.300  -0.722  1.00 49.42    -0.236 N 
HETATM   24  C7    D T2346       3.895  13.751  -1.969  1.00 47.26     0.101 A 
BRANCH  23  25
HETATM   25  C20   D T2346       2.380  12.561  -0.336  1.00 52.42     0.042 C 
HETATM   26  C8    D T2346       2.467  11.723   0.954  1.00 53.67     0.067 C 
HETATM   27  C10   D T2346       1.845  12.315   2.220  1.00 56.13     0.126 C 
HETATM   28  N25   D T2346       0.566  13.052   1.940  1.00 56.98    -0.295 NA
HETATM   29  C11   D T2346       0.613  14.044   0.819  1.00 56.01     0.126 C 
HETATM   30  C9    D T2346       1.069  13.359  -0.468  1.00 54.43     0.067 C 
ENDBRANCH  23  25
ENDBRANCH   7  20
TORSDOF 5
ENDMDL
