MODEL 1
REMARK VINA RESULT:    -8.423      0.000      0.000
REMARK INTER + INTRA:         -11.762
REMARK INTER:                 -10.885
REMARK INTRA:                  -0.877
REMARK UNBOUND:                -0.877
REMARK  5 active torsions:
REMARK  status: ('A' for Active; 'I' for Inactive)
REMARK    1  A    between atoms: C17_7  and  C21_10 
REMARK    2  A    between atoms: C21_10  and  O27_12 
REMARK    3  A    between atoms: O27_12  and  C15_13 
REMARK    4  A    between atoms: C14_19  and  C16_20 
REMARK    5  A    between atoms: N26_23  and  C20_25 
ROOT
HETATM    1  C15   D T2346      -1.904   1.870  14.491  1.00 39.29     0.125 A 
HETATM    2  C4    D T2346      -1.390   0.737  15.159  1.00 40.72     0.029 A 
HETATM    3  C19   D T2346      -3.288   1.882  14.257  1.00 38.96     0.173 A 
HETATM    4  N22   D T2346      -3.879   2.963  13.594  1.00 36.18    -0.078 NA
HETATM    5  N23   D T2346      -4.119   0.885  14.650  1.00 39.65    -0.228 NA
HETATM    6  C5    D T2346      -3.585  -0.177  15.290  1.00 40.33     0.100 A 
HETATM    7  C14   D T2346      -2.233  -0.318  15.580  1.00 42.26     0.024 A 
ENDROOT
BRANCH   1   8
HETATM    8  O27   D T2346      -1.238   2.989  14.027  1.00 39.48    -0.326 OA
BRANCH   8   9
HETATM    9  C21   D T2346       0.101   3.004  13.483  1.00 39.13     0.145 C 
HETATM   10  C1    D T2346       0.990   3.693  14.513  1.00 39.28     0.038 C 
BRANCH   9  11
HETATM   11  C17   D T2346       0.162   3.684  12.109  1.00 39.21     0.029 A 
HETATM   12  C13   D T2346       0.949   3.155  11.052  1.00 38.58     0.057 A 
HETATM   13 CL     D T2346       1.936   1.736  11.188  1.00 39.67    -0.083 Cl
HETATM   14  C3    D T2346       1.003   3.759   9.787  1.00 38.18     0.013 A 
HETATM   15  C2    D T2346       0.293   4.914   9.515  1.00 37.72     0.031 A 
HETATM   16  C12   D T2346      -0.475   5.446  10.528  1.00 38.63     0.150 A 
HETATM   17  F     D T2346      -1.159   6.550  10.262  1.00 38.40    -0.203 F 
HETATM   18  C18   D T2346      -0.560   4.861  11.800  1.00 40.35     0.084 A 
HETATM   19 CL2    D T2346      -1.573   5.699  12.931  1.00 48.02    -0.080 Cl
ENDBRANCH   9  11
ENDBRANCH   8   9
ENDBRANCH   1   8
BRANCH   7  20
HETATM   20  C16   D T2346      -1.765  -1.526  16.252  1.00 45.17     0.042 A 
HETATM   21  C6    D T2346      -0.473  -2.023  16.556  1.00 46.03     0.122 A 
HETATM   22  N24   D T2346      -0.495  -3.212  17.167  1.00 47.73    -0.164 NA
HETATM   23  N26   D T2346      -1.811  -3.508  17.251  1.00 49.42    -0.236 N 
HETATM   24  C7    D T2346      -2.591  -2.535  16.709  1.00 47.26     0.101 A 
BRANCH  23  25
HETATM   25  C20   D T2346      -2.273  -4.751  17.876  1.00 52.42     0.042 C 
HETATM   26  C8    D T2346      -1.539  -5.198  19.155  1.00 53.67     0.067 C 
HETATM   27  C10   D T2346      -2.225  -4.915  20.493  1.00 56.13     0.126 C 
HETATM   28  N25   D T2346      -3.712  -5.110  20.428  1.00 56.98    -0.295 NA
HETATM   29  C11   D T2346      -4.413  -4.440  19.285  1.00 56.01     0.126 C 
HETATM   30  C9    D T2346      -3.804  -4.896  17.960  1.00 54.43     0.067 C 
ENDBRANCH  23  25
ENDBRANCH   7  20
TORSDOF 5
ENDMDL
MODEL 2
REMARK VINA RESULT:    -7.993      1.532      2.248
REMARK INTER + INTRA:         -11.207
REMARK INTER:                 -10.355
REMARK INTRA:                  -0.851
REMARK UNBOUND:                -0.877
REMARK  5 active torsions:
REMARK  status: ('A' for Active; 'I' for Inactive)
REMARK    1  A    between atoms: C17_7  and  C21_10 
REMARK    2  A    between atoms: C21_10  and  O27_12 
REMARK    3  A    between atoms: O27_12  and  C15_13 
REMARK    4  A    between atoms: C14_19  and  C16_20 
REMARK    5  A    between atoms: N26_23  and  C20_25 
ROOT
HETATM    1  C15   D T2346      -1.827   1.716  14.476  1.00 39.29     0.125 A 
HETATM    2  C4    D T2346      -1.258   0.570  15.076  1.00 40.72     0.029 A 
HETATM    3  C19   D T2346      -3.227   1.743  14.387  1.00 38.96     0.173 A 
HETATM    4  N22   D T2346      -3.873   2.837  13.800  1.00 36.18    -0.078 NA
HETATM    5  N23   D T2346      -4.024   0.750  14.854  1.00 39.65    -0.228 NA
HETATM    6  C5    D T2346      -3.438  -0.324  15.426  1.00 40.33     0.100 A 
HETATM    7  C14   D T2346      -2.065  -0.481  15.572  1.00 42.26     0.024 A 
ENDROOT
BRANCH   1   8
HETATM    8  O27   D T2346      -1.201   2.833  13.956  1.00 39.48    -0.326 OA
BRANCH   8   9
HETATM    9  C21   D T2346       0.170   2.892  13.503  1.00 39.13     0.145 C 
HETATM   10  C1    D T2346       0.969   3.590  14.599  1.00 39.28     0.038 C 
BRANCH   9  11
HETATM   11  C17   D T2346       0.304   3.595  12.146  1.00 39.21     0.029 A 
HETATM   12  C13   D T2346       1.146   3.083  11.123  1.00 38.58     0.057 A 
HETATM   13 CL     D T2346       2.125   1.662  11.287  1.00 39.67    -0.083 Cl
HETATM   14  C3    D T2346       1.266   3.708   9.873  1.00 38.18     0.013 A 
HETATM   15  C2    D T2346       0.570   4.867   9.582  1.00 37.72     0.031 A 
HETATM   16  C12   D T2346      -0.251   5.382  10.561  1.00 38.63     0.150 A 
HETATM   17  F     D T2346      -0.921   6.490  10.277  1.00 38.40    -0.203 F 
HETATM   18  C18   D T2346      -0.403   4.776  11.817  1.00 40.35     0.084 A 
HETATM   19 CL2    D T2346      -1.474   5.596  12.907  1.00 48.02    -0.080 Cl
ENDBRANCH   9  11
ENDBRANCH   8   9
ENDBRANCH   1   8
BRANCH   7  20
HETATM   20  C16   D T2346      -1.543  -1.700  16.180  1.00 45.17     0.042 A 
HETATM   21  C6    D T2346      -2.156  -2.769  16.881  1.00 46.03     0.122 A 
HETATM   22  N24   D T2346      -1.285  -3.690  17.306  1.00 47.73    -0.164 NA
HETATM   23  N26   D T2346      -0.087  -3.217  16.896  1.00 49.42    -0.236 N 
HETATM   24  C7    D T2346      -0.203  -2.034  16.235  1.00 47.26     0.101 A 
BRANCH  23  25
HETATM   25  C20   D T2346       1.153  -3.952  17.161  1.00 52.42     0.042 C 
HETATM   26  C8    D T2346       1.583  -4.074  18.636  1.00 53.67     0.067 C 
HETATM   27  C10   D T2346       1.293  -5.399  19.344  1.00 56.13     0.126 C 
HETATM   28  N25   D T2346       1.498  -6.586  18.447  1.00 56.98    -0.295 NA
HETATM   29  C11   D T2346       0.843  -6.513  17.102  1.00 56.01     0.126 C 
HETATM   30  C9    D T2346       1.307  -5.259  16.362  1.00 54.43     0.067 C 
ENDBRANCH  23  25
ENDBRANCH   7  20
TORSDOF 5
ENDMDL
MODEL 3
REMARK VINA RESULT:    -7.621      5.492     11.080
REMARK INTER + INTRA:         -10.726
REMARK INTER:                 -10.011
REMARK INTRA:                  -0.715
REMARK UNBOUND:                -0.877
REMARK  5 active torsions:
REMARK  status: ('A' for Active; 'I' for Inactive)
REMARK    1  A    between atoms: C17_7  and  C21_10 
REMARK    2  A    between atoms: C21_10  and  O27_12 
REMARK    3  A    between atoms: O27_12  and  C15_13 
REMARK    4  A    between atoms: C14_19  and  C16_20 
REMARK    5  A    between atoms: N26_23  and  C20_25 
ROOT
HETATM    1  C15   D T2346       1.013   3.088  11.915  1.00 39.29     0.125 A 
HETATM    2  C4    D T2346       1.597   4.010  11.018  1.00 40.72     0.029 A 
HETATM    3  C19   D T2346       1.556   1.794  11.921  1.00 38.96     0.173 A 
HETATM    4  N22   D T2346       1.031   0.816  12.772  1.00 36.18    -0.078 NA
HETATM    5  N23   D T2346       2.594   1.418  11.134  1.00 39.65    -0.228 NA
HETATM    6  C5    D T2346       3.126   2.333  10.296  1.00 40.33     0.100 A 
HETATM    7  C14   D T2346       2.681   3.645  10.186  1.00 42.26     0.024 A 
ENDROOT
BRANCH   1   8
HETATM    8  O27   D T2346      -0.030   3.273  12.803  1.00 39.48    -0.326 OA
BRANCH   8   9
HETATM    9  C21   D T2346      -1.312   3.857  12.482  1.00 39.13     0.145 C 
HETATM   10  C1    D T2346      -1.284   5.294  12.993  1.00 39.28     0.038 C 
BRANCH   9  11
HETATM   11  C17   D T2346      -2.481   3.052  13.066  1.00 39.21     0.029 A 
HETATM   12  C13   D T2346      -3.756   3.032  12.442  1.00 38.58     0.057 A 
HETATM   13 CL     D T2346      -4.151   3.916  11.004  1.00 39.67    -0.083 Cl
HETATM   14  C3    D T2346      -4.828   2.289  12.958  1.00 38.18     0.013 A 
HETATM   15  C2    D T2346      -4.691   1.543  14.114  1.00 37.72     0.031 A 
HETATM   16  C12   D T2346      -3.462   1.550  14.737  1.00 38.63     0.150 A 
HETATM   17  F     D T2346      -3.333   0.830  15.843  1.00 38.40    -0.203 F 
HETATM   18  C18   D T2346      -2.367   2.273  14.243  1.00 40.35     0.084 A 
HETATM   19 CL2    D T2346      -0.918   2.155  15.187  1.00 48.02    -0.080 Cl
ENDBRANCH   9  11
ENDBRANCH   8   9
ENDBRANCH   1   8
BRANCH   7  20
HETATM   20  C16   D T2346       3.315   4.539   9.222  1.00 45.17     0.042 A 
HETATM   21  C6    D T2346       3.318   5.949   9.070  1.00 46.03     0.122 A 
HETATM   22  N24   D T2346       4.017   6.363   8.008  1.00 47.73    -0.164 NA
HETATM   23  N26   D T2346       4.464   5.217   7.447  1.00 49.42    -0.236 N 
HETATM   24  C7    D T2346       4.056   4.117   8.136  1.00 47.26     0.101 A 
BRANCH  23  25
HETATM   25  C20   D T2346       5.295   5.234   6.240  1.00 52.42     0.042 C 
HETATM   26  C8    D T2346       6.277   6.413   6.091  1.00 53.67     0.067 C 
HETATM   27  C10   D T2346       7.744   6.151   6.434  1.00 56.13     0.126 C 
HETATM   28  N25   D T2346       8.202   4.790   5.994  1.00 56.98    -0.295 NA
HETATM   29  C11   D T2346       7.321   3.643   6.385  1.00 56.01     0.126 C 
HETATM   30  C9    D T2346       5.904   3.871   5.862  1.00 54.43     0.067 C 
ENDBRANCH  23  25
ENDBRANCH   7  20
TORSDOF 5
ENDMDL
MODEL 4
REMARK VINA RESULT:    -7.510      4.785     10.238
REMARK INTER + INTRA:         -10.582
REMARK INTER:                  -9.907
REMARK INTRA:                  -0.675
REMARK UNBOUND:                -0.877
REMARK  5 active torsions:
REMARK  status: ('A' for Active; 'I' for Inactive)
REMARK    1  A    between atoms: C17_7  and  C21_10 
REMARK    2  A    between atoms: C21_10  and  O27_12 
REMARK    3  A    between atoms: O27_12  and  C15_13 
REMARK    4  A    between atoms: C14_19  and  C16_20 
REMARK    5  A    between atoms: N26_23  and  C20_25 
ROOT
HETATM    1  C15   D T2346       0.990   1.924  13.221  1.00 39.29     0.125 A 
HETATM    2  C4    D T2346       1.221   2.891  12.217  1.00 40.72     0.029 A 
HETATM    3  C19   D T2346       2.128   1.383  13.839  1.00 38.96     0.173 A 
HETATM    4  N22   D T2346       1.990   0.412  14.838  1.00 36.18    -0.078 NA
HETATM    5  N23   D T2346       3.394   1.753  13.527  1.00 39.65    -0.228 NA
HETATM    6  C5    D T2346       3.568   2.685  12.565  1.00 40.33     0.100 A 
HETATM    7  C14   D T2346       2.531   3.297  11.871  1.00 42.26     0.024 A 
ENDROOT
BRANCH   1   8
HETATM    8  O27   D T2346      -0.208   1.425  13.694  1.00 39.48    -0.326 OA
BRANCH   8   9
HETATM    9  C21   D T2346      -1.204   2.179  14.421  1.00 39.13     0.145 C 
HETATM   10  C1    D T2346      -0.937   1.951  15.905  1.00 39.28     0.038 C 
BRANCH   9  11
HETATM   11  C17   D T2346      -2.634   1.794  14.018  1.00 39.21     0.029 A 
HETATM   12  C13   D T2346      -3.224   0.575  14.447  1.00 38.58     0.057 A 
HETATM   13 CL     D T2346      -2.416  -0.609  15.421  1.00 39.67    -0.083 Cl
HETATM   14  C3    D T2346      -4.535   0.218  14.097  1.00 38.18     0.013 A 
HETATM   15  C2    D T2346      -5.313   1.040  13.303  1.00 37.72     0.031 A 
HETATM   16  C12   D T2346      -4.759   2.226  12.874  1.00 38.63     0.150 A 
HETATM   17  F     D T2346      -5.510   3.014  12.117  1.00 38.40    -0.203 F 
HETATM   18  C18   D T2346      -3.456   2.619  13.214  1.00 40.35     0.084 A 
HETATM   19 CL2    D T2346      -2.950   4.142  12.558  1.00 48.02    -0.080 Cl
ENDBRANCH   9  11
ENDBRANCH   8   9
ENDBRANCH   1   8
BRANCH   7  20
HETATM   20  C16   D T2346       2.841   4.271  10.829  1.00 45.17     0.042 A 
HETATM   21  C6    D T2346       2.113   5.350  10.268  1.00 46.03     0.122 A 
HETATM   22  N24   D T2346       2.772   5.981   9.291  1.00 47.73    -0.164 NA
HETATM   23  N26   D T2346       3.937   5.302   9.196  1.00 49.42    -0.236 N 
HETATM   24  C7    D T2346       4.006   4.275  10.086  1.00 47.26     0.101 A 
BRANCH  23  25
HETATM   25  C20   D T2346       4.966   5.688   8.227  1.00 52.42     0.042 C 
HETATM   26  C8    D T2346       6.373   5.094   8.436  1.00 53.67     0.067 C 
HETATM   27  C10   D T2346       6.770   3.906   7.558  1.00 56.13     0.126 C 
HETATM   28  N25   D T2346       6.260   4.036   6.151  1.00 56.98    -0.295 NA
HETATM   29  C11   D T2346       4.809   4.379   6.009  1.00 56.01     0.126 C 
HETATM   30  C9    D T2346       4.502   5.675   6.758  1.00 54.43     0.067 C 
ENDBRANCH  23  25
ENDBRANCH   7  20
TORSDOF 5
ENDMDL
MODEL 5
REMARK VINA RESULT:    -7.442      5.744     10.495
REMARK INTER + INTRA:         -10.494
REMARK INTER:                 -10.937
REMARK INTRA:                   0.443
REMARK UNBOUND:                -0.877
REMARK  5 active torsions:
REMARK  status: ('A' for Active; 'I' for Inactive)
REMARK    1  A    between atoms: C17_7  and  C21_10 
REMARK    2  A    between atoms: C21_10  and  O27_12 
REMARK    3  A    between atoms: O27_12  and  C15_13 
REMARK    4  A    between atoms: C14_19  and  C16_20 
REMARK    5  A    between atoms: N26_23  and  C20_25 
ROOT
HETATM    1  C15   D T2346      -1.048   4.591  11.558  1.00 39.29     0.125 A 
HETATM    2  C4    D T2346       0.290   4.277  11.233  1.00 40.72     0.029 A 
HETATM    3  C19   D T2346      -1.458   5.910  11.309  1.00 38.96     0.173 A 
HETATM    4  N22   D T2346      -2.766   6.308  11.609  1.00 36.18    -0.078 NA
HETATM    5  N23   D T2346      -0.646   6.855  10.774  1.00 39.65    -0.228 NA
HETATM    6  C5    D T2346       0.624   6.509  10.473  1.00 40.33     0.100 A 
HETATM    7  C14   D T2346       1.159   5.243  10.674  1.00 42.26     0.024 A 
ENDROOT
BRANCH   1   8
HETATM    8  O27   D T2346      -2.032   3.779  12.091  1.00 39.48    -0.326 OA
BRANCH   8   9
HETATM    9  C21   D T2346      -2.064   3.279  13.446  1.00 39.13     0.145 C 
HETATM   10  C1    D T2346      -0.696   2.664  13.724  1.00 39.28     0.038 C 
BRANCH   9  11
HETATM   11  C17   D T2346      -3.209   2.283  13.671  1.00 39.21     0.029 A 
HETATM   12  C13   D T2346      -4.350   2.258  12.826  1.00 38.58     0.057 A 
HETATM   13 CL     D T2346      -4.600   3.340  11.495  1.00 39.67    -0.083 Cl
HETATM   14  C3    D T2346      -5.397   1.344  13.012  1.00 38.18     0.013 A 
HETATM   15  C2    D T2346      -5.368   0.423  14.043  1.00 37.72     0.031 A 
HETATM   16  C12   D T2346      -4.272   0.431  14.877  1.00 38.63     0.150 A 
HETATM   17  F     D T2346      -4.245  -0.456  15.862  1.00 38.40    -0.203 F 
HETATM   18  C18   D T2346      -3.203   1.324  14.713  1.00 40.35     0.084 A 
HETATM   19 CL2    D T2346      -1.929   1.174  15.880  1.00 48.02    -0.080 Cl
ENDBRANCH   9  11
ENDBRANCH   8   9
ENDBRANCH   1   8
BRANCH   7  20
HETATM   20  C16   D T2346       2.557   4.993  10.338  1.00 45.17     0.042 A 
HETATM   21  C6    D T2346       3.601   4.301  11.002  1.00 46.03     0.122 A 
HETATM   22  N24   D T2346       4.765   4.343  10.343  1.00 47.73    -0.164 NA
HETATM   23  N26   D T2346       4.489   5.082   9.246  1.00 49.42    -0.236 N 
HETATM   24  C7    D T2346       3.192   5.493   9.217  1.00 47.26     0.101 A 
BRANCH  23  25
HETATM   25  C20   D T2346       5.517   5.364   8.240  1.00 52.42     0.042 C 
HETATM   26  C8    D T2346       6.788   4.493   8.286  1.00 53.67     0.067 C 
HETATM   27  C10   D T2346       6.891   3.349   7.275  1.00 56.13     0.126 C 
HETATM   28  N25   D T2346       6.337   3.720   5.930  1.00 56.98    -0.295 NA
HETATM   29  C11   D T2346       4.977   4.347   5.930  1.00 56.01     0.126 C 
HETATM   30  C9    D T2346       4.976   5.592   6.816  1.00 54.43     0.067 C 
ENDBRANCH  23  25
ENDBRANCH   7  20
TORSDOF 5
ENDMDL
MODEL 6
REMARK VINA RESULT:    -7.434      2.411      3.482
REMARK INTER + INTRA:         -10.484
REMARK INTER:                  -9.591
REMARK INTRA:                  -0.893
REMARK UNBOUND:                -0.877
REMARK  5 active torsions:
REMARK  status: ('A' for Active; 'I' for Inactive)
REMARK    1  A    between atoms: C17_7  and  C21_10 
REMARK    2  A    between atoms: C21_10  and  O27_12 
REMARK    3  A    between atoms: O27_12  and  C15_13 
REMARK    4  A    between atoms: C14_19  and  C16_20 
REMARK    5  A    between atoms: N26_23  and  C20_25 
ROOT
HETATM    1  C15   D T2346      -1.384   0.977  14.463  1.00 39.29     0.125 A 
HETATM    2  C4    D T2346      -1.009  -0.234  15.086  1.00 40.72     0.029 A 
HETATM    3  C19   D T2346      -2.717   1.382  14.637  1.00 38.96     0.173 A 
HETATM    4  N22   D T2346      -3.175   2.565  14.046  1.00 36.18    -0.078 NA
HETATM    5  N23   D T2346      -3.619   0.682  15.368  1.00 39.65    -0.228 NA
HETATM    6  C5    D T2346      -3.216  -0.468  15.950  1.00 40.33     0.100 A 
HETATM    7  C14   D T2346      -1.930  -0.984  15.855  1.00 42.26     0.024 A 
ENDROOT
BRANCH   1   8
HETATM    8  O27   D T2346      -0.622   1.839  13.697  1.00 39.48    -0.326 OA
BRANCH   8   9
HETATM    9  C21   D T2346       0.811   2.001  13.790  1.00 39.13     0.145 C 
HETATM   10  C1    D T2346       1.068   3.082  14.835  1.00 39.28     0.038 C 
BRANCH   9  11
HETATM   11  C17   D T2346       1.447   2.336  12.434  1.00 39.21     0.029 A 
HETATM   12  C13   D T2346       0.914   3.349  11.593  1.00 38.58     0.057 A 
HETATM   13 CL     D T2346      -0.499   4.282  11.966  1.00 39.67    -0.083 Cl
HETATM   14  C3    D T2346       1.494   3.675  10.358  1.00 38.18     0.013 A 
HETATM   15  C2    D T2346       2.616   3.011   9.897  1.00 37.72     0.031 A 
HETATM   16  C12   D T2346       3.147   2.023  10.696  1.00 38.63     0.150 A 
HETATM   17  F     D T2346       4.225   1.392  10.253  1.00 38.40    -0.203 F 
HETATM   18  C18   D T2346       2.599   1.680  11.941  1.00 40.35     0.084 A 
HETATM   19 CL2    D T2346       3.415   0.400  12.778  1.00 48.02    -0.080 Cl
ENDBRANCH   9  11
ENDBRANCH   8   9
ENDBRANCH   1   8
BRANCH   7  20
HETATM   20  C16   D T2346      -1.616  -2.253  16.504  1.00 45.17     0.042 A 
HETATM   21  C6    D T2346      -2.420  -3.263  17.089  1.00 46.03     0.122 A 
HETATM   22  N24   D T2346      -1.708  -4.267  17.612  1.00 47.73    -0.164 NA
HETATM   23  N26   D T2346      -0.425  -3.908  17.384  1.00 49.42    -0.236 N 
HETATM   24  C7    D T2346      -0.334  -2.713  16.739  1.00 47.26     0.101 A 
BRANCH  23  25
HETATM   25  C20   D T2346       0.690  -4.760  17.806  1.00 52.42     0.042 C 
HETATM   26  C8    D T2346       0.336  -5.991  18.663  1.00 53.67     0.067 C 
HETATM   27  C10   D T2346       0.286  -7.347  17.956  1.00 56.13     0.126 C 
HETATM   28  N25   D T2346       1.362  -7.493  16.918  1.00 56.98    -0.295 NA
HETATM   29  C11   D T2346       1.498  -6.360  15.949  1.00 56.01     0.126 C 
HETATM   30  C9    D T2346       1.727  -5.051  16.704  1.00 54.43     0.067 C 
ENDBRANCH  23  25
ENDBRANCH   7  20
TORSDOF 5
ENDMDL
MODEL 7
REMARK VINA RESULT:    -7.332      2.801      3.492
REMARK INTER + INTRA:         -10.352
REMARK INTER:                  -9.416
REMARK INTRA:                  -0.935
REMARK UNBOUND:                -0.877
REMARK  5 active torsions:
REMARK  status: ('A' for Active; 'I' for Inactive)
REMARK    1  A    between atoms: C17_7  and  C21_10 
REMARK    2  A    between atoms: C21_10  and  O27_12 
REMARK    3  A    between atoms: O27_12  and  C15_13 
REMARK    4  A    between atoms: C14_19  and  C16_20 
REMARK    5  A    between atoms: N26_23  and  C20_25 
ROOT
HETATM    1  C15   D T2346      -0.768   0.782  14.471  1.00 39.29     0.125 A 
HETATM    2  C4    D T2346      -0.442  -0.435  15.108  1.00 40.72     0.029 A 
HETATM    3  C19   D T2346      -2.093   1.223  14.607  1.00 38.96     0.173 A 
HETATM    4  N22   D T2346      -2.503   2.416  14.001  1.00 36.18    -0.078 NA
HETATM    5  N23   D T2346      -3.033   0.551  15.317  1.00 39.65    -0.228 NA
HETATM    6  C5    D T2346      -2.677  -0.606  15.914  1.00 40.33     0.100 A 
HETATM    7  C14   D T2346      -1.402  -1.158  15.854  1.00 42.26     0.024 A 
ENDROOT
BRANCH   1   8
HETATM    8  O27   D T2346       0.037   1.620  13.722  1.00 39.48    -0.326 OA
BRANCH   8   9
HETATM    9  C21   D T2346       1.369   2.049  14.083  1.00 39.13     0.145 C 
HETATM   10  C1    D T2346       1.366   3.574  14.054  1.00 39.28     0.038 C 
BRANCH   9  11
HETATM   11  C17   D T2346       2.442   1.449  13.166  1.00 39.21     0.029 A 
HETATM   12  C13   D T2346       2.458   1.711  11.770  1.00 38.58     0.057 A 
HETATM   13 CL     D T2346       1.284   2.685  10.948  1.00 39.67    -0.083 Cl
HETATM   14  C3    D T2346       3.442   1.180  10.922  1.00 38.18     0.013 A 
HETATM   15  C2    D T2346       4.443   0.362  11.413  1.00 37.72     0.031 A 
HETATM   16  C12   D T2346       4.445   0.093  12.764  1.00 38.63     0.150 A 
HETATM   17  F     D T2346       5.409  -0.689  13.231  1.00 38.40    -0.203 F 
HETATM   18  C18   D T2346       3.483   0.616  13.641  1.00 40.35     0.084 A 
HETATM   19 CL2    D T2346       3.661   0.141  15.299  1.00 48.02    -0.080 Cl
ENDBRANCH   9  11
ENDBRANCH   8   9
ENDBRANCH   1   8
BRANCH   7  20
HETATM   20  C16   D T2346      -1.140  -2.431  16.516  1.00 45.17     0.042 A 
HETATM   21  C6    D T2346       0.041  -3.188  16.721  1.00 46.03     0.122 A 
HETATM   22  N24   D T2346      -0.175  -4.341  17.364  1.00 47.73    -0.164 NA
HETATM   23  N26   D T2346      -1.512  -4.351  17.569  1.00 49.42    -0.236 N 
HETATM   24  C7    D T2346      -2.115  -3.239  17.069  1.00 47.26     0.101 A 
BRANCH  23  25
HETATM   25  C20   D T2346      -2.166  -5.463  18.265  1.00 52.42     0.042 C 
HETATM   26  C8    D T2346      -1.654  -5.791  19.681  1.00 53.67     0.067 C 
HETATM   27  C10   D T2346      -2.485  -5.284  20.862  1.00 56.13     0.126 C 
HETATM   28  N25   D T2346      -3.962  -5.374  20.605  1.00 56.98    -0.295 NA
HETATM   29  C11   D T2346      -4.437  -4.811  19.301  1.00 56.01     0.126 C 
HETATM   30  C9    D T2346      -3.701  -5.481  18.142  1.00 54.43     0.067 C 
ENDBRANCH  23  25
ENDBRANCH   7  20
TORSDOF 5
ENDMDL
MODEL 8
REMARK VINA RESULT:    -7.299      5.434      9.321
REMARK INTER + INTRA:         -10.310
REMARK INTER:                 -10.343
REMARK INTRA:                   0.033
REMARK UNBOUND:                -0.877
REMARK  5 active torsions:
REMARK  status: ('A' for Active; 'I' for Inactive)
REMARK    1  A    between atoms: C17_7  and  C21_10 
REMARK    2  A    between atoms: C21_10  and  O27_12 
REMARK    3  A    between atoms: O27_12  and  C15_13 
REMARK    4  A    between atoms: C14_19  and  C16_20 
REMARK    5  A    between atoms: N26_23  and  C20_25 
ROOT
HETATM    1  C15   D T2346       0.463   4.357  11.929  1.00 39.29     0.125 A 
HETATM    2  C4    D T2346       1.347   3.261  11.822  1.00 40.72     0.029 A 
HETATM    3  C19   D T2346       0.645   5.397  11.004  1.00 38.96     0.173 A 
HETATM    4  N22   D T2346      -0.182   6.525  11.043  1.00 36.18    -0.078 NA
HETATM    5  N23   D T2346       1.596   5.378  10.037  1.00 39.65    -0.228 NA
HETATM    6  C5    D T2346       2.416   4.307   9.969  1.00 40.33     0.100 A 
HETATM    7  C14   D T2346       2.349   3.214  10.825  1.00 42.26     0.024 A 
ENDROOT
BRANCH   1   8
HETATM    8  O27   D T2346      -0.572   4.562  12.821  1.00 39.48    -0.326 OA
BRANCH   8   9
HETATM    9  C21   D T2346      -1.972   4.324  12.552  1.00 39.13     0.145 C 
HETATM   10  C1    D T2346      -2.721   5.592  12.948  1.00 39.28     0.038 C 
BRANCH   9  11
HETATM   11  C17   D T2346      -2.500   3.081  13.281  1.00 39.21     0.029 A 
HETATM   12  C13   D T2346      -1.757   2.453  14.315  1.00 38.58     0.057 A 
HETATM   13 CL     D T2346      -0.191   2.976  14.844  1.00 39.67    -0.083 Cl
HETATM   14  C3    D T2346      -2.235   1.326  14.999  1.00 38.18     0.013 A 
HETATM   15  C2    D T2346      -3.459   0.765  14.686  1.00 37.72     0.031 A 
HETATM   16  C12   D T2346      -4.196   1.357  13.684  1.00 38.63     0.150 A 
HETATM   17  F     D T2346      -5.372   0.820  13.389  1.00 38.40    -0.203 F 
HETATM   18  C18   D T2346      -3.753   2.492  12.988  1.00 40.35     0.084 A 
HETATM   19 CL2    D T2346      -4.828   3.068  11.756  1.00 48.02    -0.080 Cl
ENDBRANCH   9  11
ENDBRANCH   8   9
ENDBRANCH   1   8
BRANCH   7  20
HETATM   20  C16   D T2346       3.309   2.125  10.674  1.00 45.17     0.042 A 
HETATM   21  C6    D T2346       3.172   0.715  10.643  1.00 46.03     0.122 A 
HETATM   22  N24   D T2346       4.338   0.073  10.517  1.00 47.73    -0.164 NA
HETATM   23  N26   D T2346       5.253   1.069  10.481  1.00 49.42    -0.236 N 
HETATM   24  C7    D T2346       4.677   2.297  10.583  1.00 47.26     0.101 A 
BRANCH  23  25
HETATM   25  C20   D T2346       6.683   0.783  10.340  1.00 52.42     0.042 C 
HETATM   26  C8    D T2346       7.069  -0.370   9.393  1.00 53.67     0.067 C 
HETATM   27  C10   D T2346       7.566   0.007   7.996  1.00 56.13     0.126 C 
HETATM   28  N25   D T2346       8.433   1.233   8.006  1.00 56.98    -0.295 NA
HETATM   29  C11   D T2346       7.887   2.416   8.746  1.00 56.01     0.126 C 
HETATM   30  C9    D T2346       7.574   2.031  10.191  1.00 54.43     0.067 C 
ENDBRANCH  23  25
ENDBRANCH   7  20
TORSDOF 5
ENDMDL
MODEL 9
REMARK VINA RESULT:    -7.097      5.384     10.825
REMARK INTER + INTRA:         -10.049
REMARK INTER:                  -9.276
REMARK INTRA:                  -0.773
REMARK UNBOUND:                -0.877
REMARK  5 active torsions:
REMARK  status: ('A' for Active; 'I' for Inactive)
REMARK    1  A    between atoms: C17_7  and  C21_10 
REMARK    2  A    between atoms: C21_10  and  O27_12 
REMARK    3  A    between atoms: O27_12  and  C15_13 
REMARK    4  A    between atoms: C14_19  and  C16_20 
REMARK    5  A    between atoms: N26_23  and  C20_25 
ROOT
HETATM    1  C15   D T2346       2.123   1.718  12.827  1.00 39.29     0.125 A 
HETATM    2  C4    D T2346       2.631   2.339  11.665  1.00 40.72     0.029 A 
HETATM    3  C19   D T2346       3.057   1.060  13.642  1.00 38.96     0.173 A 
HETATM    4  N22   D T2346       2.638   0.411  14.809  1.00 36.18    -0.078 NA
HETATM    5  N23   D T2346       4.385   1.015  13.369  1.00 39.65    -0.228 NA
HETATM    6  C5    D T2346       4.827   1.627  12.250  1.00 40.33     0.100 A 
HETATM    7  C14   D T2346       4.011   2.308  11.354  1.00 42.26     0.024 A 
ENDROOT
BRANCH   1   8
HETATM    8  O27   D T2346       0.822   1.661  13.291  1.00 39.48    -0.326 OA
BRANCH   8   9
HETATM    9  C21   D T2346       0.005   2.801  13.640  1.00 39.13     0.145 C 
HETATM   10  C1    D T2346       0.669   3.472  14.837  1.00 39.28     0.038 C 
BRANCH   9  11
HETATM   11  C17   D T2346      -1.451   2.407  13.924  1.00 39.21     0.029 A 
HETATM   12  C13   D T2346      -2.539   3.116  13.349  1.00 38.58     0.057 A 
HETATM   13 CL     D T2346      -2.364   4.495  12.313  1.00 39.67    -0.083 Cl
HETATM   14  C3    D T2346      -3.874   2.757  13.589  1.00 38.18     0.013 A 
HETATM   15  C2    D T2346      -4.191   1.693  14.413  1.00 37.72     0.031 A 
HETATM   16  C12   D T2346      -3.151   0.992  14.982  1.00 38.63     0.150 A 
HETATM   17  F     D T2346      -3.459  -0.030  15.768  1.00 38.40    -0.203 F 
HETATM   18  C18   D T2346      -1.805   1.317  14.755  1.00 40.35     0.084 A 
HETATM   19 CL2    D T2346      -0.655   0.316  15.580  1.00 48.02    -0.080 Cl
ENDBRANCH   9  11
ENDBRANCH   8   9
ENDBRANCH   1   8
BRANCH   7  20
HETATM   20  C16   D T2346       4.598   2.907  10.160  1.00 45.17     0.042 A 
HETATM   21  C6    D T2346       5.921   2.951   9.653  1.00 46.03     0.122 A 
HETATM   22  N24   D T2346       6.028   3.649   8.518  1.00 47.73    -0.164 NA
HETATM   23  N26   D T2346       4.769   4.083   8.284  1.00 49.42    -0.236 N 
HETATM   24  C7    D T2346       3.899   3.670   9.245  1.00 47.26     0.101 A 
BRANCH  23  25
HETATM   25  C20   D T2346       4.450   4.895   7.107  1.00 52.42     0.042 C 
HETATM   26  C8    D T2346       4.028   6.355   7.366  1.00 53.67     0.067 C 
HETATM   27  C10   D T2346       5.084   7.439   7.147  1.00 56.13     0.126 C 
HETATM   28  N25   D T2346       5.960   7.156   5.959  1.00 56.98    -0.295 NA
HETATM   29  C11   D T2346       6.546   5.779   5.889  1.00 56.01     0.126 C 
HETATM   30  C9    D T2346       5.432   4.734   5.931  1.00 54.43     0.067 C 
ENDBRANCH  23  25
ENDBRANCH   7  20
TORSDOF 5
ENDMDL
