MODEL 1
REMARK VINA RESULT:    -7.276      0.000      0.000
REMARK INTER + INTRA:          -8.675
REMARK INTER:                  -8.127
REMARK INTRA:                  -0.548
REMARK UNBOUND:                -0.548
REMARK  2 active torsions:
REMARK  status: ('A' for Active; 'I' for Inactive)
REMARK    1  A    between atoms: C5_4  and  O7_13 
REMARK    2  A    between atoms: C8_10  and  O7_13 
ROOT
HETATM    1  O7    D T1261       5.154   1.125  -7.488  1.00 16.95    -0.304 OA
ENDROOT
BRANCH   1   2
HETATM    2  C5    D T1261       5.179   1.269  -8.826  1.00 15.27     0.125 A 
HETATM    3  C6    D T1261       6.386   1.894  -9.394  1.00 15.82     0.154 A 
HETATM    4  C1    D T1261       6.460   2.064 -10.760  1.00 14.72     0.041 A 
HETATM    5  O17   D T1261       7.394   2.254  -8.546  1.00 15.23    -0.188 OA
HETATM    6  C2    D T1261       5.392   1.660 -11.551  1.00 16.50     0.060 A 
HETATM    7  C3    D T1261       4.234   1.084 -11.012  1.00 16.38     0.014 A 
HETATM    8 CL14   D T1261       5.494   1.910 -13.311  1.00 19.41    -0.082 Cl
HETATM    9  C4    D T1261       4.125   0.877  -9.632  1.00 16.96     0.028 A 
ENDBRANCH   1   2
BRANCH   1  10
HETATM   10  C8    D T1261       4.279   1.872  -6.805  1.00 18.40     0.111 A 
HETATM   11  C9    D T1261       3.231   1.137  -6.104  1.00 19.92     0.081 A 
HETATM   12  C10   D T1261       2.266   1.823  -5.409  1.00 20.74     0.025 A 
HETATM   13 CL16   D T1261       3.201  -0.634  -6.208  1.00 19.84    -0.080 Cl
HETATM   14  C11   D T1261       2.342   3.194  -5.395  1.00 22.72     0.059 A 
HETATM   15  C12   D T1261       3.341   3.920  -6.046  1.00 20.86     0.013 A 
HETATM   16 CL15   D T1261       1.079   4.023  -4.472  1.00 25.68    -0.082 Cl
HETATM   17  C13   D T1261       4.316   3.270  -6.767  1.00 20.39     0.026 A 
ENDBRANCH   1  10
TORSDOF 2
ENDMDL
MODEL 2
REMARK VINA RESULT:    -7.269      1.661      6.007
REMARK INTER + INTRA:          -8.667
REMARK INTER:                  -8.119
REMARK INTRA:                  -0.548
REMARK UNBOUND:                -0.548
REMARK  2 active torsions:
REMARK  status: ('A' for Active; 'I' for Inactive)
REMARK    1  A    between atoms: C5_4  and  O7_13 
REMARK    2  A    between atoms: C8_10  and  O7_13 
ROOT
HETATM    1  O7    D T1261       5.747   1.668  -7.055  1.00 16.95    -0.304 OA
ENDROOT
BRANCH   1   2
HETATM    2  C5    D T1261       4.682   2.226  -6.450  1.00 15.27     0.125 A 
HETATM    3  C6    D T1261       3.882   1.339  -5.587  1.00 15.82     0.154 A 
HETATM    4  C1    D T1261       2.781   1.863  -4.944  1.00 14.72     0.041 A 
HETATM    5  O17   D T1261       4.280   0.041  -5.438  1.00 15.23    -0.188 OA
HETATM    6  C2    D T1261       2.452   3.198  -5.144  1.00 16.50     0.060 A 
HETATM    7  C3    D T1261       3.199   4.038  -5.980  1.00 16.38     0.014 A 
HETATM    8 CL14   D T1261       1.011   3.851  -4.326  1.00 19.41    -0.082 Cl
HETATM    9  C4    D T1261       4.334   3.552  -6.638  1.00 16.96     0.028 A 
ENDBRANCH   1   2
BRANCH   1  10
HETATM   10  C8    D T1261       5.730   1.601  -8.391  1.00 18.40     0.111 A 
HETATM   11  C9    D T1261       6.707   2.438  -9.080  1.00 19.92     0.081 A 
HETATM   12  C10   D T1261       6.736   2.464 -10.452  1.00 20.74     0.025 A 
HETATM   13 CL16   D T1261       7.808   3.447  -8.121  1.00 19.84    -0.080 Cl
HETATM   14  C11   D T1261       5.837   1.674 -11.125  1.00 22.72     0.059 A 
HETATM   15  C12   D T1261       4.902   0.854 -10.491  1.00 20.86     0.013 A 
HETATM   16 CL15   D T1261       5.931   1.737 -12.892  1.00 25.68    -0.082 Cl
HETATM   17  C13   D T1261       4.829   0.814  -9.117  1.00 20.39     0.026 A 
ENDBRANCH   1  10
TORSDOF 2
ENDMDL
MODEL 3
REMARK VINA RESULT:    -7.225      1.298      5.841
REMARK INTER + INTRA:          -8.618
REMARK INTER:                  -8.430
REMARK INTRA:                  -0.188
REMARK UNBOUND:                -0.548
REMARK  2 active torsions:
REMARK  status: ('A' for Active; 'I' for Inactive)
REMARK    1  A    between atoms: C5_4  and  O7_13 
REMARK    2  A    between atoms: C8_10  and  O7_13 
ROOT
HETATM    1  O7    D T1261       4.451   0.662  -7.822  1.00 16.95    -0.304 OA
ENDROOT
BRANCH   1   2
HETATM    2  C5    D T1261       3.742   1.535  -7.081  1.00 15.27     0.125 A 
HETATM    3  C6    D T1261       2.858   0.955  -6.055  1.00 15.82     0.154 A 
HETATM    4  C1    D T1261       2.112   1.807  -5.270  1.00 14.72     0.041 A 
HETATM    5  O17   D T1261       2.836  -0.402  -5.904  1.00 15.23    -0.188 OA
HETATM    6  C2    D T1261       2.201   3.177  -5.484  1.00 16.50     0.060 A 
HETATM    7  C3    D T1261       3.025   3.731  -6.473  1.00 16.38     0.014 A 
HETATM    8 CL14   D T1261       1.210   4.262  -4.478  1.00 19.41    -0.082 Cl
HETATM    9  C4    D T1261       3.813   2.902  -7.280  1.00 16.96     0.028 A 
ENDBRANCH   1   2
BRANCH   1  10
HETATM   10  C8    D T1261       4.778   1.033  -9.064  1.00 18.40     0.111 A 
HETATM   11  C9    D T1261       3.742   0.844 -10.075  1.00 19.92     0.081 A 
HETATM   12  C10   D T1261       4.002   1.161 -11.385  1.00 20.74     0.025 A 
HETATM   13 CL16   D T1261       2.178   0.161  -9.590  1.00 19.84    -0.080 Cl
HETATM   14  C11   D T1261       5.244   1.663 -11.687  1.00 22.72     0.059 A 
HETATM   15  C12   D T1261       6.247   1.865 -10.738  1.00 20.86     0.013 A 
HETATM   16 CL15   D T1261       5.517   2.065 -13.389  1.00 25.68    -0.082 Cl
HETATM   17  C13   D T1261       6.032   1.544  -9.417  1.00 20.39     0.026 A 
ENDBRANCH   1  10
TORSDOF 2
ENDMDL
MODEL 4
REMARK VINA RESULT:    -7.055      2.201      6.031
REMARK INTER + INTRA:          -8.428
REMARK INTER:                  -7.914
REMARK INTRA:                  -0.514
REMARK UNBOUND:                -0.548
REMARK  2 active torsions:
REMARK  status: ('A' for Active; 'I' for Inactive)
REMARK    1  A    between atoms: C5_4  and  O7_13 
REMARK    2  A    between atoms: C8_10  and  O7_13 
ROOT
HETATM    1  O7    D T1261       4.876   3.716  -7.759  1.00 16.95    -0.304 OA
ENDROOT
BRANCH   1   2
HETATM    2  C5    D T1261       4.433   2.866  -6.813  1.00 15.27     0.125 A 
HETATM    3  C6    D T1261       3.148   3.207  -6.178  1.00 15.82     0.154 A 
HETATM    4  C1    D T1261       2.651   2.368  -5.204  1.00 14.72     0.041 A 
HETATM    5  O17   D T1261       2.488   4.325  -6.601  1.00 15.23    -0.188 OA
HETATM    6  C2    D T1261       3.384   1.245  -4.840  1.00 16.50     0.060 A 
HETATM    7  C3    D T1261       4.616   0.929  -5.427  1.00 16.38     0.014 A 
HETATM    8 CL14   D T1261       2.739   0.186  -3.561  1.00 19.41    -0.082 Cl
HETATM    9  C4    D T1261       5.148   1.745  -6.433  1.00 16.96     0.028 A 
ENDBRANCH   1   2
BRANCH   1  10
HETATM   10  C8    D T1261       4.920   3.266  -9.017  1.00 18.40     0.111 A 
HETATM   11  C9    D T1261       6.253   3.004  -9.550  1.00 19.92     0.081 A 
HETATM   12  C10   D T1261       6.397   2.577 -10.847  1.00 20.74     0.025 A 
HETATM   13 CL16   D T1261       7.667   3.291  -8.517  1.00 19.84    -0.080 Cl
HETATM   14  C11   D T1261       5.257   2.400 -11.592  1.00 22.72     0.059 A 
HETATM   15  C12   D T1261       3.970   2.632 -11.102  1.00 20.86     0.013 A 
HETATM   16 CL15   D T1261       5.504   1.836 -13.252  1.00 25.68    -0.082 Cl
HETATM   17  C13   D T1261       3.785   3.077  -9.813  1.00 20.39     0.026 A 
ENDBRANCH   1  10
TORSDOF 2
ENDMDL
MODEL 5
REMARK VINA RESULT:    -7.004      1.925      2.238
REMARK INTER + INTRA:          -8.371
REMARK INTER:                  -7.886
REMARK INTRA:                  -0.485
REMARK UNBOUND:                -0.548
REMARK  2 active torsions:
REMARK  status: ('A' for Active; 'I' for Inactive)
REMARK    1  A    between atoms: C5_4  and  O7_13 
REMARK    2  A    between atoms: C8_10  and  O7_13 
ROOT
HETATM    1  O7    D T1261       2.913   1.599  -8.267  1.00 16.95    -0.304 OA
ENDROOT
BRANCH   1   2
HETATM    2  C5    D T1261       3.704   1.599  -9.358  1.00 15.27     0.125 A 
HETATM    3  C6    D T1261       3.387   2.598 -10.394  1.00 15.82     0.154 A 
HETATM    4  C1    D T1261       4.168   2.639 -11.529  1.00 14.72     0.041 A 
HETATM    5  O17   D T1261       2.352   3.461 -10.174  1.00 15.23    -0.188 OA
HETATM    6  C2    D T1261       5.209   1.729 -11.668  1.00 16.50     0.060 A 
HETATM    7  C3    D T1261       5.499   0.765 -10.694  1.00 16.38     0.014 A 
HETATM    8 CL14   D T1261       6.190   1.779 -13.153  1.00 19.41    -0.082 Cl
HETATM    9  C4    D T1261       4.743   0.700  -9.518  1.00 16.96     0.028 A 
ENDBRANCH   1   2
BRANCH   1  10
HETATM   10  C8    D T1261       3.421   2.110  -7.140  1.00 18.40     0.111 A 
HETATM   11  C9    D T1261       3.513   1.188  -6.012  1.00 19.92     0.081 A 
HETATM   12  C10   D T1261       3.985   1.634  -4.803  1.00 20.74     0.025 A 
HETATM   13 CL16   D T1261       2.963  -0.487  -6.220  1.00 19.84    -0.080 Cl
HETATM   14  C11   D T1261       4.369   2.949  -4.714  1.00 22.72     0.059 A 
HETATM   15  C12   D T1261       4.303   3.848  -5.780  1.00 20.86     0.013 A 
HETATM   16 CL15   D T1261       4.982   3.464  -3.135  1.00 25.68    -0.082 Cl
HETATM   17  C13   D T1261       3.820   3.444  -7.003  1.00 20.39     0.026 A 
ENDBRANCH   1  10
TORSDOF 2
ENDMDL
MODEL 6
REMARK VINA RESULT:    -6.936      1.597      2.404
REMARK INTER + INTRA:          -8.296
REMARK INTER:                  -7.771
REMARK INTRA:                  -0.525
REMARK UNBOUND:                -0.548
REMARK  2 active torsions:
REMARK  status: ('A' for Active; 'I' for Inactive)
REMARK    1  A    between atoms: C5_4  and  O7_13 
REMARK    2  A    between atoms: C8_10  and  O7_13 
ROOT
HETATM    1  O7    D T1261       4.592   3.663  -7.368  1.00 16.95    -0.304 OA
ENDROOT
BRANCH   1   2
HETATM    2  C5    D T1261       4.677   3.247  -8.646  1.00 15.27     0.125 A 
HETATM    3  C6    D T1261       6.036   3.102  -9.196  1.00 15.82     0.154 A 
HETATM    4  C1    D T1261       6.176   2.679 -10.501  1.00 14.72     0.041 A 
HETATM    5  O17   D T1261       7.101   3.366  -8.384  1.00 15.23    -0.188 OA
HETATM    6  C2    D T1261       5.038   2.423 -11.255  1.00 16.50     0.060 A 
HETATM    7  C3    D T1261       3.744   2.580 -10.741  1.00 16.38     0.014 A 
HETATM    8 CL14   D T1261       5.237   1.902 -12.946  1.00 19.41    -0.082 Cl
HETATM    9  C4    D T1261       3.557   2.991  -9.416  1.00 16.96     0.028 A 
ENDBRANCH   1   2
BRANCH   1  10
HETATM   10  C8    D T1261       4.207   2.766  -6.453  1.00 18.40     0.111 A 
HETATM   11  C9    D T1261       2.988   3.093  -5.720  1.00 19.92     0.081 A 
HETATM   12  C10   D T1261       2.539   2.249  -4.735  1.00 20.74     0.025 A 
HETATM   13 CL16   D T1261       2.138   4.606  -6.089  1.00 19.84    -0.080 Cl
HETATM   14  C11   D T1261       3.263   1.109  -4.491  1.00 22.72     0.059 A 
HETATM   15  C12   D T1261       4.424   0.766  -5.186  1.00 20.86     0.013 A 
HETATM   16 CL15   D T1261       2.628   0.053  -3.219  1.00 25.68    -0.082 Cl
HETATM   17  C13   D T1261       4.917   1.595  -6.169  1.00 20.39     0.026 A 
ENDBRANCH   1  10
TORSDOF 2
ENDMDL
MODEL 7
REMARK VINA RESULT:    -6.749      2.481      6.012
REMARK INTER + INTRA:          -8.086
REMARK INTER:                  -7.549
REMARK INTRA:                  -0.537
REMARK UNBOUND:                -0.548
REMARK  2 active torsions:
REMARK  status: ('A' for Active; 'I' for Inactive)
REMARK    1  A    between atoms: C5_4  and  O7_13 
REMARK    2  A    between atoms: C8_10  and  O7_13 
ROOT
HETATM    1  O7    D T1261       2.583   2.538  -6.864  1.00 16.95    -0.304 OA
ENDROOT
BRANCH   1   2
HETATM    2  C5    D T1261       3.184   2.941  -5.728  1.00 15.27     0.125 A 
HETATM    3  C6    D T1261       2.815   4.279  -5.234  1.00 15.82     0.154 A 
HETATM    4  C1    D T1261       3.402   4.738  -4.074  1.00 14.72     0.041 A 
HETATM    5  O17   D T1261       1.887   4.999  -5.929  1.00 15.23    -0.188 OA
HETATM    6  C2    D T1261       4.331   3.936  -3.423  1.00 16.50     0.060 A 
HETATM    7  C3    D T1261       4.699   2.671  -3.902  1.00 16.38     0.014 A 
HETATM    8 CL14   D T1261       5.099   4.554  -1.940  1.00 19.41    -0.082 Cl
HETATM    9  C4    D T1261       4.114   2.160  -5.066  1.00 16.96     0.028 A 
ENDBRANCH   1   2
BRANCH   1  10
HETATM   10  C8    D T1261       3.369   2.266  -7.912  1.00 18.40     0.111 A 
HETATM   11  C9    D T1261       3.351   0.883  -8.375  1.00 19.92     0.081 A 
HETATM   12  C10   D T1261       4.155   0.503  -9.420  1.00 20.74     0.025 A 
HETATM   13 CL16   D T1261       2.317  -0.294  -7.539  1.00 19.84    -0.080 Cl
HETATM   14  C11   D T1261       4.944   1.464 -10.001  1.00 22.72     0.059 A 
HETATM   15  C12   D T1261       4.971   2.797  -9.586  1.00 20.86     0.013 A 
HETATM   16 CL15   D T1261       5.950   0.919 -11.353  1.00 25.68    -0.082 Cl
HETATM   17  C13   D T1261       4.192   3.213  -8.531  1.00 20.39     0.026 A 
ENDBRANCH   1  10
TORSDOF 2
ENDMDL
MODEL 8
REMARK VINA RESULT:    -6.611      2.174      5.820
REMARK INTER + INTRA:          -7.932
REMARK INTER:                  -7.436
REMARK INTRA:                  -0.497
REMARK UNBOUND:                -0.548
REMARK  2 active torsions:
REMARK  status: ('A' for Active; 'I' for Inactive)
REMARK    1  A    between atoms: C5_4  and  O7_13 
REMARK    2  A    between atoms: C8_10  and  O7_13 
ROOT
HETATM    1  O7    D T1261       4.527   3.636  -7.260  1.00 16.95    -0.304 OA
ENDROOT
BRANCH   1   2
HETATM    2  C5    D T1261       4.022   2.779  -6.352  1.00 15.27     0.125 A 
HETATM    3  C6    D T1261       4.904   2.426  -5.226  1.00 15.82     0.154 A 
HETATM    4  C1    D T1261       4.433   1.552  -4.269  1.00 14.72     0.041 A 
HETATM    5  O17   D T1261       6.141   3.000  -5.161  1.00 15.23    -0.188 OA
HETATM    6  C2    D T1261       3.157   1.021  -4.408  1.00 16.50     0.060 A 
HETATM    7  C3    D T1261       2.324   1.339  -5.488  1.00 16.38     0.014 A 
HETATM    8 CL14   D T1261       2.574  -0.126  -3.176  1.00 19.41    -0.082 Cl
HETATM    9  C4    D T1261       2.756   2.235  -6.473  1.00 16.96     0.028 A 
ENDBRANCH   1   2
BRANCH   1  10
HETATM   10  C8    D T1261       4.806   3.151  -8.475  1.00 18.40     0.111 A 
HETATM   11  C9    D T1261       3.882   3.535  -9.537  1.00 19.92     0.081 A 
HETATM   12  C10   D T1261       4.067   3.052 -10.809  1.00 20.74     0.025 A 
HETATM   13 CL16   D T1261       2.505   4.584  -9.146  1.00 19.84    -0.080 Cl
HETATM   14  C11   D T1261       5.141   2.227 -11.029  1.00 22.72     0.059 A 
HETATM   15  C12   D T1261       6.047   1.854 -10.034  1.00 20.86     0.013 A 
HETATM   16 CL15   D T1261       5.336   1.647 -12.691  1.00 25.68    -0.082 Cl
HETATM   17  C13   D T1261       5.886   2.303  -8.743  1.00 20.39     0.026 A 
ENDBRANCH   1  10
TORSDOF 2
ENDMDL
MODEL 9
REMARK VINA RESULT:    -6.590      1.825      2.905
REMARK INTER + INTRA:          -7.910
REMARK INTER:                  -7.801
REMARK INTRA:                  -0.109
REMARK UNBOUND:                -0.548
REMARK  2 active torsions:
REMARK  status: ('A' for Active; 'I' for Inactive)
REMARK    1  A    between atoms: C5_4  and  O7_13 
REMARK    2  A    between atoms: C8_10  and  O7_13 
ROOT
HETATM    1  O7    D T1261       4.491   3.668  -7.992  1.00 16.95    -0.304 OA
ENDROOT
BRANCH   1   2
HETATM    2  C5    D T1261       4.866   3.223  -9.207  1.00 15.27     0.125 A 
HETATM    3  C6    D T1261       3.818   3.190 -10.243  1.00 15.82     0.154 A 
HETATM    4  C1    D T1261       4.152   2.743 -11.503  1.00 14.72     0.041 A 
HETATM    5  O17   D T1261       2.567   3.630  -9.919  1.00 15.23    -0.188 OA
HETATM    6  C2    D T1261       5.453   2.322 -11.749  1.00 16.50     0.060 A 
HETATM    7  C3    D T1261       6.446   2.333 -10.761  1.00 16.38     0.014 A 
HETATM    8 CL14   D T1261       5.860   1.724 -13.376  1.00 19.41    -0.082 Cl
HETATM    9  C4    D T1261       6.155   2.796  -9.472  1.00 16.96     0.028 A 
ENDBRANCH   1   2
BRANCH   1  10
HETATM   10  C8    D T1261       4.193   2.750  -7.066  1.00 18.40     0.111 A 
HETATM   11  C9    D T1261       3.065   3.069  -6.198  1.00 19.92     0.081 A 
HETATM   12  C10   D T1261       2.711   2.203  -5.193  1.00 20.74     0.025 A 
HETATM   13 CL16   D T1261       2.202   4.602  -6.432  1.00 19.84    -0.080 Cl
HETATM   14  C11   D T1261       3.441   1.048  -5.059  1.00 22.72     0.059 A 
HETATM   15  C12   D T1261       4.517   0.713  -5.884  1.00 20.86     0.013 A 
HETATM   16 CL15   D T1261       2.931  -0.036  -3.755  1.00 25.68    -0.082 Cl
HETATM   17  C13   D T1261       4.913   1.563  -6.891  1.00 20.39     0.026 A 
ENDBRANCH   1  10
TORSDOF 2
ENDMDL
