MODEL 1
REMARK VINA RESULT:    -8.123      0.000      0.000
REMARK INTER + INTRA:          -9.312
REMARK INTER:                  -9.072
REMARK INTRA:                  -0.239
REMARK UNBOUND:                -0.239
REMARK  2 active torsions:
REMARK  status: ('A' for Active; 'I' for Inactive)
REMARK    1  A    between atoms: C5_4  and  O7_13 
REMARK    2  A    between atoms: C8_10  and  O7_13 
ROOT
HETATM    1  O7    D T1261      21.480   8.666  23.266  1.00 16.95    -0.304 OA
ENDROOT
BRANCH   1   2
HETATM    2  C5    D T1261      21.940   7.542  22.684  1.00 15.27     0.125 A 
HETATM    3  C6    D T1261      21.280   6.285  23.080  1.00 15.82     0.154 A 
HETATM    4  C1    D T1261      21.715   5.107  22.511  1.00 14.72     0.041 A 
HETATM    5  O17   D T1261      20.248   6.342  23.971  1.00 15.23    -0.188 OA
HETATM    6  C2    D T1261      22.768   5.140  21.605  1.00 16.50     0.060 A 
HETATM    7  C3    D T1261      23.410   6.331  21.244  1.00 16.38     0.014 A 
HETATM    8 CL14   D T1261      23.333   3.604  20.901  1.00 19.41    -0.082 Cl
HETATM    9  C4    D T1261      22.989   7.552  21.783  1.00 16.96     0.028 A 
ENDBRANCH   1   2
BRANCH   1  10
HETATM   10  C8    D T1261      22.365   9.639  23.511  1.00 18.40     0.111 A 
HETATM   11  C9    D T1261      23.109   9.520  24.761  1.00 19.92     0.081 A 
HETATM   12  C10   D T1261      24.010  10.494  25.114  1.00 20.74     0.025 A 
HETATM   13 CL16   D T1261      22.793   8.135  25.824  1.00 19.84    -0.080 Cl
HETATM   14  C11   D T1261      24.183  11.547  24.251  1.00 22.72     0.059 A 
HETATM   15  C12   D T1261      23.493  11.678  23.043  1.00 20.86     0.013 A 
HETATM   16 CL15   D T1261      25.367  12.764  24.752  1.00 25.68    -0.082 Cl
HETATM   17  C13   D T1261      22.570  10.733  22.662  1.00 20.39     0.026 A 
ENDBRANCH   1  10
TORSDOF 2
ENDMDL
MODEL 2
REMARK VINA RESULT:    -7.928      1.107      5.645
REMARK INTER + INTRA:          -9.094
REMARK INTER:                  -8.916
REMARK INTRA:                  -0.178
REMARK UNBOUND:                -0.239
REMARK  2 active torsions:
REMARK  status: ('A' for Active; 'I' for Inactive)
REMARK    1  A    between atoms: C5_4  and  O7_13 
REMARK    2  A    between atoms: C8_10  and  O7_13 
ROOT
HETATM    1  O7    D T1261      21.589   8.740  23.160  1.00 16.95    -0.304 OA
ENDROOT
BRANCH   1   2
HETATM    2  C5    D T1261      22.462   9.709  23.496  1.00 15.27     0.125 A 
HETATM    3  C6    D T1261      23.220   9.501  24.744  1.00 15.82     0.154 A 
HETATM    4  C1    D T1261      24.126  10.464  25.130  1.00 14.72     0.041 A 
HETATM    5  O17   D T1261      23.013   8.350  25.449  1.00 15.23    -0.188 OA
HETATM    6  C2    D T1261      24.281  11.602  24.349  1.00 16.50     0.060 A 
HETATM    7  C3    D T1261      23.547  11.811  23.174  1.00 16.38     0.014 A 
HETATM    8 CL14   D T1261      25.439  12.848  24.879  1.00 19.41    -0.082 Cl
HETATM    9  C4    D T1261      22.629  10.850  22.735  1.00 16.96     0.028 A 
ENDBRANCH   1   2
BRANCH   1  10
HETATM   10  C8    D T1261      22.078   7.655  22.551  1.00 18.40     0.111 A 
HETATM   11  C9    D T1261      21.523   6.378  22.988  1.00 19.92     0.081 A 
HETATM   12  C10   D T1261      21.994   5.208  22.445  1.00 20.74     0.025 A 
HETATM   13 CL16   D T1261      20.278   6.366  24.253  1.00 19.84    -0.080 Cl
HETATM   14  C11   D T1261      22.974   5.297  21.488  1.00 22.72     0.059 A 
HETATM   15  C12   D T1261      23.513   6.506  21.044  1.00 20.86     0.013 A 
HETATM   16 CL15   D T1261      23.532   3.757  20.816  1.00 25.68    -0.082 Cl
HETATM   17  C13   D T1261      23.080   7.699  21.574  1.00 20.39     0.026 A 
ENDBRANCH   1  10
TORSDOF 2
ENDMDL
MODEL 3
REMARK VINA RESULT:    -7.622      9.242     12.266
REMARK INTER + INTRA:          -8.752
REMARK INTER:                  -8.273
REMARK INTRA:                  -0.479
REMARK UNBOUND:                -0.239
REMARK  2 active torsions:
REMARK  status: ('A' for Active; 'I' for Inactive)
REMARK    1  A    between atoms: C5_4  and  O7_13 
REMARK    2  A    between atoms: C8_10  and  O7_13 
ROOT
HETATM    1  O7    D T1261      19.891   2.794  13.265  1.00 16.95    -0.304 OA
ENDROOT
BRANCH   1   2
HETATM    2  C5    D T1261      20.523   2.784  14.454  1.00 15.27     0.125 A 
HETATM    3  C6    D T1261      21.657   1.850  14.583  1.00 15.82     0.154 A 
HETATM    4  C1    D T1261      22.336   1.803  15.781  1.00 14.72     0.041 A 
HETATM    5  O17   D T1261      22.004   1.093  13.502  1.00 15.23    -0.188 OA
HETATM    6  C2    D T1261      21.921   2.615  16.828  1.00 16.50     0.060 A 
HETATM    7  C3    D T1261      20.831   3.487  16.715  1.00 16.38     0.014 A 
HETATM    8 CL14   D T1261      22.795   2.520  18.377  1.00 19.41    -0.082 Cl
HETATM    9  C4    D T1261      20.124   3.581  15.511  1.00 16.96     0.028 A 
ENDBRANCH   1   2
BRANCH   1  10
HETATM   10  C8    D T1261      18.564   2.629  13.272  1.00 18.40     0.111 A 
HETATM   11  C9    D T1261      17.781   3.766  12.798  1.00 19.92     0.081 A 
HETATM   12  C10   D T1261      16.410   3.701  12.806  1.00 20.74     0.025 A 
HETATM   13 CL16   D T1261      18.626   5.232  12.261  1.00 19.84    -0.080 Cl
HETATM   14  C11   D T1261      15.828   2.543  13.257  1.00 22.72     0.059 A 
HETATM   15  C12   D T1261      16.553   1.436  13.705  1.00 20.86     0.013 A 
HETATM   16 CL15   D T1261      14.058   2.512  13.233  1.00 25.68    -0.082 Cl
HETATM   17  C13   D T1261      17.929   1.468  13.728  1.00 20.39     0.026 A 
ENDBRANCH   1  10
TORSDOF 2
ENDMDL
MODEL 4
REMARK VINA RESULT:    -7.500      2.133      6.070
REMARK INTER + INTRA:          -8.616
REMARK INTER:                  -8.239
REMARK INTRA:                  -0.377
REMARK UNBOUND:                -0.239
REMARK  2 active torsions:
REMARK  status: ('A' for Active; 'I' for Inactive)
REMARK    1  A    between atoms: C5_4  and  O7_13 
REMARK    2  A    between atoms: C8_10  and  O7_13 
ROOT
HETATM    1  O7    D T1261      23.406   7.604  21.015  1.00 16.95    -0.304 OA
ENDROOT
BRANCH   1   2
HETATM    2  C5    D T1261      23.750   8.574  21.883  1.00 15.27     0.125 A 
HETATM    3  C6    D T1261      23.331   9.943  21.532  1.00 15.82     0.154 A 
HETATM    4  C1    D T1261      23.659  10.971  22.389  1.00 14.72     0.041 A 
HETATM    5  O17   D T1261      22.610  10.132  20.388  1.00 15.23    -0.188 OA
HETATM    6  C2    D T1261      24.388  10.689  23.538  1.00 16.50     0.060 A 
HETATM    7  C3    D T1261      24.806   9.392  23.863  1.00 16.38     0.014 A 
HETATM    8 CL14   D T1261      24.826  12.035  24.620  1.00 19.41    -0.082 Cl
HETATM    9  C4    D T1261      24.478   8.316  23.029  1.00 16.96     0.028 A 
ENDBRANCH   1   2
BRANCH   1  10
HETATM   10  C8    D T1261      22.353   6.843  21.329  1.00 18.40     0.111 A 
HETATM   11  C9    D T1261      22.592   5.403  21.342  1.00 19.92     0.081 A 
HETATM   12  C10   D T1261      21.559   4.542  21.615  1.00 20.74     0.025 A 
HETATM   13 CL16   D T1261      24.214   4.795  20.954  1.00 19.84    -0.080 Cl
HETATM   14  C11   D T1261      20.327   5.086  21.883  1.00 22.72     0.059 A 
HETATM   15  C12   D T1261      20.074   6.460  21.889  1.00 20.86     0.013 A 
HETATM   16 CL15   D T1261      19.037   3.928  22.240  1.00 25.68    -0.082 Cl
HETATM   17  C13   D T1261      21.079   7.355  21.603  1.00 20.39     0.026 A 
ENDBRANCH   1  10
TORSDOF 2
ENDMDL
MODEL 5
REMARK VINA RESULT:    -7.412      1.776      2.201
REMARK INTER + INTRA:          -8.518
REMARK INTER:                  -7.998
REMARK INTRA:                  -0.520
REMARK UNBOUND:                -0.239
REMARK  2 active torsions:
REMARK  status: ('A' for Active; 'I' for Inactive)
REMARK    1  A    between atoms: C5_4  and  O7_13 
REMARK    2  A    between atoms: C8_10  and  O7_13 
ROOT
HETATM    1  O7    D T1261      21.063   7.886  22.117  1.00 16.95    -0.304 OA
ENDROOT
BRANCH   1   2
HETATM    2  C5    D T1261      21.614   6.721  21.726  1.00 15.27     0.125 A 
HETATM    3  C6    D T1261      21.002   5.494  22.267  1.00 15.82     0.154 A 
HETATM    4  C1    D T1261      21.530   4.277  21.895  1.00 14.72     0.041 A 
HETATM    5  O17   D T1261      19.920   5.614  23.091  1.00 15.23    -0.188 OA
HETATM    6  C2    D T1261      22.628   4.246  21.045  1.00 16.50     0.060 A 
HETATM    7  C3    D T1261      23.225   5.411  20.546  1.00 16.38     0.014 A 
HETATM    8 CL14   D T1261      23.314   2.664  20.597  1.00 19.41    -0.082 Cl
HETATM    9  C4    D T1261      22.709   6.668  20.884  1.00 16.96     0.028 A 
ENDBRANCH   1   2
BRANCH   1  10
HETATM   10  C8    D T1261      21.843   8.742  22.786  1.00 18.40     0.111 A 
HETATM   11  C9    D T1261      22.251   9.936  22.052  1.00 19.92     0.081 A 
HETATM   12  C10   D T1261      23.084  10.851  22.645  1.00 20.74     0.025 A 
HETATM   13 CL16   D T1261      21.692  10.152  20.381  1.00 19.84    -0.080 Cl
HETATM   14  C11   D T1261      23.492  10.602  23.932  1.00 22.72     0.059 A 
HETATM   15  C12   D T1261      23.107   9.475  24.662  1.00 20.86     0.013 A 
HETATM   16 CL15   D T1261      24.554  11.823  24.650  1.00 25.68    -0.082 Cl
HETATM   17  C13   D T1261      22.287   8.526  24.096  1.00 20.39     0.026 A 
ENDBRANCH   1  10
TORSDOF 2
ENDMDL
MODEL 6
REMARK VINA RESULT:    -7.318      1.601      5.912
REMARK INTER + INTRA:          -8.413
REMARK INTER:                  -7.904
REMARK INTRA:                  -0.509
REMARK UNBOUND:                -0.239
REMARK  2 active torsions:
REMARK  status: ('A' for Active; 'I' for Inactive)
REMARK    1  A    between atoms: C5_4  and  O7_13 
REMARK    2  A    between atoms: C8_10  and  O7_13 
ROOT
HETATM    1  O7    D T1261      21.275   8.004  22.194  1.00 16.95    -0.304 OA
ENDROOT
BRANCH   1   2
HETATM    2  C5    D T1261      22.086   8.877  22.822  1.00 15.27     0.125 A 
HETATM    3  C6    D T1261      22.304  10.168  22.146  1.00 15.82     0.154 A 
HETATM    4  C1    D T1261      23.127  11.095  22.749  1.00 14.72     0.041 A 
HETATM    5  O17   D T1261      21.661  10.404  20.965  1.00 15.23    -0.188 OA
HETATM    6  C2    D T1261      23.736  10.777  23.956  1.00 16.50     0.060 A 
HETATM    7  C3    D T1261      23.547   9.542  24.590  1.00 16.38     0.014 A 
HETATM    8 CL14   D T1261      24.816  11.978  24.707  1.00 19.41    -0.082 Cl
HETATM    9  C4    D T1261      22.705   8.579  24.022  1.00 16.96     0.028 A 
ENDBRANCH   1   2
BRANCH   1  10
HETATM   10  C8    D T1261      21.827   6.883  21.719  1.00 18.40     0.111 A 
HETATM   11  C9    D T1261      21.209   5.636  22.159  1.00 19.92     0.081 A 
HETATM   12  C10   D T1261      21.734   4.434  21.753  1.00 20.74     0.025 A 
HETATM   13 CL16   D T1261      19.813   5.704  23.253  1.00 19.84    -0.080 Cl
HETATM   14  C11   D T1261      22.828   4.462  20.925  1.00 22.72     0.059 A 
HETATM   15  C12   D T1261      23.431   5.641  20.480  1.00 20.86     0.013 A 
HETATM   16 CL15   D T1261      23.453   2.883  20.424  1.00 25.68    -0.082 Cl
HETATM   17  C13   D T1261      22.946   6.865  20.878  1.00 20.39     0.026 A 
ENDBRANCH   1  10
TORSDOF 2
ENDMDL
MODEL 7
REMARK VINA RESULT:    -7.290      1.736      2.261
REMARK INTER + INTRA:          -8.381
REMARK INTER:                  -8.013
REMARK INTRA:                  -0.369
REMARK UNBOUND:                -0.239
REMARK  2 active torsions:
REMARK  status: ('A' for Active; 'I' for Inactive)
REMARK    1  A    between atoms: C5_4  and  O7_13 
REMARK    2  A    between atoms: C8_10  and  O7_13 
ROOT
HETATM    1  O7    D T1261      21.205   6.551  22.540  1.00 16.95    -0.304 OA
ENDROOT
BRANCH   1   2
HETATM    2  C5    D T1261      21.896   5.750  21.708  1.00 15.27     0.125 A 
HETATM    3  C6    D T1261      21.098   4.872  20.833  1.00 15.82     0.154 A 
HETATM    4  C1    D T1261      21.760   4.034  19.962  1.00 14.72     0.041 A 
HETATM    5  O17   D T1261      19.736   4.947  20.901  1.00 15.23    -0.188 OA
HETATM    6  C2    D T1261      23.149   4.027  19.952  1.00 16.50     0.060 A 
HETATM    7  C3    D T1261      23.910   4.845  20.797  1.00 16.38     0.014 A 
HETATM    8 CL14   D T1261      23.986   2.917  18.839  1.00 19.41    -0.082 Cl
HETATM    9  C4    D T1261      23.278   5.725  21.684  1.00 16.96     0.028 A 
ENDBRANCH   1   2
BRANCH   1  10
HETATM   10  C8    D T1261      21.682   7.783  22.746  1.00 18.40     0.111 A 
HETATM   11  C9    D T1261      22.114   8.076  24.109  1.00 19.92     0.081 A 
HETATM   12  C10   D T1261      22.582   9.328  24.423  1.00 20.74     0.025 A 
HETATM   13 CL16   D T1261      21.979   6.811  25.347  1.00 19.84    -0.080 Cl
HETATM   14  C11   D T1261      22.635  10.260  23.417  1.00 22.72     0.059 A 
HETATM   15  C12   D T1261      22.239  10.003  22.102  1.00 20.86     0.013 A 
HETATM   16 CL15   D T1261      23.258  11.852  23.877  1.00 25.68    -0.082 Cl
HETATM   17  C13   D T1261      21.750   8.766  21.752  1.00 20.39     0.026 A 
ENDBRANCH   1  10
TORSDOF 2
ENDMDL
MODEL 8
REMARK VINA RESULT:    -7.160      2.308      2.830
REMARK INTER + INTRA:          -8.236
REMARK INTER:                  -7.827
REMARK INTRA:                  -0.410
REMARK UNBOUND:                -0.239
REMARK  2 active torsions:
REMARK  status: ('A' for Active; 'I' for Inactive)
REMARK    1  A    between atoms: C5_4  and  O7_13 
REMARK    2  A    between atoms: C8_10  and  O7_13 
ROOT
HETATM    1  O7    D T1261      22.869   6.209  22.882  1.00 16.95    -0.304 OA
ENDROOT
BRANCH   1   2
HETATM    2  C5    D T1261      22.341   5.750  21.732  1.00 15.27     0.125 A 
HETATM    3  C6    D T1261      23.281   5.120  20.787  1.00 15.82     0.154 A 
HETATM    4  C1    D T1261      22.788   4.634  19.595  1.00 14.72     0.041 A 
HETATM    5  O17   D T1261      24.595   5.019  21.144  1.00 15.23    -0.188 OA
HETATM    6  C2    D T1261      21.435   4.771  19.315  1.00 16.50     0.060 A 
HETATM    7  C3    D T1261      20.543   5.388  20.202  1.00 16.38     0.014 A 
HETATM    8 CL14   D T1261      20.821   4.160  17.758  1.00 19.41    -0.082 Cl
HETATM    9  C4    D T1261      20.998   5.879  21.432  1.00 16.96     0.028 A 
ENDBRANCH   1   2
BRANCH   1  10
HETATM   10  C8    D T1261      23.029   7.531  23.002  1.00 18.40     0.111 A 
HETATM   11  C9    D T1261      22.589   8.112  24.266  1.00 19.92     0.081 A 
HETATM   12  C10   D T1261      22.678   9.468  24.463  1.00 20.74     0.025 A 
HETATM   13 CL16   D T1261      21.900   7.049  25.510  1.00 19.84    -0.080 Cl
HETATM   14  C11   D T1261      23.201  10.227  23.446  1.00 22.72     0.059 A 
HETATM   15  C12   D T1261      23.640   9.696  22.231  1.00 20.86     0.013 A 
HETATM   16 CL15   D T1261      23.304  11.966  23.760  1.00 25.68    -0.082 Cl
HETATM   17  C13   D T1261      23.552   8.344  21.989  1.00 20.39     0.026 A 
ENDBRANCH   1  10
TORSDOF 2
ENDMDL
MODEL 9
REMARK VINA RESULT:    -7.052      2.042      6.048
REMARK INTER + INTRA:          -8.116
REMARK INTER:                  -7.617
REMARK INTRA:                  -0.499
REMARK UNBOUND:                -0.239
REMARK  2 active torsions:
REMARK  status: ('A' for Active; 'I' for Inactive)
REMARK    1  A    between atoms: C5_4  and  O7_13 
REMARK    2  A    between atoms: C8_10  and  O7_13 
ROOT
HETATM    1  O7    D T1261      22.996   6.246  22.861  1.00 16.95    -0.304 OA
ENDROOT
BRANCH   1   2
HETATM    2  C5    D T1261      23.126   7.577  23.024  1.00 15.27     0.125 A 
HETATM    3  C6    D T1261      22.578   8.139  24.272  1.00 15.82     0.154 A 
HETATM    4  C1    D T1261      22.687   9.496  24.485  1.00 14.72     0.041 A 
HETATM    5  O17   D T1261      22.011   7.289  25.177  1.00 15.23    -0.188 OA
HETATM    6  C2    D T1261      23.286  10.288  23.514  1.00 16.50     0.060 A 
HETATM    7  C3    D T1261      23.789   9.759  22.318  1.00 16.38     0.014 A 
HETATM    8 CL14   D T1261      23.394  12.044  23.795  1.00 19.41    -0.082 Cl
HETATM    9  C4    D T1261      23.716   8.384  22.069  1.00 16.96     0.028 A 
ENDBRANCH   1   2
BRANCH   1  10
HETATM   10  C8    D T1261      22.397   5.818  21.745  1.00 18.40     0.111 A 
HETATM   11  C9    D T1261      23.248   5.089  20.809  1.00 19.92     0.081 A 
HETATM   12  C10   D T1261      22.728   4.647  19.618  1.00 20.74     0.025 A 
HETATM   13 CL16   D T1261      24.956   4.833  21.216  1.00 19.84    -0.080 Cl
HETATM   14  C11   D T1261      21.404   4.903  19.364  1.00 22.72     0.059 A 
HETATM   15  C12   D T1261      20.566   5.587  20.247  1.00 20.86     0.013 A 
HETATM   16 CL15   D T1261      20.787   4.297  17.819  1.00 25.68    -0.082 Cl
HETATM   17  C13   D T1261      21.052   6.061  21.443  1.00 20.39     0.026 A 
ENDBRANCH   1  10
TORSDOF 2
ENDMDL
