MODEL 1
REMARK VINA RESULT:    -7.751      0.000      0.000
REMARK INTER + INTRA:          -8.859
REMARK INTER:                  -8.657
REMARK INTRA:                  -0.202
REMARK UNBOUND:                -0.202
REMARK  2 active torsions:
REMARK  status: ('A' for Active; 'I' for Inactive)
REMARK    1  A    between atoms: C5_4  and  O7_13 
REMARK    2  A    between atoms: C8_10  and  O7_13 
ROOT
HETATM    1  O7    D T1261       5.680   0.151  -7.657  1.00 16.95    -0.304 OA
ENDROOT
BRANCH   1   2
HETATM    2  C5    D T1261       5.037   1.095  -6.943  1.00 15.27     0.125 A 
HETATM    3  C6    D T1261       3.984   0.616  -6.028  1.00 15.82     0.154 A 
HETATM    4  C1    D T1261       3.296   1.543  -5.274  1.00 14.72     0.041 A 
HETATM    5  O17   D T1261       3.755  -0.727  -5.943  1.00 15.23    -0.188 OA
HETATM    6  C2    D T1261       3.600   2.890  -5.416  1.00 16.50     0.060 A 
HETATM    7  C3    D T1261       4.585   3.350  -6.300  1.00 16.38     0.014 A 
HETATM    8 CL14   D T1261       2.682   4.075  -4.453  1.00 19.41    -0.082 Cl
HETATM    9  C4    D T1261       5.320   2.442  -7.070  1.00 16.96     0.028 A 
ENDBRANCH   1   2
BRANCH   1  10
HETATM   10  C8    D T1261       6.180   0.512  -8.843  1.00 18.40     0.111 A 
HETATM   11  C9    D T1261       5.242   0.482  -9.961  1.00 19.92     0.081 A 
HETATM   12  C10   D T1261       5.676   0.799 -11.225  1.00 20.74     0.025 A 
HETATM   13 CL16   D T1261       3.563  -0.013  -9.666  1.00 19.84    -0.080 Cl
HETATM   14  C11   D T1261       6.994   1.150 -11.377  1.00 22.72     0.059 A 
HETATM   15  C12   D T1261       7.909   1.198 -10.324  1.00 20.86     0.013 A 
HETATM   16 CL15   D T1261       7.493   1.560 -13.026  1.00 25.68    -0.082 Cl
HETATM   17  C13   D T1261       7.518   0.871  -9.046  1.00 20.39     0.026 A 
ENDBRANCH   1  10
TORSDOF 2
ENDMDL
MODEL 2
REMARK VINA RESULT:    -7.555      1.161      5.672
REMARK INTER + INTRA:          -8.640
REMARK INTER:                  -8.494
REMARK INTRA:                  -0.146
REMARK UNBOUND:                -0.202
REMARK  2 active torsions:
REMARK  status: ('A' for Active; 'I' for Inactive)
REMARK    1  A    between atoms: C5_4  and  O7_13 
REMARK    2  A    between atoms: C8_10  and  O7_13 
ROOT
HETATM    1  O7    D T1261       5.813   0.242  -7.529  1.00 16.95    -0.304 OA
ENDROOT
BRANCH   1   2
HETATM    2  C5    D T1261       6.231   0.547  -8.772  1.00 15.27     0.125 A 
HETATM    3  C6    D T1261       5.214   0.481  -9.838  1.00 15.82     0.154 A 
HETATM    4  C1    D T1261       5.592   0.784 -11.128  1.00 14.72     0.041 A 
HETATM    5  O17   D T1261       3.933   0.153  -9.497  1.00 15.23    -0.188 OA
HETATM    6  C2    D T1261       6.915   1.118 -11.385  1.00 16.50     0.060 A 
HETATM    7  C3    D T1261       7.889   1.160 -10.379  1.00 16.38     0.014 A 
HETATM    8 CL14   D T1261       7.390   1.481 -13.064  1.00 19.41    -0.082 Cl
HETATM    9  C4    D T1261       7.544   0.878  -9.052  1.00 16.96     0.028 A 
ENDBRANCH   1   2
BRANCH   1  10
HETATM   10  C8    D T1261       5.171   1.195  -6.845  1.00 18.40     0.111 A 
HETATM   11  C9    D T1261       4.079   0.736  -5.993  1.00 19.92     0.081 A 
HETATM   12  C10   D T1261       3.338   1.649  -5.283  1.00 20.74     0.025 A 
HETATM   13 CL16   D T1261       3.701  -0.996  -5.932  1.00 19.84    -0.080 Cl
HETATM   14  C11   D T1261       3.675   2.974  -5.400  1.00 22.72     0.059 A 
HETATM   15  C12   D T1261       4.722   3.439  -6.198  1.00 20.86     0.013 A 
HETATM   16 CL15   D T1261       2.694   4.103  -4.453  1.00 25.68    -0.082 Cl
HETATM   17  C13   D T1261       5.478   2.557  -6.938  1.00 20.39     0.026 A 
ENDBRANCH   1  10
TORSDOF 2
ENDMDL
MODEL 3
REMARK VINA RESULT:    -7.504      3.417      5.934
REMARK INTER + INTRA:          -8.583
REMARK INTER:                  -8.155
REMARK INTRA:                  -0.428
REMARK UNBOUND:                -0.202
REMARK  2 active torsions:
REMARK  status: ('A' for Active; 'I' for Inactive)
REMARK    1  A    between atoms: C5_4  and  O7_13 
REMARK    2  A    between atoms: C8_10  and  O7_13 
ROOT
HETATM    1  O7    D T1261       6.398   1.938  -7.590  1.00 16.95    -0.304 OA
ENDROOT
BRANCH   1   2
HETATM    2  C5    D T1261       6.634   1.712  -8.896  1.00 15.27     0.125 A 
HETATM    3  C6    D T1261       6.044   2.677  -9.842  1.00 15.82     0.154 A 
HETATM    4  C1    D T1261       6.257   2.490 -11.191  1.00 14.72     0.041 A 
HETATM    5  O17   D T1261       5.336   3.732  -9.342  1.00 15.23    -0.188 OA
HETATM    6  C2    D T1261       6.997   1.394 -11.614  1.00 16.50     0.060 A 
HETATM    7  C3    D T1261       7.542   0.463 -10.719  1.00 16.38     0.014 A 
HETATM    8 CL14   D T1261       7.240   1.154 -13.363  1.00 19.41    -0.082 Cl
HETATM    9  C4    D T1261       7.365   0.626  -9.340  1.00 16.96     0.028 A 
ENDBRANCH   1   2
BRANCH   1  10
HETATM   10  C8    D T1261       7.426   1.801  -6.746  1.00 18.40     0.111 A 
HETATM   11  C9    D T1261       7.349   0.666  -5.832  1.00 19.92     0.081 A 
HETATM   12  C10   D T1261       8.341   0.469  -4.903  1.00 20.74     0.025 A 
HETATM   13 CL16   D T1261       5.941  -0.412  -5.911  1.00 19.84    -0.080 Cl
HETATM   14  C11   D T1261       9.386   1.358  -4.888  1.00 22.72     0.059 A 
HETATM   15  C12   D T1261       9.491   2.445  -5.758  1.00 20.86     0.013 A 
HETATM   16 CL15   D T1261      10.641   1.047  -3.678  1.00 25.68    -0.082 Cl
HETATM   17  C13   D T1261       8.509   2.686  -6.692  1.00 20.39     0.026 A 
ENDBRANCH   1  10
TORSDOF 2
ENDMDL
MODEL 4
REMARK VINA RESULT:    -7.438      1.545      1.959
REMARK INTER + INTRA:          -8.510
REMARK INTER:                  -8.063
REMARK INTRA:                  -0.447
REMARK UNBOUND:                -0.202
REMARK  2 active torsions:
REMARK  status: ('A' for Active; 'I' for Inactive)
REMARK    1  A    between atoms: C5_4  and  O7_13 
REMARK    2  A    between atoms: C8_10  and  O7_13 
ROOT
HETATM    1  O7    D T1261       5.699   0.469  -6.804  1.00 16.95    -0.304 OA
ENDROOT
BRANCH   1   2
HETATM    2  C5    D T1261       4.981   1.431  -6.193  1.00 15.27     0.125 A 
HETATM    3  C6    D T1261       3.888   0.972  -5.316  1.00 15.82     0.154 A 
HETATM    4  C1    D T1261       3.123   1.918  -4.668  1.00 14.72     0.041 A 
HETATM    5  O17   D T1261       3.697  -0.371  -5.159  1.00 15.23    -0.188 OA
HETATM    6  C2    D T1261       3.392   3.265  -4.877  1.00 16.50     0.060 A 
HETATM    7  C3    D T1261       4.416   3.704  -5.727  1.00 16.38     0.014 A 
HETATM    8 CL14   D T1261       2.376   4.473  -4.051  1.00 19.41    -0.082 Cl
HETATM    9  C4    D T1261       5.228   2.777  -6.390  1.00 16.96     0.028 A 
ENDBRANCH   1   2
BRANCH   1  10
HETATM   10  C8    D T1261       5.889   0.587  -8.122  1.00 18.40     0.111 A 
HETATM   11  C9    D T1261       7.238   0.957  -8.537  1.00 19.92     0.081 A 
HETATM   12  C10   D T1261       7.516   1.139  -9.870  1.00 20.74     0.025 A 
HETATM   13 CL16   D T1261       8.483   1.213  -7.298  1.00 19.84    -0.080 Cl
HETATM   14  C11   D T1261       6.495   0.946 -10.767  1.00 22.72     0.059 A 
HETATM   15  C12   D T1261       5.200   0.580 -10.398  1.00 20.86     0.013 A 
HETATM   16 CL15   D T1261       6.916   1.182 -12.470  1.00 25.68    -0.082 Cl
HETATM   17  C13   D T1261       4.877   0.404  -9.071  1.00 20.39     0.026 A 
ENDBRANCH   1  10
TORSDOF 2
ENDMDL
MODEL 5
REMARK VINA RESULT:    -7.251      2.119      6.093
REMARK INTER + INTRA:          -8.301
REMARK INTER:                  -7.809
REMARK INTRA:                  -0.492
REMARK UNBOUND:                -0.202
REMARK  2 active torsions:
REMARK  status: ('A' for Active; 'I' for Inactive)
REMARK    1  A    between atoms: C5_4  and  O7_13 
REMARK    2  A    between atoms: C8_10  and  O7_13 
ROOT
HETATM    1  O7    D T1261       5.829   3.139  -6.773  1.00 16.95    -0.304 OA
ENDROOT
BRANCH   1   2
HETATM    2  C5    D T1261       6.032   2.702  -8.030  1.00 15.27     0.125 A 
HETATM    3  C6    D T1261       7.428   2.408  -8.403  1.00 15.82     0.154 A 
HETATM    4  C1    D T1261       7.688   1.958  -9.679  1.00 14.72     0.041 A 
HETATM    5  O17   D T1261       8.402   2.566  -7.458  1.00 15.23    -0.188 OA
HETATM    6  C2    D T1261       6.635   1.818 -10.574  1.00 16.50     0.060 A 
HETATM    7  C3    D T1261       5.310   2.117 -10.231  1.00 16.38     0.014 A 
HETATM    8 CL14   D T1261       6.994   1.259 -12.228  1.00 19.41    -0.082 Cl
HETATM    9  C4    D T1261       5.000   2.559  -8.939  1.00 16.96     0.028 A 
ENDBRANCH   1   2
BRANCH   1  10
HETATM   10  C8    D T1261       5.250   2.294  -5.913  1.00 18.40     0.111 A 
HETATM   11  C9    D T1261       4.065   2.801  -5.228  1.00 19.92     0.081 A 
HETATM   12  C10   D T1261       3.427   2.017  -4.298  1.00 20.74     0.025 A 
HETATM   13 CL16   D T1261       3.503   4.447  -5.579  1.00 19.84    -0.080 Cl
HETATM   14  C11   D T1261       3.936   0.764  -4.064  1.00 22.72     0.059 A 
HETATM   15  C12   D T1261       5.059   0.251  -4.714  1.00 20.86     0.013 A 
HETATM   16 CL15   D T1261       3.065  -0.205  -2.865  1.00 25.68    -0.082 Cl
HETATM   17  C13   D T1261       5.737   1.011  -5.640  1.00 20.39     0.026 A 
ENDBRANCH   1  10
TORSDOF 2
ENDMDL
MODEL 6
REMARK VINA RESULT:    -7.220      2.215      2.796
REMARK INTER + INTRA:          -8.266
REMARK INTER:                  -7.725
REMARK INTRA:                  -0.541
REMARK UNBOUND:                -0.202
REMARK  2 active torsions:
REMARK  status: ('A' for Active; 'I' for Inactive)
REMARK    1  A    between atoms: C5_4  and  O7_13 
REMARK    2  A    between atoms: C8_10  and  O7_13 
ROOT
HETATM    1  O7    D T1261       5.770   0.763  -5.209  1.00 16.95    -0.304 OA
ENDROOT
BRANCH   1   2
HETATM    2  C5    D T1261       5.000   1.791  -4.803  1.00 15.27     0.125 A 
HETATM    3  C6    D T1261       5.600   2.706  -3.815  1.00 15.82     0.154 A 
HETATM    4  C1    D T1261       4.852   3.773  -3.367  1.00 14.72     0.041 A 
HETATM    5  O17   D T1261       6.882   2.474  -3.406  1.00 15.23    -0.188 OA
HETATM    6  C2    D T1261       3.558   3.940  -3.843  1.00 16.50     0.060 A 
HETATM    7  C3    D T1261       2.977   3.061  -4.766  1.00 16.38     0.014 A 
HETATM    8 CL14   D T1261       2.598   5.312  -3.234  1.00 19.41    -0.082 Cl
HETATM    9  C4    D T1261       3.708   1.974  -5.260  1.00 16.96     0.028 A 
ENDBRANCH   1   2
BRANCH   1  10
HETATM   10  C8    D T1261       6.210   0.785  -6.472  1.00 18.40     0.111 A 
HETATM   11  C9    D T1261       5.657  -0.238  -7.353  1.00 19.92     0.081 A 
HETATM   12  C10   D T1261       6.081  -0.317  -8.657  1.00 20.74     0.025 A 
HETATM   13 CL16   D T1261       4.479  -1.394  -6.701  1.00 19.84    -0.080 Cl
HETATM   14  C11   D T1261       7.012   0.597  -9.082  1.00 22.72     0.059 A 
HETATM   15  C12   D T1261       7.548   1.593  -8.264  1.00 20.86     0.013 A 
HETATM   16 CL15   D T1261       7.510   0.455 -10.775  1.00 25.68    -0.082 Cl
HETATM   17  C13   D T1261       7.162   1.695  -6.946  1.00 20.39     0.026 A 
ENDBRANCH   1  10
TORSDOF 2
ENDMDL
MODEL 7
REMARK VINA RESULT:    -7.200      2.721      3.273
REMARK INTER + INTRA:          -8.244
REMARK INTER:                  -7.770
REMARK INTRA:                  -0.474
REMARK UNBOUND:                -0.202
REMARK  2 active torsions:
REMARK  status: ('A' for Active; 'I' for Inactive)
REMARK    1  A    between atoms: C5_4  and  O7_13 
REMARK    2  A    between atoms: C8_10  and  O7_13 
ROOT
HETATM    1  O7    D T1261       5.708   3.095  -6.481  1.00 16.95    -0.304 OA
ENDROOT
BRANCH   1   2
HETATM    2  C5    D T1261       5.126   2.226  -5.632  1.00 15.27     0.125 A 
HETATM    3  C6    D T1261       3.914   2.701  -4.939  1.00 15.82     0.154 A 
HETATM    4  C1    D T1261       3.282   1.849  -4.060  1.00 14.72     0.041 A 
HETATM    5  O17   D T1261       3.452   3.955  -5.220  1.00 15.23    -0.188 OA
HETATM    6  C2    D T1261       3.816   0.586  -3.840  1.00 16.50     0.060 A 
HETATM    7  C3    D T1261       4.980   0.139  -4.480  1.00 16.38     0.014 A 
HETATM    8 CL14   D T1261       2.999  -0.492  -2.680  1.00 19.41    -0.082 Cl
HETATM    9  C4    D T1261       5.642   0.966  -5.394  1.00 16.96     0.028 A 
ENDBRANCH   1   2
BRANCH   1  10
HETATM   10  C8    D T1261       5.966   2.666  -7.720  1.00 18.40     0.111 A 
HETATM   11  C9    D T1261       7.373   2.436  -8.032  1.00 19.92     0.081 A 
HETATM   12  C10   D T1261       7.735   2.032  -9.293  1.00 20.74     0.025 A 
HETATM   13 CL16   D T1261       8.594   2.734  -6.778  1.00 19.84    -0.080 Cl
HETATM   14  C11   D T1261       6.736   1.845 -10.215  1.00 22.72     0.059 A 
HETATM   15  C12   D T1261       5.383   2.046  -9.940  1.00 20.86     0.013 A 
HETATM   16 CL15   D T1261       7.263   1.312 -11.819  1.00 25.68    -0.082 Cl
HETATM   17  C13   D T1261       4.979   2.467  -8.694  1.00 20.39     0.026 A 
ENDBRANCH   1  10
TORSDOF 2
ENDMDL
MODEL 8
REMARK VINA RESULT:    -7.154      1.994      2.158
REMARK INTER + INTRA:          -8.193
REMARK INTER:                  -7.745
REMARK INTRA:                  -0.448
REMARK UNBOUND:                -0.202
REMARK  2 active torsions:
REMARK  status: ('A' for Active; 'I' for Inactive)
REMARK    1  A    between atoms: C5_4  and  O7_13 
REMARK    2  A    between atoms: C8_10  and  O7_13 
ROOT
HETATM    1  O7    D T1261       4.075   1.633  -7.344  1.00 16.95    -0.304 OA
ENDROOT
BRANCH   1   2
HETATM    2  C5    D T1261       4.461   2.076  -6.132  1.00 15.27     0.125 A 
HETATM    3  C6    D T1261       4.210   1.170  -4.996  1.00 15.82     0.154 A 
HETATM    4  C1    D T1261       4.587   1.577  -3.735  1.00 14.72     0.041 A 
HETATM    5  O17   D T1261       3.642  -0.047  -5.244  1.00 15.23    -0.188 OA
HETATM    6  C2    D T1261       5.167   2.829  -3.573  1.00 16.50     0.060 A 
HETATM    7  C3    D T1261       5.387   3.701  -4.647  1.00 16.38     0.014 A 
HETATM    8 CL14   D T1261       5.625   3.349  -1.931  1.00 19.41    -0.082 Cl
HETATM    9  C4    D T1261       5.036   3.319  -5.947  1.00 16.96     0.028 A 
ENDBRANCH   1   2
BRANCH   1  10
HETATM   10  C8    D T1261       5.035   1.281  -8.206  1.00 18.40     0.111 A 
HETATM   11  C9    D T1261       5.302   2.232  -9.279  1.00 19.92     0.081 A 
HETATM   12  C10   D T1261       6.245   1.937 -10.233  1.00 20.74     0.025 A 
HETATM   13 CL16   D T1261       4.362   3.736  -9.354  1.00 19.84    -0.080 Cl
HETATM   14  C11   D T1261       6.914   0.744 -10.122  1.00 22.72     0.059 A 
HETATM   15  C12   D T1261       6.686  -0.178  -9.099  1.00 20.86     0.013 A 
HETATM   16 CL15   D T1261       8.126   0.424 -11.372  1.00 25.68    -0.082 Cl
HETATM   17  C13   D T1261       5.738   0.073  -8.133  1.00 20.39     0.026 A 
ENDBRANCH   1  10
TORSDOF 2
ENDMDL
MODEL 9
REMARK VINA RESULT:    -7.064      2.550      2.992
REMARK INTER + INTRA:          -8.091
REMARK INTER:                  -7.588
REMARK INTRA:                  -0.503
REMARK UNBOUND:                -0.202
REMARK  2 active torsions:
REMARK  status: ('A' for Active; 'I' for Inactive)
REMARK    1  A    between atoms: C5_4  and  O7_13 
REMARK    2  A    between atoms: C8_10  and  O7_13 
ROOT
HETATM    1  O7    D T1261       4.071   2.382  -6.769  1.00 16.95    -0.304 OA
ENDROOT
BRANCH   1   2
HETATM    2  C5    D T1261       4.579   2.680  -5.559  1.00 15.27     0.125 A 
HETATM    3  C6    D T1261       4.311   4.040  -5.055  1.00 15.82     0.154 A 
HETATM    4  C1    D T1261       4.810   4.394  -3.820  1.00 14.72     0.041 A 
HETATM    5  O17   D T1261       3.555   4.881  -5.819  1.00 15.23    -0.188 OA
HETATM    6  C2    D T1261       5.563   3.472  -3.104  1.00 16.50     0.060 A 
HETATM    7  C3    D T1261       5.838   2.187  -3.590  1.00 16.38     0.014 A 
HETATM    8 CL14   D T1261       6.221   3.957  -1.521  1.00 19.41    -0.082 Cl
HETATM    9  C4    D T1261       5.334   1.780  -4.830  1.00 16.96     0.028 A 
ENDBRANCH   1   2
BRANCH   1  10
HETATM   10  C8    D T1261       4.930   2.007  -7.723  1.00 18.40     0.111 A 
HETATM   11  C9    D T1261       4.694   0.691  -8.307  1.00 19.92     0.081 A 
HETATM   12  C10   D T1261       5.550   0.206  -9.265  1.00 20.74     0.025 A 
HETATM   13 CL16   D T1261       3.325  -0.278  -7.726  1.00 19.84    -0.080 Cl
HETATM   14  C11   D T1261       6.599   1.004  -9.646  1.00 22.72     0.059 A 
HETATM   15  C12   D T1261       6.841   2.271  -9.112  1.00 20.86     0.013 A 
HETATM   16 CL15   D T1261       7.661   0.332 -10.893  1.00 25.68    -0.082 Cl
HETATM   17  C13   D T1261       6.017   2.786  -8.138  1.00 20.39     0.026 A 
ENDBRANCH   1  10
TORSDOF 2
ENDMDL
