MODEL 1
REMARK VINA RESULT:      -8.1      0.000      0.000
REMARK  2 active torsions:
REMARK  status: ('A' for Active; 'I' for Inactive)
REMARK    1  A    between atoms: C5_4  and  O7_13 
REMARK    2  A    between atoms: C8_10  and  O7_13 
ROOT
HETATM    1  O7    D T1261      21.449   8.680  23.425  1.00 16.95    -0.304 OA
ENDROOT
BRANCH   1   2
HETATM    2  C5    D T1261      21.878   7.560  22.813  1.00 15.27     0.125 A 
HETATM    3  C6    D T1261      21.253   6.298  23.249  1.00 15.82     0.154 A 
HETATM    4  C1    D T1261      21.658   5.123  22.653  1.00 14.72     0.041 A 
HETATM    5  O17   D T1261      20.280   6.348  24.205  1.00 15.23    -0.188 OA
HETATM    6  C2    D T1261      22.649   5.163  21.681  1.00 16.50     0.060 A 
HETATM    7  C3    D T1261      23.260   6.359  21.280  1.00 16.38     0.014 A 
HETATM    8 CL14   D T1261      23.178   3.632  20.940  1.00 19.41    -0.082 Cl
HETATM    9  C4    D T1261      22.866   7.577  21.846  1.00 16.96     0.028 A 
ENDBRANCH   1   2
BRANCH   1  10
HETATM   10  C8    D T1261      22.351   9.643  23.648  1.00 18.40     0.111 A 
HETATM   11  C9    D T1261      23.152   9.493  24.859  1.00 19.92     0.081 A 
HETATM   12  C10   D T1261      24.075  10.453  25.189  1.00 20.74     0.025 A 
HETATM   13 CL16   D T1261      22.878   8.086  25.905  1.00 19.84    -0.080 Cl
HETATM   14  C11   D T1261      24.214  11.524  24.342  1.00 22.72     0.059 A 
HETATM   15  C12   D T1261      23.469  11.686  23.172  1.00 20.86     0.013 A 
HETATM   16 CL15   D T1261      25.428  12.724  24.813  1.00 25.68    -0.082 Cl
HETATM   17  C13   D T1261      22.522  10.754  22.814  1.00 20.39     0.026 A 
ENDBRANCH   1  10
TORSDOF 2
ENDMDL
MODEL 2
REMARK VINA RESULT:      -8.0      1.083      5.647
REMARK  2 active torsions:
REMARK  status: ('A' for Active; 'I' for Inactive)
REMARK    1  A    between atoms: C5_4  and  O7_13 
REMARK    2  A    between atoms: C8_10  and  O7_13 
ROOT
HETATM    1  O7    D T1261      21.593   8.798  23.542  1.00 16.95    -0.304 OA
ENDROOT
BRANCH   1   2
HETATM    2  C5    D T1261      22.481   9.780  23.788  1.00 15.27     0.125 A 
HETATM    3  C6    D T1261      23.404   9.558  24.915  1.00 15.82     0.154 A 
HETATM    4  C1    D T1261      24.332  10.534  25.207  1.00 14.72     0.041 A 
HETATM    5  O17   D T1261      23.321   8.383  25.605  1.00 15.23    -0.188 OA
HETATM    6  C2    D T1261      24.354  11.697  24.448  1.00 16.50     0.060 A 
HETATM    7  C3    D T1261      23.464  11.919  23.389  1.00 16.38     0.014 A 
HETATM    8 CL14   D T1261      25.543  12.959  24.857  1.00 19.41    -0.082 Cl
HETATM    9  C4    D T1261      22.517  10.947  23.047  1.00 16.96     0.028 A 
ENDBRANCH   1   2
BRANCH   1  10
HETATM   10  C8    D T1261      22.021   7.743  22.840  1.00 18.40     0.111 A 
HETATM   11  C9    D T1261      21.540   6.442  23.293  1.00 19.92     0.081 A 
HETATM   12  C10   D T1261      21.958   5.300  22.656  1.00 20.74     0.025 A 
HETATM   13 CL16   D T1261      20.454   6.365  24.695  1.00 19.84    -0.080 Cl
HETATM   14  C11   D T1261      22.816   5.439  21.594  1.00 22.72     0.059 A 
HETATM   15  C12   D T1261      23.283   6.672  21.133  1.00 20.86     0.013 A 
HETATM   16 CL15   D T1261      23.312   3.934  20.805  1.00 25.68    -0.082 Cl
HETATM   17  C13   D T1261      22.900   7.838  21.754  1.00 20.39     0.026 A 
ENDBRANCH   1  10
TORSDOF 2
ENDMDL
MODEL 3
REMARK VINA RESULT:      -7.8      1.266      5.813
REMARK  2 active torsions:
REMARK  status: ('A' for Active; 'I' for Inactive)
REMARK    1  A    between atoms: C5_4  and  O7_13 
REMARK    2  A    between atoms: C8_10  and  O7_13 
ROOT
HETATM    1  O7    D T1261      21.166   8.567  22.625  1.00 16.95    -0.304 OA
ENDROOT
BRANCH   1   2
HETATM    2  C5    D T1261      22.070   9.405  23.168  1.00 15.27     0.125 A 
HETATM    3  C6    D T1261      22.483  10.549  22.335  1.00 15.82     0.154 A 
HETATM    4  C1    D T1261      23.406  11.435  22.847  1.00 14.72     0.041 A 
HETATM    5  O17   D T1261      21.913  10.698  21.103  1.00 15.23    -0.188 OA
HETATM    6  C2    D T1261      23.929  11.213  24.114  1.00 16.50     0.060 A 
HETATM    7  C3    D T1261      23.554  10.115  24.899  1.00 16.38     0.014 A 
HETATM    8 CL14   D T1261      25.140  12.355  24.747  1.00 19.41    -0.082 Cl
HETATM    9  C4    D T1261      22.606   9.200  24.426  1.00 16.96     0.028 A 
ENDBRANCH   1   2
BRANCH   1  10
HETATM   10  C8    D T1261      21.604   7.374  22.212  1.00 18.40     0.111 A 
HETATM   11  C9    D T1261      21.191   6.231  23.021  1.00 19.92     0.081 A 
HETATM   12  C10   D T1261      21.626   4.970  22.695  1.00 20.74     0.025 A 
HETATM   13 CL16   D T1261      20.167   6.508  24.444  1.00 19.84    -0.080 Cl
HETATM   14  C11   D T1261      22.434   4.839  21.593  1.00 22.72     0.059 A 
HETATM   15  C12   D T1261      22.834   5.913  20.795  1.00 20.86     0.013 A 
HETATM   16 CL15   D T1261      22.953   3.190  21.213  1.00 25.68    -0.082 Cl
HETATM   17  C13   D T1261      22.433   7.194  21.098  1.00 20.39     0.026 A 
ENDBRANCH   1  10
TORSDOF 2
ENDMDL
MODEL 4
REMARK VINA RESULT:      -7.7      1.577      1.983
REMARK  2 active torsions:
REMARK  status: ('A' for Active; 'I' for Inactive)
REMARK    1  A    between atoms: C5_4  and  O7_13 
REMARK    2  A    between atoms: C8_10  and  O7_13 
ROOT
HETATM    1  O7    D T1261      21.164   8.227  22.613  1.00 16.95    -0.304 OA
ENDROOT
BRANCH   1   2
HETATM    2  C5    D T1261      21.657   7.057  22.166  1.00 15.27     0.125 A 
HETATM    3  C6    D T1261      21.070   5.835  22.746  1.00 15.82     0.154 A 
HETATM    4  C1    D T1261      21.541   4.612  22.320  1.00 14.72     0.041 A 
HETATM    5  O17   D T1261      20.065   5.966  23.661  1.00 15.23    -0.188 OA
HETATM    6  C2    D T1261      22.562   4.570  21.379  1.00 16.50     0.060 A 
HETATM    7  C3    D T1261      23.136   5.729  20.841  1.00 16.38     0.014 A 
HETATM    8 CL14   D T1261      23.176   2.981  20.859  1.00 19.41    -0.082 Cl
HETATM    9  C4    D T1261      22.675   6.992  21.232  1.00 16.96     0.028 A 
ENDBRANCH   1   2
BRANCH   1  10
HETATM   10  C8    D T1261      22.021   9.077  23.187  1.00 18.40     0.111 A 
HETATM   11  C9    D T1261      22.336  10.277  22.418  1.00 19.92     0.081 A 
HETATM   12  C10   D T1261      23.237  11.187  22.912  1.00 20.74     0.025 A 
HETATM   13 CL16   D T1261      21.574  10.508  20.832  1.00 19.84    -0.080 Cl
HETATM   14  C11   D T1261      23.802  10.928  24.135  1.00 22.72     0.059 A 
HETATM   15  C12   D T1261      23.510   9.794  24.897  1.00 20.86     0.013 A 
HETATM   16 CL15   D T1261      24.946  12.142  24.726  1.00 25.68    -0.082 Cl
HETATM   17  C13   D T1261      22.625   8.850  24.430  1.00 20.39     0.026 A 
ENDBRANCH   1  10
TORSDOF 2
ENDMDL
MODEL 5
REMARK VINA RESULT:      -7.6      9.203     12.309
REMARK  2 active torsions:
REMARK  status: ('A' for Active; 'I' for Inactive)
REMARK    1  A    between atoms: C5_4  and  O7_13 
REMARK    2  A    between atoms: C8_10  and  O7_13 
ROOT
HETATM    1  O7    D T1261      19.973   2.930  13.367  1.00 16.95    -0.304 OA
ENDROOT
BRANCH   1   2
HETATM    2  C5    D T1261      20.569   2.898  14.574  1.00 15.27     0.125 A 
HETATM    3  C6    D T1261      21.675   1.935  14.731  1.00 15.82     0.154 A 
HETATM    4  C1    D T1261      22.318   1.864  15.948  1.00 14.72     0.041 A 
HETATM    5  O17   D T1261      22.035   1.175  13.656  1.00 15.23    -0.188 OA
HETATM    6  C2    D T1261      21.892   2.682  16.987  1.00 16.50     0.060 A 
HETATM    7  C3    D T1261      20.828   3.582  16.847  1.00 16.38     0.014 A 
HETATM    8 CL14   D T1261      22.718   2.557  18.561  1.00 19.41    -0.082 Cl
HETATM    9  C4    D T1261      20.159   3.699  15.623  1.00 16.96     0.028 A 
ENDBRANCH   1   2
BRANCH   1  10
HETATM   10  C8    D T1261      18.662   2.672  13.322  1.00 18.40     0.111 A 
HETATM   11  C9    D T1261      17.823   3.740  12.786  1.00 19.92     0.081 A 
HETATM   12  C10   D T1261      16.461   3.579  12.738  1.00 20.74     0.025 A 
HETATM   13 CL16   D T1261      18.587   5.250  12.251  1.00 19.84    -0.080 Cl
HETATM   14  C11   D T1261      15.942   2.392  13.192  1.00 22.72     0.059 A 
HETATM   15  C12   D T1261      16.722   1.349  13.697  1.00 20.86     0.013 A 
HETATM   16 CL15   D T1261      14.181   2.236  13.093  1.00 25.68    -0.082 Cl
HETATM   17  C13   D T1261      18.090   1.479  13.778  1.00 20.39     0.026 A 
ENDBRANCH   1  10
TORSDOF 2
ENDMDL
MODEL 6
REMARK VINA RESULT:      -7.5      2.493      2.833
REMARK  2 active torsions:
REMARK  status: ('A' for Active; 'I' for Inactive)
REMARK    1  A    between atoms: C5_4  and  O7_13 
REMARK    2  A    between atoms: C8_10  and  O7_13 
ROOT
HETATM    1  O7    D T1261      23.226   8.227  20.662  1.00 16.95    -0.304 OA
ENDROOT
BRANCH   1   2
HETATM    2  C5    D T1261      22.216   7.401  20.996  1.00 15.27     0.125 A 
HETATM    3  C6    D T1261      22.371   5.988  20.605  1.00 15.82     0.154 A 
HETATM    4  C1    D T1261      21.364   5.103  20.926  1.00 14.72     0.041 A 
HETATM    5  O17   D T1261      23.517   5.610  19.967  1.00 15.23    -0.188 OA
HETATM    6  C2    D T1261      20.235   5.572  21.584  1.00 16.50     0.060 A 
HETATM    7  C3    D T1261      20.076   6.918  21.938  1.00 16.38     0.014 A 
HETATM    8 CL14   D T1261      18.933   4.418  21.967  1.00 19.41    -0.082 Cl
HETATM    9  C4    D T1261      21.082   7.847  21.648  1.00 16.96     0.028 A 
ENDBRANCH   1   2
BRANCH   1  10
HETATM   10  C8    D T1261      23.558   9.180  21.539  1.00 18.40     0.111 A 
HETATM   11  C9    D T1261      24.603   8.826  22.494  1.00 19.92     0.081 A 
HETATM   12  C10   D T1261      24.981   9.728  23.457  1.00 20.74     0.025 A 
HETATM   13 CL16   D T1261      25.331   7.209  22.416  1.00 19.84    -0.080 Cl
HETATM   14  C11   D T1261      24.356  10.950  23.468  1.00 22.72     0.059 A 
HETATM   15  C12   D T1261      23.363  11.319  22.558  1.00 20.86     0.013 A 
HETATM   16 CL15   D T1261      24.894  12.077  24.723  1.00 25.68    -0.082 Cl
HETATM   17  C13   D T1261      22.944  10.437  21.589  1.00 20.39     0.026 A 
ENDBRANCH   1  10
TORSDOF 2
ENDMDL
MODEL 7
REMARK VINA RESULT:      -7.5      2.582      3.147
REMARK  2 active torsions:
REMARK  status: ('A' for Active; 'I' for Inactive)
REMARK    1  A    between atoms: C5_4  and  O7_13 
REMARK    2  A    between atoms: C8_10  and  O7_13 
ROOT
HETATM    1  O7    D T1261      23.955   7.073  21.987  1.00 16.95    -0.304 OA
ENDROOT
BRANCH   1   2
HETATM    2  C5    D T1261      22.763   6.453  22.087  1.00 15.27     0.125 A 
HETATM    3  C6    D T1261      22.357   5.629  20.934  1.00 15.82     0.154 A 
HETATM    4  C1    D T1261      21.145   4.975  20.989  1.00 14.72     0.041 A 
HETATM    5  O17   D T1261      23.209   5.527  19.873  1.00 15.23    -0.188 OA
HETATM    6  C2    D T1261      20.342   5.128  22.112  1.00 16.50     0.060 A 
HETATM    7  C3    D T1261      20.717   5.927  23.200  1.00 16.38     0.014 A 
HETATM    8 CL14   D T1261      18.768   4.295  22.153  1.00 19.41    -0.082 Cl
HETATM    9  C4    D T1261      21.947   6.595  23.194  1.00 16.96     0.028 A 
ENDBRANCH   1   2
BRANCH   1  10
HETATM   10  C8    D T1261      24.092   8.248  22.610  1.00 18.40     0.111 A 
HETATM   11  C9    D T1261      23.542   9.405  21.910  1.00 19.92     0.081 A 
HETATM   12  C10   D T1261      23.671  10.658  22.455  1.00 20.74     0.025 A 
HETATM   13 CL16   D T1261      22.756   9.167  20.336  1.00 19.84    -0.080 Cl
HETATM   14  C11   D T1261      24.312  10.765  23.665  1.00 22.72     0.059 A 
HETATM   15  C12   D T1261      24.836   9.673  24.361  1.00 20.86     0.013 A 
HETATM   16 CL15   D T1261      24.437  12.402  24.325  1.00 25.68    -0.082 Cl
HETATM   17  C13   D T1261      24.742   8.403  23.840  1.00 20.39     0.026 A 
ENDBRANCH   1  10
TORSDOF 2
ENDMDL
MODEL 8
REMARK VINA RESULT:      -7.5      2.151      6.095
REMARK  2 active torsions:
REMARK  status: ('A' for Active; 'I' for Inactive)
REMARK    1  A    between atoms: C5_4  and  O7_13 
REMARK    2  A    between atoms: C8_10  and  O7_13 
ROOT
HETATM    1  O7    D T1261      23.541   7.506  21.223  1.00 16.95    -0.304 OA
ENDROOT
BRANCH   1   2
HETATM    2  C5    D T1261      23.853   8.515  22.058  1.00 15.27     0.125 A 
HETATM    3  C6    D T1261      23.473   9.869  21.616  1.00 15.82     0.154 A 
HETATM    4  C1    D T1261      23.770  10.936  22.436  1.00 14.72     0.041 A 
HETATM    5  O17   D T1261      22.817  10.007  20.426  1.00 15.23    -0.188 OA
HETATM    6  C2    D T1261      24.432  10.705  23.635  1.00 16.50     0.060 A 
HETATM    7  C3    D T1261      24.813   9.422  24.047  1.00 16.38     0.014 A 
HETATM    8 CL14   D T1261      24.831  12.099  24.669  1.00 19.41    -0.082 Cl
HETATM    9  C4    D T1261      24.515   8.308  23.253  1.00 16.96     0.028 A 
ENDBRANCH   1   2
BRANCH   1  10
HETATM   10  C8    D T1261      22.435   6.805  21.491  1.00 18.40     0.111 A 
HETATM   11  C9    D T1261      22.568   5.353  21.410  1.00 19.92     0.081 A 
HETATM   12  C10   D T1261      21.474   4.554  21.630  1.00 20.74     0.025 A 
HETATM   13 CL16   D T1261      24.141   4.655  20.978  1.00 19.84    -0.080 Cl
HETATM   14  C11   D T1261      20.285   5.169  21.937  1.00 22.72     0.059 A 
HETATM   15  C12   D T1261      20.133   6.554  22.032  1.00 20.86     0.013 A 
HETATM   16 CL15   D T1261      18.913   4.088  22.224  1.00 25.68    -0.082 Cl
HETATM   17  C13   D T1261      21.202   7.390  21.802  1.00 20.39     0.026 A 
ENDBRANCH   1  10
TORSDOF 2
ENDMDL
MODEL 9
REMARK VINA RESULT:      -7.3      1.797      6.013
REMARK  2 active torsions:
REMARK  status: ('A' for Active; 'I' for Inactive)
REMARK    1  A    between atoms: C5_4  and  O7_13 
REMARK    2  A    between atoms: C8_10  and  O7_13 
ROOT
HETATM    1  O7    D T1261      21.307   6.667  22.884  1.00 16.95    -0.304 OA
ENDROOT
BRANCH   1   2
HETATM    2  C5    D T1261      21.782   7.915  23.054  1.00 15.27     0.125 A 
HETATM    3  C6    D T1261      22.367   8.218  24.373  1.00 15.82     0.154 A 
HETATM    4  C1    D T1261      22.867   9.482  24.597  1.00 14.72     0.041 A 
HETATM    5  O17   D T1261      22.415   7.224  25.308  1.00 15.23    -0.188 OA
HETATM    6  C2    D T1261      22.785  10.432  23.586  1.00 16.50     0.060 A 
HETATM    7  C3    D T1261      22.210  10.153  22.339  1.00 16.38     0.014 A 
HETATM    8 CL14   D T1261      23.412  12.068  23.903  1.00 19.41    -0.082 Cl
HETATM    9  C4    D T1261      21.707   8.877  22.063  1.00 16.96     0.028 A 
ENDBRANCH   1   2
BRANCH   1  10
HETATM   10  C8    D T1261      21.966   5.868  22.038  1.00 18.40     0.111 A 
HETATM   11  C9    D T1261      21.160   4.855  21.364  1.00 19.92     0.081 A 
HETATM   12  C10   D T1261      21.759   3.965  20.507  1.00 20.74     0.025 A 
HETATM   13 CL16   D T1261      19.421   4.768  21.707  1.00 19.84    -0.080 Cl
HETATM   14  C11   D T1261      23.112   4.081  20.310  1.00 22.72     0.059 A 
HETATM   15  C12   D T1261      23.905   5.048  20.933  1.00 20.86     0.013 A 
HETATM   16 CL15   D T1261      23.827   2.915  19.186  1.00 25.68    -0.082 Cl
HETATM   17  C13   D T1261      23.345   5.947  21.811  1.00 20.39     0.026 A 
ENDBRANCH   1  10
TORSDOF 2
ENDMDL
