MODEL 1
REMARK VINA RESULT:    -7.556      0.000      0.000
REMARK INTER + INTRA:          -8.976
REMARK INTER:                  -8.440
REMARK INTRA:                  -0.536
REMARK UNBOUND:                -0.536
REMARK  2 active torsions:
REMARK  status: ('A' for Active; 'I' for Inactive)
REMARK    1  A    between atoms: C5_4  and  O7_13 
REMARK    2  A    between atoms: C8_10  and  O7_13 
ROOT
HETATM    1  O7    D T1261       6.916   1.149  -6.538  1.00 16.95    -0.304 OA
ENDROOT
BRANCH   1   2
HETATM    2  C5    D T1261       5.981   1.904  -5.931  1.00 15.27     0.125 A 
HETATM    3  C6    D T1261       4.813   1.188  -5.387  1.00 15.82     0.154 A 
HETATM    4  C1    D T1261       3.829   1.917  -4.755  1.00 14.72     0.041 A 
HETATM    5  O17   D T1261       4.769  -0.172  -5.506  1.00 15.23    -0.188 OA
HETATM    6  C2    D T1261       3.957   3.297  -4.672  1.00 16.50     0.060 A 
HETATM    7  C3    D T1261       5.055   3.984  -5.207  1.00 16.38     0.014 A 
HETATM    8 CL14   D T1261       2.662   4.226  -3.876  1.00 19.41    -0.082 Cl
HETATM    9  C4    D T1261       6.086   3.280  -5.840  1.00 16.96     0.028 A 
ENDBRANCH   1   2
BRANCH   1  10
HETATM   10  C8    D T1261       7.052   1.285  -7.861  1.00 18.40     0.111 A 
HETATM   11  C9    D T1261       8.279   1.936  -8.309  1.00 19.92     0.081 A 
HETATM   12  C10   D T1261       8.487   2.155  -9.647  1.00 20.74     0.025 A 
HETATM   13 CL16   D T1261       9.459   2.476  -7.098  1.00 19.84    -0.080 Cl
HETATM   14  C11   D T1261       7.519   1.730 -10.522  1.00 22.72     0.059 A 
HETATM   15  C12   D T1261       6.341   1.093 -10.122  1.00 20.86     0.013 A 
HETATM   16 CL15   D T1261       7.847   2.027 -12.236  1.00 25.68    -0.082 Cl
HETATM   17  C13   D T1261       6.088   0.871  -8.787  1.00 20.39     0.026 A 
ENDBRANCH   1  10
TORSDOF 2
ENDMDL
MODEL 2
REMARK VINA RESULT:    -7.532      1.570      5.985
REMARK INTER + INTRA:          -8.949
REMARK INTER:                  -8.447
REMARK INTRA:                  -0.502
REMARK UNBOUND:                -0.536
REMARK  2 active torsions:
REMARK  status: ('A' for Active; 'I' for Inactive)
REMARK    1  A    between atoms: C5_4  and  O7_13 
REMARK    2  A    between atoms: C8_10  and  O7_13 
ROOT
HETATM    1  O7    D T1261       7.105   1.245  -6.822  1.00 16.95    -0.304 OA
ENDROOT
BRANCH   1   2
HETATM    2  C5    D T1261       7.233   1.399  -8.154  1.00 15.27     0.125 A 
HETATM    3  C6    D T1261       8.436   2.114  -8.617  1.00 15.82     0.154 A 
HETATM    4  C1    D T1261       8.613   2.297  -9.971  1.00 14.72     0.041 A 
HETATM    5  O17   D T1261       9.341   2.540  -7.686  1.00 15.23    -0.188 OA
HETATM    6  C2    D T1261       7.646   1.825 -10.850  1.00 16.50     0.060 A 
HETATM    7  C3    D T1261       6.491   1.164 -10.412  1.00 16.38     0.014 A 
HETATM    8 CL14   D T1261       7.877   2.095 -12.596  1.00 19.41    -0.082 Cl
HETATM    9  C4    D T1261       6.282   0.941  -9.046  1.00 16.96     0.028 A 
ENDBRANCH   1   2
BRANCH   1  10
HETATM   10  C8    D T1261       6.186   1.991  -6.202  1.00 18.40     0.111 A 
HETATM   11  C9    D T1261       5.000   1.278  -5.735  1.00 19.92     0.081 A 
HETATM   12  C10   D T1261       3.985   1.969  -5.123  1.00 20.74     0.025 A 
HETATM   13 CL16   D T1261       4.879  -0.470  -6.018  1.00 19.84    -0.080 Cl
HETATM   14  C11   D T1261       4.141   3.323  -4.961  1.00 22.72     0.059 A 
HETATM   15  C12   D T1261       5.270   4.027  -5.386  1.00 20.86     0.013 A 
HETATM   16 CL15   D T1261       2.806   4.159  -4.153  1.00 25.68    -0.082 Cl
HETATM   17  C13   D T1261       6.302   3.374  -6.020  1.00 20.39     0.026 A 
ENDBRANCH   1  10
TORSDOF 2
ENDMDL
MODEL 3
REMARK VINA RESULT:    -7.318      1.587      2.095
REMARK INTER + INTRA:          -8.710
REMARK INTER:                  -8.502
REMARK INTRA:                  -0.208
REMARK UNBOUND:                -0.536
REMARK  2 active torsions:
REMARK  status: ('A' for Active; 'I' for Inactive)
REMARK    1  A    between atoms: C5_4  and  O7_13 
REMARK    2  A    between atoms: C8_10  and  O7_13 
ROOT
HETATM    1  O7    D T1261       5.797   0.751  -7.271  1.00 16.95    -0.304 OA
ENDROOT
BRANCH   1   2
HETATM    2  C5    D T1261       5.221   1.702  -6.512  1.00 15.27     0.125 A 
HETATM    3  C6    D T1261       4.148   1.255  -5.606  1.00 15.82     0.154 A 
HETATM    4  C1    D T1261       3.528   2.191  -4.808  1.00 14.72     0.041 A 
HETATM    5  O17   D T1261       3.834  -0.074  -5.572  1.00 15.23    -0.188 OA
HETATM    6  C2    D T1261       3.915   3.522  -4.899  1.00 16.50     0.060 A 
HETATM    7  C3    D T1261       4.919   3.954  -5.775  1.00 16.38     0.014 A 
HETATM    8 CL14   D T1261       3.083   4.723  -3.880  1.00 19.41    -0.082 Cl
HETATM    9  C4    D T1261       5.588   3.033  -6.590  1.00 16.96     0.028 A 
ENDBRANCH   1   2
BRANCH   1  10
HETATM   10  C8    D T1261       6.321   1.131  -8.441  1.00 18.40     0.111 A 
HETATM   11  C9    D T1261       5.400   1.145  -9.574  1.00 19.92     0.081 A 
HETATM   12  C10   D T1261       5.858   1.483 -10.822  1.00 20.74     0.025 A 
HETATM   13 CL16   D T1261       3.709   0.673  -9.315  1.00 19.84    -0.080 Cl
HETATM   14  C11   D T1261       7.184   1.814 -10.948  1.00 22.72     0.059 A 
HETATM   15  C12   D T1261       8.084   1.821  -9.879  1.00 20.86     0.013 A 
HETATM   16 CL15   D T1261       7.715   2.254 -12.578  1.00 25.68    -0.082 Cl
HETATM   17  C13   D T1261       7.667   1.471  -8.615  1.00 20.39     0.026 A 
ENDBRANCH   1  10
TORSDOF 2
ENDMDL
MODEL 4
REMARK VINA RESULT:    -7.244      1.904      2.252
REMARK INTER + INTRA:          -8.627
REMARK INTER:                  -8.164
REMARK INTRA:                  -0.464
REMARK UNBOUND:                -0.536
REMARK  2 active torsions:
REMARK  status: ('A' for Active; 'I' for Inactive)
REMARK    1  A    between atoms: C5_4  and  O7_13 
REMARK    2  A    between atoms: C8_10  and  O7_13 
ROOT
HETATM    1  O7    D T1261       6.738   3.431  -7.047  1.00 16.95    -0.304 OA
ENDROOT
BRANCH   1   2
HETATM    2  C5    D T1261       6.037   2.603  -6.249  1.00 15.27     0.125 A 
HETATM    3  C6    D T1261       4.793   3.145  -5.674  1.00 15.82     0.154 A 
HETATM    4  C1    D T1261       4.040   2.336  -4.852  1.00 14.72     0.041 A 
HETATM    5  O17   D T1261       4.422   4.418  -6.006  1.00 15.23    -0.188 OA
HETATM    6  C2    D T1261       4.487   1.051  -4.573  1.00 16.50     0.060 A 
HETATM    7  C3    D T1261       5.680   0.539  -5.100  1.00 16.38     0.014 A 
HETATM    8 CL14   D T1261       3.515   0.028  -3.485  1.00 19.41    -0.082 Cl
HETATM    9  C4    D T1261       6.465   1.321  -5.955  1.00 16.96     0.028 A 
ENDBRANCH   1   2
BRANCH   1  10
HETATM   10  C8    D T1261       6.863   3.086  -8.332  1.00 18.40     0.111 A 
HETATM   11  C9    D T1261       8.167   2.556  -8.722  1.00 19.92     0.081 A 
HETATM   12  C10   D T1261       8.400   2.213 -10.030  1.00 20.74     0.025 A 
HETATM   13 CL16   D T1261       9.442   2.414  -7.496  1.00 19.84    -0.080 Cl
HETATM   14  C11   D T1261       7.373   2.373 -10.926  1.00 22.72     0.059 A 
HETATM   15  C12   D T1261       6.113   2.865 -10.577  1.00 20.86     0.013 A 
HETATM   16 CL15   D T1261       7.728   1.901 -12.595  1.00 25.68    -0.082 Cl
HETATM   17  C13   D T1261       5.845   3.237  -9.280  1.00 20.39     0.026 A 
ENDBRANCH   1  10
TORSDOF 2
ENDMDL
MODEL 5
REMARK VINA RESULT:    -7.126      2.060      5.951
REMARK INTER + INTRA:          -8.495
REMARK INTER:                  -8.009
REMARK INTRA:                  -0.486
REMARK UNBOUND:                -0.536
REMARK  2 active torsions:
REMARK  status: ('A' for Active; 'I' for Inactive)
REMARK    1  A    between atoms: C5_4  and  O7_13 
REMARK    2  A    between atoms: C8_10  and  O7_13 
ROOT
HETATM    1  O7    D T1261       6.401   3.396  -6.535  1.00 16.95    -0.304 OA
ENDROOT
BRANCH   1   2
HETATM    2  C5    D T1261       6.581   3.049  -7.824  1.00 15.27     0.125 A 
HETATM    3  C6    D T1261       7.947   2.648  -8.209  1.00 15.82     0.154 A 
HETATM    4  C1    D T1261       8.182   2.284  -9.517  1.00 14.72     0.041 A 
HETATM    5  O17   D T1261       8.915   2.625  -7.246  1.00 15.23    -0.188 OA
HETATM    6  C2    D T1261       7.136   2.329 -10.430  1.00 16.50     0.060 A 
HETATM    7  C3    D T1261       5.843   2.731 -10.073  1.00 16.38     0.014 A 
HETATM    8 CL14   D T1261       7.465   1.881 -12.123  1.00 19.41    -0.082 Cl
HETATM    9  C4    D T1261       5.556   3.090  -8.751  1.00 16.96     0.028 A 
ENDBRANCH   1   2
BRANCH   1  10
HETATM   10  C8    D T1261       5.746   2.532  -5.752  1.00 18.40     0.111 A 
HETATM   11  C9    D T1261       4.575   3.064  -5.062  1.00 19.92     0.081 A 
HETATM   12  C10   D T1261       3.864   2.262  -4.207  1.00 20.74     0.025 A 
HETATM   13 CL16   D T1261       4.125   4.763  -5.312  1.00 19.84    -0.080 Cl
HETATM   14  C11   D T1261       4.286   0.966  -4.047  1.00 22.72     0.059 A 
HETATM   15  C12   D T1261       5.395   0.427  -4.705  1.00 20.86     0.013 A 
HETATM   16 CL15   D T1261       3.322  -0.026  -2.942  1.00 25.68    -0.082 Cl
HETATM   17  C13   D T1261       6.145   1.205  -5.557  1.00 20.39     0.026 A 
ENDBRANCH   1  10
TORSDOF 2
ENDMDL
MODEL 6
REMARK VINA RESULT:    -7.067      2.288      6.126
REMARK INTER + INTRA:          -8.430
REMARK INTER:                  -7.949
REMARK INTRA:                  -0.481
REMARK UNBOUND:                -0.536
REMARK  2 active torsions:
REMARK  status: ('A' for Active; 'I' for Inactive)
REMARK    1  A    between atoms: C5_4  and  O7_13 
REMARK    2  A    between atoms: C8_10  and  O7_13 
ROOT
HETATM    1  O7    D T1261       4.294   2.015  -7.451  1.00 16.95    -0.304 OA
ENDROOT
BRANCH   1   2
HETATM    2  C5    D T1261       5.244   1.796  -8.380  1.00 15.27     0.125 A 
HETATM    3  C6    D T1261       5.381   2.821  -9.431  1.00 15.82     0.154 A 
HETATM    4  C1    D T1261       6.340   2.642 -10.404  1.00 14.72     0.041 A 
HETATM    5  O17   D T1261       4.572   3.920  -9.379  1.00 15.23    -0.188 OA
HETATM    6  C2    D T1261       7.127   1.497 -10.377  1.00 16.50     0.060 A 
HETATM    7  C3    D T1261       6.985   0.511  -9.393  1.00 16.38     0.014 A 
HETATM    8 CL14   D T1261       8.343   1.270 -11.659  1.00 19.41    -0.082 Cl
HETATM    9  C4    D T1261       6.036   0.662  -8.375  1.00 16.96     0.028 A 
ENDBRANCH   1   2
BRANCH   1  10
HETATM   10  C8    D T1261       4.700   2.376  -6.230  1.00 18.40     0.111 A 
HETATM   11  C9    D T1261       4.573   1.356  -5.193  1.00 19.92     0.081 A 
HETATM   12  C10   D T1261       4.928   1.650  -3.900  1.00 20.74     0.025 A 
HETATM   13 CL16   D T1261       3.913  -0.234  -5.623  1.00 19.84    -0.080 Cl
HETATM   14  C11   D T1261       5.409   2.908  -3.640  1.00 22.72     0.059 A 
HETATM   15  C12   D T1261       5.553   3.898  -4.615  1.00 20.86     0.013 A 
HETATM   16 CL15   D T1261       5.862   3.225  -1.958  1.00 25.68    -0.082 Cl
HETATM   17  C13   D T1261       5.191   3.649  -5.919  1.00 20.39     0.026 A 
ENDBRANCH   1  10
TORSDOF 2
ENDMDL
MODEL 7
REMARK VINA RESULT:    -6.786      2.756      3.516
REMARK INTER + INTRA:          -8.116
REMARK INTER:                  -7.630
REMARK INTRA:                  -0.486
REMARK UNBOUND:                -0.536
REMARK  2 active torsions:
REMARK  status: ('A' for Active; 'I' for Inactive)
REMARK    1  A    between atoms: C5_4  and  O7_13 
REMARK    2  A    between atoms: C8_10  and  O7_13 
ROOT
HETATM    1  O7    D T1261       4.064   2.751  -6.141  1.00 16.95    -0.304 OA
ENDROOT
BRANCH   1   2
HETATM    2  C5    D T1261       4.581   2.964  -4.916  1.00 15.27     0.125 A 
HETATM    3  C6    D T1261       4.442   4.328  -4.375  1.00 15.82     0.154 A 
HETATM    4  C1    D T1261       4.954   4.595  -3.124  1.00 14.72     0.041 A 
HETATM    5  O17   D T1261       3.784   5.262  -5.123  1.00 15.23    -0.188 OA
HETATM    6  C2    D T1261       5.601   3.583  -2.426  1.00 16.50     0.060 A 
HETATM    7  C3    D T1261       5.754   2.291  -2.946  1.00 16.38     0.014 A 
HETATM    8 CL14   D T1261       6.281   3.955  -0.822  1.00 19.41    -0.082 Cl
HETATM    9  C4    D T1261       5.232   1.972  -4.205  1.00 16.96     0.028 A 
ENDBRANCH   1   2
BRANCH   1  10
HETATM   10  C8    D T1261       4.913   2.413  -7.116  1.00 18.40     0.111 A 
HETATM   11  C9    D T1261       4.571   1.209  -7.867  1.00 19.92     0.081 A 
HETATM   12  C10   D T1261       5.406   0.764  -8.861  1.00 20.74     0.025 A 
HETATM   13 CL16   D T1261       3.097   0.317  -7.440  1.00 19.84    -0.080 Cl
HETATM   14  C11   D T1261       6.539   1.494  -9.118  1.00 22.72     0.059 A 
HETATM   15  C12   D T1261       6.884   2.656  -8.424  1.00 20.86     0.013 A 
HETATM   16 CL15   D T1261       7.570   0.879 -10.419  1.00 25.68    -0.082 Cl
HETATM   17  C13   D T1261       6.082   3.125  -7.408  1.00 20.39     0.026 A 
ENDBRANCH   1  10
TORSDOF 2
ENDMDL
MODEL 8
REMARK VINA RESULT:    -6.646      2.121      5.968
REMARK INTER + INTRA:          -7.960
REMARK INTER:                  -7.411
REMARK INTRA:                  -0.549
REMARK UNBOUND:                -0.536
REMARK  2 active torsions:
REMARK  status: ('A' for Active; 'I' for Inactive)
REMARK    1  A    between atoms: C5_4  and  O7_13 
REMARK    2  A    between atoms: C8_10  and  O7_13 
ROOT
HETATM    1  O7    D T1261       4.155   2.609  -6.349  1.00 16.95    -0.304 OA
ENDROOT
BRANCH   1   2
HETATM    2  C5    D T1261       5.029   2.317  -7.331  1.00 15.27     0.125 A 
HETATM    3  C6    D T1261       4.912   0.977  -7.934  1.00 15.82     0.154 A 
HETATM    4  C1    D T1261       5.783   0.631  -8.944  1.00 14.72     0.041 A 
HETATM    5  O17   D T1261       3.925   0.145  -7.487  1.00 15.23    -0.188 OA
HETATM    6  C2    D T1261       6.752   1.542  -9.344  1.00 16.50     0.060 A 
HETATM    7  C3    D T1261       6.880   2.809  -8.758  1.00 16.38     0.014 A 
HETATM    8 CL14   D T1261       7.887   1.067 -10.632  1.00 19.41    -0.082 Cl
HETATM    9  C4    D T1261       6.004   3.207  -7.742  1.00 16.96     0.028 A 
ENDBRANCH   1   2
BRANCH   1  10
HETATM   10  C8    D T1261       4.649   2.785  -5.119  1.00 18.40     0.111 A 
HETATM   11  C9    D T1261       4.462   4.115  -4.545  1.00 19.92     0.081 A 
HETATM   12  C10   D T1261       4.971   4.400  -3.303  1.00 20.74     0.025 A 
HETATM   13 CL16   D T1261       3.616   5.352  -5.496  1.00 19.84    -0.080 Cl
HETATM   14  C11   D T1261       5.633   3.398  -2.639  1.00 22.72     0.059 A 
HETATM   15  C12   D T1261       5.815   2.114  -3.159  1.00 20.86     0.013 A 
HETATM   16 CL15   D T1261       6.256   3.820  -1.036  1.00 25.68    -0.082 Cl
HETATM   17  C13   D T1261       5.335   1.794  -4.408  1.00 20.39     0.026 A 
ENDBRANCH   1  10
TORSDOF 2
ENDMDL
MODEL 9
REMARK VINA RESULT:    -6.615      1.494      5.891
REMARK INTER + INTRA:          -7.925
REMARK INTER:                  -7.794
REMARK INTRA:                  -0.131
REMARK UNBOUND:                -0.536
REMARK  2 active torsions:
REMARK  status: ('A' for Active; 'I' for Inactive)
REMARK    1  A    between atoms: C5_4  and  O7_13 
REMARK    2  A    between atoms: C8_10  and  O7_13 
ROOT
HETATM    1  O7    D T1261       6.054   1.039  -5.690  1.00 16.95    -0.304 OA
ENDROOT
BRANCH   1   2
HETATM    2  C5    D T1261       6.547   1.191  -6.934  1.00 15.27     0.125 A 
HETATM    3  C6    D T1261       5.738   0.630  -8.032  1.00 15.82     0.154 A 
HETATM    4  C1    D T1261       6.200   0.762  -9.323  1.00 14.72     0.041 A 
HETATM    5  O17   D T1261       4.550   0.030  -7.725  1.00 15.23    -0.188 OA
HETATM    6  C2    D T1261       7.416   1.394  -9.546  1.00 16.50     0.060 A 
HETATM    7  C3    D T1261       8.198   1.909  -8.504  1.00 16.38     0.014 A 
HETATM    8 CL14   D T1261       8.010   1.530 -11.220  1.00 19.41    -0.082 Cl
HETATM    9  C4    D T1261       7.757   1.814  -7.179  1.00 16.96     0.028 A 
ENDBRANCH   1   2
BRANCH   1  10
HETATM   10  C8    D T1261       5.351   2.055  -5.178  1.00 18.40     0.111 A 
HETATM   11  C9    D T1261       4.261   1.683  -4.281  1.00 19.92     0.081 A 
HETATM   12  C10   D T1261       3.460   2.656  -3.740  1.00 20.74     0.025 A 
HETATM   13 CL16   D T1261       3.967  -0.036  -3.948  1.00 19.84    -0.080 Cl
HETATM   14  C11   D T1261       3.735   3.962  -4.062  1.00 22.72     0.059 A 
HETATM   15  C12   D T1261       4.779   4.346  -4.907  1.00 20.86     0.013 A 
HETATM   16 CL15   D T1261       2.678   5.175  -3.324  1.00 25.68    -0.082 Cl
HETATM   17  C13   D T1261       5.594   3.398  -5.484  1.00 20.39     0.026 A 
ENDBRANCH   1  10
TORSDOF 2
ENDMDL
