MODEL 1
REMARK VINA RESULT:   -10.052      0.000      0.000
REMARK INTER + INTRA:         -17.475
REMARK INTER:                 -15.929
REMARK INTRA:                  -1.546
REMARK UNBOUND:                -1.546
REMARK  10 active torsions:
REMARK  status: ('A' for Active; 'I' for Inactive)
REMARK    1  A    between atoms: C7_7  and  C8_8 
REMARK       I    between atoms: C8_8  and  N9_9 
REMARK    2  A    between atoms: N9_9  and  C40_40 
REMARK    3  A    between atoms: C16_16  and  N18_18 
REMARK    4  A    between atoms: N18_18  and  C19_19 
REMARK    5  A    between atoms: C20_20  and  O25_25 
REMARK    6  A    between atoms: C22_22  and  C26_26 
REMARK    7  A    between atoms: O25_25  and  C36_36 
REMARK       I    between atoms: C26_26  and  N27_27 
REMARK    8  A    between atoms: N27_27  and  C29_29 
REMARK    9  A    between atoms: C41_41  and  C48_48 
REMARK   10  A    between atoms: C45_45  and  C46_46 
ROOT
HETATM    1  C1    D T1796     -11.088   0.415  -8.763  1.00 54.88     0.034 C 
HETATM    2  C2    D T1796      -9.931   1.257  -8.098  1.00 56.58     0.034 C 
HETATM    3  C3    D T1796     -12.413   0.622  -8.094  1.00 57.01     0.021 A 
HETATM    4  C4    D T1796     -12.622   1.451  -7.098  1.00 58.76     0.094 A 
HETATM    5  N5    D T1796     -13.978   1.328  -6.741  1.00 60.43    -0.248 N 
HETATM    6  N6    D T1796     -14.568   0.417  -7.542  1.00 59.38    -0.165 NA
HETATM    7  C7    D T1796     -13.684  -0.021  -8.349  1.00 58.40     0.156 A 
HETATM    8  C11   D T1796     -14.673   2.041  -5.700  1.00 60.75     0.154 C 
HETATM    9  C12   D T1796     -11.608   2.326  -6.537  1.00 58.23     0.114 A 
HETATM   10  C13   D T1796     -10.349   2.274  -7.014  1.00 57.45     0.018 A 
HETATM   11  C14   D T1796      -9.373   3.205  -6.438  1.00 57.39     0.115 A 
HETATM   12  N15   D T1796      -9.740   4.019  -5.509  1.00 58.28    -0.058 NA
HETATM   13  C16   D T1796     -11.091   4.036  -5.026  1.00 61.20     0.750 A 
HETATM   14  N17   D T1796     -11.944   3.238  -5.522  1.00 59.17    -0.058 NA
ENDROOT
BRANCH  13  15
HETATM   15  N18   D T1796     -11.522   4.921  -4.011  1.00 64.60    -0.057 NA
BRANCH  15  16
HETATM   16  C19   D T1796     -12.670   4.847  -3.154  1.00 68.09     0.122 A 
HETATM   17  C20   D T1796     -13.291   6.005  -2.916  1.00 69.46     0.120 A 
HETATM   18  C21   D T1796     -14.521   6.040  -2.058  1.00 71.69     0.031 A 
HETATM   19  C22   D T1796     -15.005   4.908  -1.521  1.00 76.06     0.060 A 
HETATM   20  C23   D T1796     -14.314   3.615  -1.761  1.00 74.16     0.006 A 
HETATM   21  C24   D T1796     -13.197   3.583  -2.543  1.00 70.39     0.022 A 
BRANCH  17  22
HETATM   22  O25   D T1796     -12.708   7.150  -3.527  1.00 69.34    -0.252 OA
BRANCH  22  23
HETATM   23  C36   D T1796     -11.977   8.057  -2.721  1.00 69.66     0.530 C 
HETATM   24  F37   D T1796     -10.647   7.670  -2.721  1.00 69.10    -0.144 F 
HETATM   25  F38   D T1796     -12.462   8.048  -1.426  1.00 71.00    -0.144 F 
HETATM   26  F39   D T1796     -12.091   9.357  -3.210  1.00 69.28    -0.144 F 
ENDBRANCH  22  23
ENDBRANCH  17  22
BRANCH  19  27
HETATM   27  C26   D T1796     -16.217   4.965  -0.735  1.00 80.81     0.275 C 
HETATM   28  N27   D T1796     -16.346   4.274   0.410  1.00 85.93    -0.236 NA
HETATM   29  O28   D T1796     -17.154   5.663  -1.178  1.00 81.56    -0.266 OA
BRANCH  28  30
HETATM   30  C29   D T1796     -17.609   4.262   1.146  1.00 90.09     0.111 C 
HETATM   31  C30   D T1796     -17.318   4.155   2.676  1.00 91.93     0.060 C 
HETATM   32  C31   D T1796     -18.654   4.020   3.470  1.00 93.68     0.252 C 
HETATM   33  N32   D T1796     -19.432   2.840   2.965  1.00 95.57     0.139 N 
HETATM   34  C33   D T1796     -19.804   3.002   1.519  1.00 93.88     0.252 C 
HETATM   35  C35   D T1796     -20.661   2.673   3.773  1.00 96.21     0.285 C 
HETATM   36  C34   D T1796     -18.515   3.069   0.663  1.00 91.28     0.060 C 
ENDBRANCH  28  30
ENDBRANCH  19  27
ENDBRANCH  15  16
ENDBRANCH  13  15
BRANCH   7  37
HETATM   37  C8    D T1796     -13.994  -1.002  -9.346  1.00 58.64     0.298 C 
HETATM   38  N9    D T1796     -13.212  -2.081  -9.368  1.00 57.71    -0.207 NA
HETATM   39  O10   D T1796     -14.926  -0.857 -10.151  1.00 57.40    -0.263 OA
BRANCH  38  40
HETATM   40  C40   D T1796     -13.405  -3.197 -10.198  1.00 59.16     0.077 A 
HETATM   41  C41   D T1796     -12.638  -3.292 -11.315  1.00 59.34    -0.005 A 
HETATM   42  C42   D T1796     -12.813  -4.456 -12.220  1.00 59.63    -0.003 A 
HETATM   43  C43   D T1796     -13.729  -5.413 -11.942  1.00 59.97    -0.001 A 
HETATM   44  C44   D T1796     -14.566  -5.320 -10.731  1.00 60.46    -0.003 A 
HETATM   45  C45   D T1796     -14.434  -4.268  -9.877  1.00 60.90    -0.005 A 
BRANCH  41  46
HETATM   46  C48   D T1796     -11.606  -2.191 -11.600  1.00 60.16     0.028 C 
HETATM   47  C49   D T1796     -11.055  -2.201 -13.029  1.00 63.57     0.005 C 
ENDBRANCH  41  46
BRANCH  45  48
HETATM   48  C46   D T1796     -15.299  -4.154  -8.602  1.00 63.47     0.028 C 
HETATM   49  C47   D T1796     -15.913  -5.480  -8.104  1.00 66.56     0.005 C 
ENDBRANCH  45  48
ENDBRANCH  38  40
ENDBRANCH   7  37
TORSDOF 10
ENDMDL
MODEL 2
REMARK VINA RESULT:    -9.928      0.473      1.968
REMARK INTER + INTRA:         -17.277
REMARK INTER:                 -15.674
REMARK INTRA:                  -1.603
REMARK UNBOUND:                -1.546
REMARK  10 active torsions:
REMARK  status: ('A' for Active; 'I' for Inactive)
REMARK    1  A    between atoms: C7_7  and  C8_8 
REMARK       I    between atoms: C8_8  and  N9_9 
REMARK    2  A    between atoms: N9_9  and  C40_40 
REMARK    3  A    between atoms: C16_16  and  N18_18 
REMARK    4  A    between atoms: N18_18  and  C19_19 
REMARK    5  A    between atoms: C20_20  and  O25_25 
REMARK    6  A    between atoms: C22_22  and  C26_26 
REMARK    7  A    between atoms: O25_25  and  C36_36 
REMARK       I    between atoms: C26_26  and  N27_27 
REMARK    8  A    between atoms: N27_27  and  C29_29 
REMARK    9  A    between atoms: C41_41  and  C48_48 
REMARK   10  A    between atoms: C45_45  and  C46_46 
ROOT
HETATM    1  C1    D T1796     -11.365   0.361  -8.655  1.00 54.88     0.034 C 
HETATM    2  C2    D T1796     -10.186   1.230  -8.068  1.00 56.58     0.034 C 
HETATM    3  C3    D T1796     -12.654   0.562  -7.918  1.00 57.01     0.021 A 
HETATM    4  C4    D T1796     -12.822   1.406  -6.927  1.00 58.76     0.094 A 
HETATM    5  N5    D T1796     -14.155   1.272  -6.495  1.00 60.43    -0.248 N 
HETATM    6  N6    D T1796     -14.774   0.339  -7.247  1.00 59.38    -0.165 NA
HETATM    7  C7    D T1796     -13.928  -0.102  -8.094  1.00 58.40     0.156 A 
HETATM    8  C11   D T1796     -14.802   1.993  -5.430  1.00 60.75     0.154 C 
HETATM    9  C12   D T1796     -11.791   2.304  -6.436  1.00 58.23     0.114 A 
HETATM   10  C13   D T1796     -10.558   2.260  -6.980  1.00 57.45     0.018 A 
HETATM   11  C14   D T1796      -9.566   3.213  -6.474  1.00 57.39     0.115 A 
HETATM   12  N15   D T1796      -9.894   4.039  -5.540  1.00 58.28    -0.058 NA
HETATM   13  C16   D T1796     -11.217   4.046  -4.984  1.00 61.20     0.750 A 
HETATM   14  N17   D T1796     -12.084   3.229  -5.420  1.00 59.17    -0.058 NA
ENDROOT
BRANCH  13  15
HETATM   15  N18   D T1796     -11.605   4.943  -3.963  1.00 64.60    -0.057 NA
BRANCH  15  16
HETATM   16  C19   D T1796     -12.729   4.892  -3.073  1.00 68.09     0.122 A 
HETATM   17  C20   D T1796     -13.366   6.050  -2.878  1.00 69.46     0.120 A 
HETATM   18  C21   D T1796     -14.575   6.106  -1.991  1.00 71.69     0.031 A 
HETATM   19  C22   D T1796     -15.024   4.994  -1.385  1.00 76.06     0.060 A 
HETATM   20  C23   D T1796     -14.314   3.703  -1.578  1.00 74.16     0.006 A 
HETATM   21  C24   D T1796     -13.217   3.652  -2.387  1.00 70.39     0.022 A 
BRANCH  17  22
HETATM   22  O25   D T1796     -12.821   7.172  -3.560  1.00 69.34    -0.252 OA
BRANCH  22  23
HETATM   23  C36   D T1796     -12.100   8.139  -2.817  1.00 69.66     0.530 C 
HETATM   24  F37   D T1796     -10.770   7.753  -2.769  1.00 69.10    -0.144 F 
HETATM   25  F38   D T1796     -12.601   8.230  -1.532  1.00 71.00    -0.144 F 
HETATM   26  F39   D T1796     -12.206   9.398  -3.407  1.00 69.28    -0.144 F 
ENDBRANCH  22  23
ENDBRANCH  17  22
BRANCH  19  27
HETATM   27  C26   D T1796     -16.217   5.069  -0.572  1.00 80.81     0.275 C 
HETATM   28  N27   D T1796     -16.325   4.389   0.581  1.00 85.93    -0.236 NA
HETATM   29  O28   D T1796     -17.157   5.773  -0.999  1.00 81.56    -0.266 OA
BRANCH  28  30
HETATM   30  C29   D T1796     -17.571   4.395   1.347  1.00 90.09     0.111 C 
HETATM   31  C30   D T1796     -17.260   4.105   2.849  1.00 91.93     0.060 C 
HETATM   32  C31   D T1796     -18.587   3.989   3.661  1.00 93.68     0.252 C 
HETATM   33  N32   D T1796     -19.465   2.931   3.057  1.00 95.57     0.139 N 
HETATM   34  C33   D T1796     -19.851   3.272   1.647  1.00 93.88     0.252 C 
HETATM   35  C35   D T1796     -20.687   2.774   3.877  1.00 96.21     0.285 C 
HETATM   36  C34   D T1796     -18.577   3.332   0.768  1.00 91.28     0.060 C 
ENDBRANCH  28  30
ENDBRANCH  19  27
ENDBRANCH  15  16
ENDBRANCH  13  15
BRANCH   7  37
HETATM   37  C8    D T1796     -14.278  -1.104  -9.055  1.00 58.64     0.298 C 
HETATM   38  N9    D T1796     -13.583  -2.240  -8.996  1.00 57.71    -0.207 NA
HETATM   39  O10   D T1796     -15.166  -0.927  -9.903  1.00 57.40    -0.263 OA
BRANCH  38  40
HETATM   40  C40   D T1796     -13.834  -3.377  -9.780  1.00 59.16     0.077 A 
HETATM   41  C41   D T1796     -14.517  -4.401  -9.204  1.00 59.34    -0.005 A 
HETATM   42  C42   D T1796     -14.800  -5.623  -9.999  1.00 59.63    -0.003 A 
HETATM   43  C43   D T1796     -14.381  -5.722 -11.283  1.00 59.97    -0.001 A 
HETATM   44  C44   D T1796     -13.640  -4.616 -11.917  1.00 60.46    -0.003 A 
HETATM   45  C45   D T1796     -13.362  -3.480 -11.220  1.00 60.90    -0.005 A 
BRANCH  41  46
HETATM   46  C48   D T1796     -14.981  -4.256  -7.748  1.00 60.16     0.028 C 
HETATM   47  C49   D T1796     -16.453  -3.866  -7.593  1.00 63.57     0.005 C 
ENDBRANCH  41  46
BRANCH  45  48
HETATM   48  C46   D T1796     -12.589  -2.308 -11.867  1.00 63.47     0.028 C 
HETATM   49  C47   D T1796     -11.053  -2.455 -11.865  1.00 66.56     0.005 C 
ENDBRANCH  45  48
ENDBRANCH  38  40
ENDBRANCH   7  37
TORSDOF 10
ENDMDL
MODEL 3
REMARK VINA RESULT:    -9.689      4.528     11.442
REMARK INTER + INTRA:         -16.899
REMARK INTER:                 -15.292
REMARK INTRA:                  -1.606
REMARK UNBOUND:                -1.546
REMARK  10 active torsions:
REMARK  status: ('A' for Active; 'I' for Inactive)
REMARK    1  A    between atoms: C7_7  and  C8_8 
REMARK       I    between atoms: C8_8  and  N9_9 
REMARK    2  A    between atoms: N9_9  and  C40_40 
REMARK    3  A    between atoms: C16_16  and  N18_18 
REMARK    4  A    between atoms: N18_18  and  C19_19 
REMARK    5  A    between atoms: C20_20  and  O25_25 
REMARK    6  A    between atoms: C22_22  and  C26_26 
REMARK    7  A    between atoms: O25_25  and  C36_36 
REMARK       I    between atoms: C26_26  and  N27_27 
REMARK    8  A    between atoms: N27_27  and  C29_29 
REMARK    9  A    between atoms: C41_41  and  C48_48 
REMARK   10  A    between atoms: C45_45  and  C46_46 
ROOT
HETATM    1  C1    D T1796      -9.919   4.474  -4.875  1.00 54.88     0.034 C 
HETATM    2  C2    D T1796      -9.241   3.695  -6.069  1.00 56.58     0.034 C 
HETATM    3  C3    D T1796     -11.374   4.150  -4.725  1.00 57.01     0.021 A 
HETATM    4  C4    D T1796     -12.022   3.275  -5.458  1.00 58.76     0.094 A 
HETATM    5  N5    D T1796     -13.361   3.288  -5.024  1.00 60.43    -0.248 N 
HETATM    6  N6    D T1796     -13.495   4.182  -4.022  1.00 59.38    -0.165 NA
HETATM    7  C7    D T1796     -12.352   4.709  -3.816  1.00 58.40     0.156 A 
HETATM    8  C11   D T1796     -14.449   2.493  -5.531  1.00 60.75     0.154 C 
HETATM    9  C12   D T1796     -11.406   2.456  -6.487  1.00 58.23     0.114 A 
HETATM   10  C13   D T1796     -10.097   2.614  -6.766  1.00 57.45     0.018 A 
HETATM   11  C14   D T1796      -9.516   1.737  -7.787  1.00 57.39     0.115 A 
HETATM   12  N15   D T1796     -10.262   0.868  -8.379  1.00 58.28    -0.058 NA
HETATM   13  C16   D T1796     -11.653   0.738  -8.056  1.00 61.20     0.750 A 
HETATM   14  N17   D T1796     -12.163   1.489  -7.169  1.00 59.17    -0.058 NA
ENDROOT
BRANCH  13  15
HETATM   15  N18   D T1796     -12.493  -0.209  -8.685  1.00 64.60    -0.057 NA
BRANCH  15  16
HETATM   16  C19   D T1796     -13.400  -1.159  -8.110  1.00 68.09     0.122 A 
HETATM   17  C20   D T1796     -14.041  -1.947  -8.978  1.00 69.46     0.120 A 
HETATM   18  C21   D T1796     -14.990  -2.998  -8.484  1.00 71.69     0.031 A 
HETATM   19  C22   D T1796     -15.204  -3.154  -7.167  1.00 76.06     0.060 A 
HETATM   20  C23   D T1796     -14.513  -2.273  -6.192  1.00 74.16     0.006 A 
HETATM   21  C24   D T1796     -13.648  -1.319  -6.640  1.00 70.39     0.022 A 
BRANCH  17  22
HETATM   22  O25   D T1796     -13.751  -1.710 -10.350  1.00 69.34    -0.252 OA
BRANCH  22  23
HETATM   23  C36   D T1796     -12.916  -2.623 -11.039  1.00 69.66     0.530 C 
HETATM   24  F37   D T1796     -12.228  -3.379 -10.104  1.00 69.10    -0.144 F 
HETATM   25  F38   D T1796     -12.015  -1.944 -11.838  1.00 71.00    -0.144 F 
HETATM   26  F39   D T1796     -13.669  -3.460 -11.861  1.00 69.28    -0.144 F 
ENDBRANCH  22  23
ENDBRANCH  17  22
BRANCH  19  27
HETATM   27  C26   D T1796     -16.090  -4.205  -6.718  1.00 80.81     0.275 C 
HETATM   28  N27   D T1796     -16.516  -5.168  -7.551  1.00 85.93    -0.236 NA
HETATM   29  O28   D T1796     -16.468  -4.166  -5.527  1.00 81.56    -0.266 OA
BRANCH  28  30
HETATM   30  C29   D T1796     -17.487  -6.170  -7.113  1.00 90.09     0.111 C 
HETATM   31  C30   D T1796     -17.100  -7.563  -7.703  1.00 91.93     0.060 C 
HETATM   32  C31   D T1796     -18.190  -8.621  -7.345  1.00 93.68     0.252 C 
HETATM   33  N32   D T1796     -19.531  -8.158  -7.836  1.00 95.57     0.139 N 
HETATM   34  C33   D T1796     -19.947  -6.873  -7.180  1.00 93.88     0.252 C 
HETATM   35  C35   D T1796     -20.546  -9.200  -7.561  1.00 96.21     0.285 C 
HETATM   36  C34   D T1796     -18.940  -5.758  -7.556  1.00 91.28     0.060 C 
ENDBRANCH  28  30
ENDBRANCH  19  27
ENDBRANCH  15  16
ENDBRANCH  13  15
BRANCH   7  37
HETATM   37  C8    D T1796     -12.152   5.698  -2.800  1.00 58.64     0.298 C 
HETATM   38  N9    D T1796     -13.047   6.684  -2.758  1.00 57.71    -0.207 NA
HETATM   39  O10   D T1796     -11.196   5.653  -2.011  1.00 57.40    -0.263 OA
BRANCH  38  40
HETATM   40  C40   D T1796     -13.087   7.693  -1.783  1.00 59.16     0.077 A 
HETATM   41  C41   D T1796     -12.499   8.881  -2.083  1.00 59.34    -0.005 A 
HETATM   42  C42   D T1796     -12.517   9.975  -1.078  1.00 59.63    -0.003 A 
HETATM   43  C43   D T1796     -13.108   9.794   0.126  1.00 59.97    -0.001 A 
HETATM   44  C44   D T1796     -13.750   8.509   0.460  1.00 60.46    -0.003 A 
HETATM   45  C45   D T1796     -13.754   7.483  -0.434  1.00 60.90    -0.005 A 
BRANCH  41  46
HETATM   46  C48   D T1796     -11.840   9.056  -3.459  1.00 60.16     0.028 C 
HETATM   47  C49   D T1796     -12.567  10.034  -4.385  1.00 63.57     0.005 C 
ENDBRANCH  41  46
BRANCH  45  48
HETATM   48  C46   D T1796     -14.423   6.130  -0.105  1.00 63.47     0.028 C 
HETATM   49  C47   D T1796     -14.991   6.010   1.326  1.00 66.56     0.005 C 
ENDBRANCH  45  48
ENDBRANCH  38  40
ENDBRANCH   7  37
TORSDOF 10
ENDMDL
MODEL 4
REMARK VINA RESULT:    -9.285      4.479     11.389
REMARK INTER + INTRA:         -16.258
REMARK INTER:                 -14.545
REMARK INTRA:                  -1.713
REMARK UNBOUND:                -1.546
REMARK  10 active torsions:
REMARK  status: ('A' for Active; 'I' for Inactive)
REMARK    1  A    between atoms: C7_7  and  C8_8 
REMARK       I    between atoms: C8_8  and  N9_9 
REMARK    2  A    between atoms: N9_9  and  C40_40 
REMARK    3  A    between atoms: C16_16  and  N18_18 
REMARK    4  A    between atoms: N18_18  and  C19_19 
REMARK    5  A    between atoms: C20_20  and  O25_25 
REMARK    6  A    between atoms: C22_22  and  C26_26 
REMARK    7  A    between atoms: O25_25  and  C36_36 
REMARK       I    between atoms: C26_26  and  N27_27 
REMARK    8  A    between atoms: N27_27  and  C29_29 
REMARK    9  A    between atoms: C41_41  and  C48_48 
REMARK   10  A    between atoms: C45_45  and  C46_46 
ROOT
HETATM    1  C1    D T1796     -12.289   4.131  -4.429  1.00 54.88     0.034 C 
HETATM    2  C2    D T1796     -11.161   3.786  -5.478  1.00 56.58     0.034 C 
HETATM    3  C3    D T1796     -13.533   3.320  -4.629  1.00 57.01     0.021 A 
HETATM    4  C4    D T1796     -13.672   2.379  -5.535  1.00 58.76     0.094 A 
HETATM    5  N5    D T1796     -14.984   1.885  -5.415  1.00 60.43    -0.248 N 
HETATM    6  N6    D T1796     -15.619   2.545  -4.424  1.00 59.38    -0.165 NA
HETATM    7  C7    D T1796     -14.803   3.395  -3.937  1.00 58.40     0.156 A 
HETATM    8  C11   D T1796     -15.597   0.843  -6.196  1.00 60.75     0.154 C 
HETATM    9  C12   D T1796     -12.618   1.956  -6.439  1.00 58.23     0.114 A 
HETATM   10  C13   D T1796     -11.423   2.580  -6.406  1.00 57.45     0.018 A 
HETATM   11  C14   D T1796     -10.382   2.088  -7.313  1.00 57.39     0.115 A 
HETATM   12  N15   D T1796     -10.640   1.102  -8.103  1.00 58.28    -0.058 NA
HETATM   13  C16   D T1796     -11.928   0.471  -8.111  1.00 61.20     0.750 A 
HETATM   14  N17   D T1796     -12.833   0.886  -7.324  1.00 59.17    -0.058 NA
ENDROOT
BRANCH  13  15
HETATM   15  N18   D T1796     -12.235  -0.614  -8.962  1.00 64.60    -0.057 NA
BRANCH  15  16
HETATM   16  C19   D T1796     -13.049  -1.770  -8.721  1.00 68.09     0.122 A 
HETATM   17  C20   D T1796     -12.864  -2.794  -9.559  1.00 69.46     0.120 A 
HETATM   18  C21   D T1796     -13.640  -4.066  -9.380  1.00 71.69     0.031 A 
HETATM   19  C22   D T1796     -14.527  -4.183  -8.378  1.00 76.06     0.060 A 
HETATM   20  C23   D T1796     -14.757  -3.047  -7.450  1.00 74.16     0.006 A 
HETATM   21  C24   D T1796     -14.049  -1.892  -7.611  1.00 70.39     0.022 A 
BRANCH  17  22
HETATM   22  O25   D T1796     -11.905  -2.579 -10.588  1.00 69.34    -0.252 OA
BRANCH  22  23
HETATM   23  C36   D T1796     -12.310  -2.712 -11.938  1.00 69.66     0.530 C 
HETATM   24  F37   D T1796     -11.509  -1.895 -12.719  1.00 69.10    -0.144 F 
HETATM   25  F38   D T1796     -13.633  -2.336 -12.083  1.00 71.00    -0.144 F 
HETATM   26  F39   D T1796     -12.193  -4.035 -12.363  1.00 69.28    -0.144 F 
ENDBRANCH  22  23
ENDBRANCH  17  22
BRANCH  19  27
HETATM   27  C26   D T1796     -15.227  -5.436  -8.203  1.00 80.81     0.275 C 
HETATM   28  N27   D T1796     -16.500  -5.476  -7.777  1.00 85.93    -0.236 NA
HETATM   29  O28   D T1796     -14.591  -6.486  -8.438  1.00 81.56    -0.266 OA
BRANCH  28  30
HETATM   30  C29   D T1796     -17.168  -6.749  -7.511  1.00 90.09     0.111 C 
HETATM   31  C30   D T1796     -18.053  -7.139  -8.737  1.00 91.93     0.060 C 
HETATM   32  C31   D T1796     -18.866  -8.433  -8.424  1.00 93.68     0.252 C 
HETATM   33  N32   D T1796     -19.687  -8.234  -7.183  1.00 95.57     0.139 N 
HETATM   34  C33   D T1796     -18.821  -7.968  -5.985  1.00 93.88     0.252 C 
HETATM   35  C35   D T1796     -20.512  -9.437  -6.936  1.00 96.21     0.285 C 
HETATM   36  C34   D T1796     -18.037  -6.651  -6.202  1.00 91.28     0.060 C 
ENDBRANCH  28  30
ENDBRANCH  19  27
ENDBRANCH  15  16
ENDBRANCH  13  15
BRANCH   7  37
HETATM   37  C8    D T1796     -15.169   4.255  -2.852  1.00 58.64     0.298 C 
HETATM   38  N9    D T1796     -14.747   3.884  -1.643  1.00 57.71    -0.207 NA
HETATM   39  O10   D T1796     -15.848   5.279  -3.019  1.00 57.40    -0.263 OA
BRANCH  38  40
HETATM   40  C40   D T1796     -14.914   4.633  -0.469  1.00 59.16     0.077 A 
HETATM   41  C41   D T1796     -13.935   5.515  -0.139  1.00 59.34    -0.005 A 
HETATM   42  C42   D T1796     -14.073   6.326   1.098  1.00 59.63    -0.003 A 
HETATM   43  C43   D T1796     -15.160   6.189   1.893  1.00 59.97    -0.001 A 
HETATM   44  C44   D T1796     -16.229   5.236   1.542  1.00 60.46    -0.003 A 
HETATM   45  C45   D T1796     -16.139   4.476   0.418  1.00 60.90    -0.005 A 
BRANCH  41  46
HETATM   46  C48   D T1796     -12.716   5.648  -1.063  1.00 60.16     0.028 C 
HETATM   47  C49   D T1796     -12.606   7.003  -1.768  1.00 63.57     0.005 C 
ENDBRANCH  41  46
BRANCH  45  48
HETATM   48  C46   D T1796     -17.250   3.474   0.031  1.00 63.47     0.028 C 
HETATM   49  C47   D T1796     -18.437   3.399   1.015  1.00 66.56     0.005 C 
ENDBRANCH  45  48
ENDBRANCH  38  40
ENDBRANCH   7  37
TORSDOF 10
ENDMDL
MODEL 5
REMARK VINA RESULT:    -9.251      5.813     11.078
REMARK INTER + INTRA:         -16.206
REMARK INTER:                 -14.341
REMARK INTRA:                  -1.865
REMARK UNBOUND:                -1.546
REMARK  10 active torsions:
REMARK  status: ('A' for Active; 'I' for Inactive)
REMARK    1  A    between atoms: C7_7  and  C8_8 
REMARK       I    between atoms: C8_8  and  N9_9 
REMARK    2  A    between atoms: N9_9  and  C40_40 
REMARK    3  A    between atoms: C16_16  and  N18_18 
REMARK    4  A    between atoms: N18_18  and  C19_19 
REMARK    5  A    between atoms: C20_20  and  O25_25 
REMARK    6  A    between atoms: C22_22  and  C26_26 
REMARK    7  A    between atoms: O25_25  and  C36_36 
REMARK       I    between atoms: C26_26  and  N27_27 
REMARK    8  A    between atoms: N27_27  and  C29_29 
REMARK    9  A    between atoms: C41_41  and  C48_48 
REMARK   10  A    between atoms: C45_45  and  C46_46 
ROOT
HETATM    1  C1    D T1796     -11.805   1.549  -7.774  1.00 54.88     0.034 C 
HETATM    2  C2    D T1796     -11.375   0.487  -8.858  1.00 56.58     0.034 C 
HETATM    3  C3    D T1796     -13.188   1.313  -7.247  1.00 57.01     0.021 A 
HETATM    4  C4    D T1796     -13.954   0.305  -7.594  1.00 58.76     0.094 A 
HETATM    5  N5    D T1796     -15.172   0.460  -6.905  1.00 60.43    -0.248 N 
HETATM    6  N6    D T1796     -15.113   1.572  -6.144  1.00 59.38    -0.165 NA
HETATM    7  C7    D T1796     -13.966   2.102  -6.316  1.00 58.40     0.156 A 
HETATM    8  C11   D T1796     -16.322  -0.403  -6.965  1.00 60.75     0.154 C 
HETATM    9  C12   D T1796     -13.549  -0.754  -8.500  1.00 58.23     0.114 A 
HETATM   10  C13   D T1796     -12.332  -0.705  -9.078  1.00 57.45     0.018 A 
HETATM   11  C14   D T1796     -11.959  -1.819  -9.955  1.00 57.39     0.115 A 
HETATM   12  N15   D T1796     -12.791  -2.784 -10.149  1.00 58.28    -0.058 NA
HETATM   13  C16   D T1796     -14.080  -2.793  -9.519  1.00 61.20     0.750 A 
HETATM   14  N17   D T1796     -14.409  -1.836  -8.753  1.00 59.17    -0.058 NA
ENDROOT
BRANCH  13  15
HETATM   15  N18   D T1796     -15.010  -3.839  -9.711  1.00 64.60    -0.057 NA
BRANCH  15  16
HETATM   16  C19   D T1796     -16.154  -4.207  -8.928  1.00 68.09     0.122 A 
HETATM   17  C20   D T1796     -16.012  -5.299  -8.171  1.00 69.46     0.120 A 
HETATM   18  C21   D T1796     -17.135  -5.757  -7.288  1.00 71.69     0.031 A 
HETATM   19  C22   D T1796     -18.292  -5.074  -7.253  1.00 76.06     0.060 A 
HETATM   20  C23   D T1796     -18.470  -3.869  -8.103  1.00 74.16     0.006 A 
HETATM   21  C24   D T1796     -17.448  -3.451  -8.903  1.00 70.39     0.022 A 
BRANCH  17  22
HETATM   22  O25   D T1796     -14.754  -5.956  -8.273  1.00 69.34    -0.252 OA
BRANCH  22  23
HETATM   23  C36   D T1796     -14.685  -7.197  -8.951  1.00 69.66     0.530 C 
HETATM   24  F37   D T1796     -14.470  -6.950 -10.297  1.00 69.10    -0.144 F 
HETATM   25  F38   D T1796     -15.866  -7.899  -8.792  1.00 71.00    -0.144 F 
HETATM   26  F39   D T1796     -13.650  -7.982  -8.443  1.00 69.28    -0.144 F 
ENDBRANCH  22  23
ENDBRANCH  17  22
BRANCH  19  27
HETATM   27  C26   D T1796     -19.340  -5.512  -6.360  1.00 80.81     0.275 C 
HETATM   28  N27   D T1796     -19.326  -6.736  -5.806  1.00 85.93    -0.236 NA
HETATM   29  O28   D T1796     -20.279  -4.716  -6.143  1.00 81.56    -0.266 OA
BRANCH  28  30
HETATM   30  C29   D T1796     -20.438  -7.204  -4.981  1.00 90.09     0.111 C 
HETATM   31  C30   D T1796     -19.915  -8.247  -3.944  1.00 91.93     0.060 C 
HETATM   32  C31   D T1796     -21.106  -8.848  -3.135  1.00 93.68     0.252 C 
HETATM   33  N32   D T1796     -22.110  -9.449  -4.075  1.00 95.57     0.139 N 
HETATM   34  C33   D T1796     -22.692  -8.416  -4.997  1.00 93.88     0.252 C 
HETATM   35  C35   D T1796     -23.199 -10.083  -3.298  1.00 96.21     0.285 C 
HETATM   36  C34   D T1796     -21.566  -7.830  -5.884  1.00 91.28     0.060 C 
ENDBRANCH  28  30
ENDBRANCH  19  27
ENDBRANCH  15  16
ENDBRANCH  13  15
BRANCH   7  37
HETATM   37  C8    D T1796     -13.580   3.301  -5.634  1.00 58.64     0.298 C 
HETATM   38  N9    D T1796     -12.618   3.171  -4.721  1.00 57.71    -0.207 NA
HETATM   39  O10   D T1796     -14.113   4.396  -5.867  1.00 57.40    -0.263 OA
BRANCH  38  40
HETATM   40  C40   D T1796     -12.032   4.233  -4.015  1.00 59.16     0.077 A 
HETATM   41  C41   D T1796     -10.800   4.648  -4.410  1.00 59.34    -0.005 A 
HETATM   42  C42   D T1796     -10.143   5.768  -3.688  1.00 59.63    -0.003 A 
HETATM   43  C43   D T1796     -10.760   6.370  -2.645  1.00 59.97    -0.001 A 
HETATM   44  C44   D T1796     -12.098   5.928  -2.209  1.00 60.46    -0.003 A 
HETATM   45  C45   D T1796     -12.732   4.905  -2.846  1.00 60.90    -0.005 A 
BRANCH  41  46
HETATM   46  C48   D T1796     -10.128   3.947  -5.599  1.00 60.16     0.028 C 
HETATM   47  C49   D T1796      -8.924   3.080  -5.221  1.00 63.57     0.005 C 
ENDBRANCH  41  46
BRANCH  45  48
HETATM   48  C46   D T1796     -14.135   4.430  -2.407  1.00 63.47     0.028 C 
HETATM   49  C47   D T1796     -14.151   3.172  -1.512  1.00 66.56     0.005 C 
ENDBRANCH  45  48
ENDBRANCH  38  40
ENDBRANCH   7  37
TORSDOF 10
ENDMDL
MODEL 6
REMARK VINA RESULT:    -9.249      4.612     11.563
REMARK INTER + INTRA:         -16.201
REMARK INTER:                 -14.431
REMARK INTRA:                  -1.770
REMARK UNBOUND:                -1.546
REMARK  10 active torsions:
REMARK  status: ('A' for Active; 'I' for Inactive)
REMARK    1  A    between atoms: C7_7  and  C8_8 
REMARK       I    between atoms: C8_8  and  N9_9 
REMARK    2  A    between atoms: N9_9  and  C40_40 
REMARK    3  A    between atoms: C16_16  and  N18_18 
REMARK    4  A    between atoms: N18_18  and  C19_19 
REMARK    5  A    between atoms: C20_20  and  O25_25 
REMARK    6  A    between atoms: C22_22  and  C26_26 
REMARK    7  A    between atoms: O25_25  and  C36_36 
REMARK       I    between atoms: C26_26  and  N27_27 
REMARK    8  A    between atoms: N27_27  and  C29_29 
REMARK    9  A    between atoms: C41_41  and  C48_48 
REMARK   10  A    between atoms: C45_45  and  C46_46 
ROOT
HETATM    1  C1    D T1796     -12.211   3.821  -4.837  1.00 54.88     0.034 C 
HETATM    2  C2    D T1796     -11.121   3.409  -5.901  1.00 56.58     0.034 C 
HETATM    3  C3    D T1796     -13.482   3.039  -4.977  1.00 57.01     0.021 A 
HETATM    4  C4    D T1796     -13.669   2.072  -5.844  1.00 58.76     0.094 A 
HETATM    5  N5    D T1796     -14.991   1.620  -5.674  1.00 60.43    -0.248 N 
HETATM    6  N6    D T1796     -15.581   2.330  -4.691  1.00 59.38    -0.165 NA
HETATM    7  C7    D T1796     -14.730   3.174  -4.255  1.00 58.40     0.156 A 
HETATM    8  C11   D T1796     -15.652   0.568  -6.402  1.00 60.75     0.154 C 
HETATM    9  C12   D T1796     -12.652   1.588  -6.760  1.00 58.23     0.114 A 
HETATM   10  C13   D T1796     -11.440   2.180  -6.779  1.00 57.45     0.018 A 
HETATM   11  C14   D T1796     -10.437   1.628  -7.695  1.00 57.39     0.115 A 
HETATM   12  N15   D T1796     -10.742   0.623  -8.443  1.00 58.28    -0.058 NA
HETATM   13  C16   D T1796     -12.047   0.029  -8.396  1.00 61.20     0.750 A 
HETATM   14  N17   D T1796     -12.919   0.496  -7.601  1.00 59.17    -0.058 NA
ENDROOT
BRANCH  13  15
HETATM   15  N18   D T1796     -12.406  -1.076  -9.201  1.00 64.60    -0.057 NA
BRANCH  15  16
HETATM   16  C19   D T1796     -13.204  -2.225  -8.882  1.00 68.09     0.122 A 
HETATM   17  C20   D T1796     -13.189  -3.209  -9.786  1.00 69.46     0.120 A 
HETATM   18  C21   D T1796     -13.963  -4.470  -9.541  1.00 71.69     0.031 A 
HETATM   19  C22   D T1796     -14.676  -4.620  -8.412  1.00 76.06     0.060 A 
HETATM   20  C23   D T1796     -14.716  -3.527  -7.407  1.00 74.16     0.006 A 
HETATM   21  C24   D T1796     -14.011  -2.381  -7.629  1.00 70.39     0.022 A 
BRANCH  17  22
HETATM   22  O25   D T1796     -12.406  -2.962 -10.948  1.00 69.34    -0.252 OA
BRANCH  22  23
HETATM   23  C36   D T1796     -13.055  -2.884 -12.205  1.00 69.66     0.530 C 
HETATM   24  F37   D T1796     -14.269  -2.239 -12.032  1.00 69.10    -0.144 F 
HETATM   25  F38   D T1796     -13.272  -4.151 -12.714  1.00 71.00    -0.144 F 
HETATM   26  F39   D T1796     -12.274  -2.183 -13.123  1.00 69.28    -0.144 F 
ENDBRANCH  22  23
ENDBRANCH  17  22
BRANCH  19  27
HETATM   27  C26   D T1796     -15.376  -5.864  -8.182  1.00 80.81     0.275 C 
HETATM   28  N27   D T1796     -16.643  -5.886  -7.740  1.00 85.93    -0.236 NA
HETATM   29  O28   D T1796     -14.743  -6.922  -8.386  1.00 81.56    -0.266 OA
BRANCH  28  30
HETATM   30  C29   D T1796     -17.309  -7.148  -7.419  1.00 90.09     0.111 C 
HETATM   31  C30   D T1796     -18.305  -7.517  -8.563  1.00 91.93     0.060 C 
HETATM   32  C31   D T1796     -19.112  -8.797  -8.182  1.00 93.68     0.252 C 
HETATM   33  N32   D T1796     -19.816  -8.587  -6.873  1.00 95.57     0.139 N 
HETATM   34  C33   D T1796     -18.844  -8.342  -5.755  1.00 93.88     0.252 C 
HETATM   35  C35   D T1796     -20.640  -9.775  -6.557  1.00 96.21     0.285 C 
HETATM   36  C34   D T1796     -18.057  -7.038  -6.038  1.00 91.28     0.060 C 
ENDBRANCH  28  30
ENDBRANCH  19  27
ENDBRANCH  15  16
ENDBRANCH  13  15
BRANCH   7  37
HETATM   37  C8    D T1796     -15.043   4.080  -3.192  1.00 58.64     0.298 C 
HETATM   38  N9    D T1796     -14.875   3.612  -1.955  1.00 57.71    -0.207 NA
HETATM   39  O10   D T1796     -15.459   5.229  -3.403  1.00 57.40    -0.263 OA
BRANCH  38  40
HETATM   40  C40   D T1796     -15.033   4.367  -0.783  1.00 59.16     0.077 A 
HETATM   41  C41   D T1796     -16.152   4.154  -0.042  1.00 59.34    -0.005 A 
HETATM   42  C42   D T1796     -16.357   4.933   1.206  1.00 59.63    -0.003 A 
HETATM   43  C43   D T1796     -15.443   5.850   1.603  1.00 59.97    -0.001 A 
HETATM   44  C44   D T1796     -14.225   6.087   0.807  1.00 60.46    -0.003 A 
HETATM   45  C45   D T1796     -14.002   5.393  -0.342  1.00 60.90    -0.005 A 
BRANCH  41  46
HETATM   46  C48   D T1796     -17.166   3.105  -0.518  1.00 60.16     0.028 C 
HETATM   47  C49   D T1796     -18.453   3.053   0.310  1.00 63.57     0.005 C 
ENDBRANCH  41  46
BRANCH  45  48
HETATM   48  C46   D T1796     -12.730   5.625  -1.189  1.00 63.47     0.028 C 
HETATM   49  C47   D T1796     -12.684   6.967  -1.950  1.00 66.56     0.005 C 
ENDBRANCH  45  48
ENDBRANCH  38  40
ENDBRANCH   7  37
TORSDOF 10
ENDMDL
MODEL 7
REMARK VINA RESULT:    -9.208      6.574      9.735
REMARK INTER + INTRA:         -16.137
REMARK INTER:                 -14.095
REMARK INTRA:                  -2.042
REMARK UNBOUND:                -1.546
REMARK  10 active torsions:
REMARK  status: ('A' for Active; 'I' for Inactive)
REMARK    1  A    between atoms: C7_7  and  C8_8 
REMARK       I    between atoms: C8_8  and  N9_9 
REMARK    2  A    between atoms: N9_9  and  C40_40 
REMARK    3  A    between atoms: C16_16  and  N18_18 
REMARK    4  A    between atoms: N18_18  and  C19_19 
REMARK    5  A    between atoms: C20_20  and  O25_25 
REMARK    6  A    between atoms: C22_22  and  C26_26 
REMARK    7  A    between atoms: O25_25  and  C36_36 
REMARK       I    between atoms: C26_26  and  N27_27 
REMARK    8  A    between atoms: N27_27  and  C29_29 
REMARK    9  A    between atoms: C41_41  and  C48_48 
REMARK   10  A    between atoms: C45_45  and  C46_46 
ROOT
HETATM    1  C1    D T1796     -14.377   3.378  -1.294  1.00 54.88     0.034 C 
HETATM    2  C2    D T1796     -15.228   3.739  -0.016  1.00 56.58     0.034 C 
HETATM    3  C3    D T1796     -15.198   3.348  -2.547  1.00 57.01     0.021 A 
HETATM    4  C4    D T1796     -16.476   3.643  -2.607  1.00 58.76     0.094 A 
HETATM    5  N5    D T1796     -16.875   3.466  -3.946  1.00 60.43    -0.248 N 
HETATM    6  N6    D T1796     -15.814   3.066  -4.676  1.00 59.38    -0.165 NA
HETATM    7  C7    D T1796     -14.810   2.984  -3.894  1.00 58.40     0.156 A 
HETATM    8  C11   D T1796     -18.189   3.671  -4.497  1.00 60.75     0.154 C 
HETATM    9  C12   D T1796     -17.265   4.091  -1.474  1.00 58.23     0.114 A 
HETATM   10  C13   D T1796     -16.690   4.174  -0.257  1.00 57.45     0.018 A 
HETATM   11  C14   D T1796     -17.521   4.668   0.846  1.00 57.39     0.115 A 
HETATM   12  N15   D T1796     -18.748   4.991   0.624  1.00 58.28    -0.058 NA
HETATM   13  C16   D T1796     -19.322   4.880  -0.686  1.00 61.20     0.750 A 
HETATM   14  N17   D T1796     -18.609   4.459  -1.648  1.00 59.17    -0.058 NA
ENDROOT
BRANCH  13  15
HETATM   15  N18   D T1796     -20.663   5.231  -0.959  1.00 64.60    -0.057 NA
BRANCH  15  16
HETATM   16  C19   D T1796     -21.243   6.518  -1.216  1.00 68.09     0.122 A 
HETATM   17  C20   D T1796     -21.507   6.788  -2.497  1.00 69.46     0.120 A 
HETATM   18  C21   D T1796     -22.143   8.093  -2.877  1.00 71.69     0.031 A 
HETATM   19  C22   D T1796     -22.450   8.998  -1.933  1.00 76.06     0.060 A 
HETATM   20  C23   D T1796     -22.144   8.718  -0.507  1.00 74.16     0.006 A 
HETATM   21  C24   D T1796     -21.569   7.531  -0.161  1.00 70.39     0.022 A 
BRANCH  17  22
HETATM   22  O25   D T1796     -21.150   5.771  -3.425  1.00 69.34    -0.252 OA
BRANCH  22  23
HETATM   23  C36   D T1796     -22.179   5.080  -4.111  1.00 69.66     0.530 C 
HETATM   24  F37   D T1796     -21.715   3.817  -4.440  1.00 69.10    -0.144 F 
HETATM   25  F38   D T1796     -22.529   5.759  -5.263  1.00 71.00    -0.144 F 
HETATM   26  F39   D T1796     -23.319   4.972  -3.315  1.00 69.28    -0.144 F 
ENDBRANCH  22  23
ENDBRANCH  17  22
BRANCH  19  27
HETATM   27  C26   D T1796     -23.103  10.228  -2.323  1.00 80.81     0.275 C 
HETATM   28  N27   D T1796     -22.512  11.105  -3.151  1.00 85.93    -0.236 NA
HETATM   29  O28   D T1796     -24.231  10.456  -1.837  1.00 81.56    -0.266 OA
BRANCH  28  30
HETATM   30  C29   D T1796     -23.139  12.388  -3.463  1.00 90.09     0.111 C 
HETATM   31  C30   D T1796     -23.894  12.281  -4.826  1.00 91.93     0.060 C 
HETATM   32  C31   D T1796     -24.469  13.673  -5.234  1.00 93.68     0.252 C 
HETATM   33  N32   D T1796     -23.363  14.687  -5.286  1.00 95.57     0.139 N 
HETATM   34  C33   D T1796     -22.714  14.865  -3.944  1.00 93.88     0.252 C 
HETATM   35  C35   D T1796     -23.902  15.985  -5.747  1.00 96.21     0.285 C 
HETATM   36  C34   D T1796     -22.057  13.531  -3.511  1.00 91.28     0.060 C 
ENDBRANCH  28  30
ENDBRANCH  19  27
ENDBRANCH  15  16
ENDBRANCH  13  15
BRANCH   7  37
HETATM   37  C8    D T1796     -13.517   2.592  -4.366  1.00 58.64     0.298 C 
HETATM   38  N9    D T1796     -12.921   3.435  -5.209  1.00 57.71    -0.207 NA
HETATM   39  O10   D T1796     -12.982   1.526  -4.025  1.00 57.40    -0.263 OA
BRANCH  38  40
HETATM   40  C40   D T1796     -11.618   3.285  -5.708  1.00 59.16     0.077 A 
HETATM   41  C41   D T1796     -10.630   4.009  -5.120  1.00 59.34    -0.005 A 
HETATM   42  C42   D T1796      -9.238   3.881  -5.621  1.00 59.63    -0.003 A 
HETATM   43  C43   D T1796      -8.951   3.054  -6.654  1.00 59.97    -0.001 A 
HETATM   44  C44   D T1796     -10.016   2.263  -7.298  1.00 60.46    -0.003 A 
HETATM   45  C45   D T1796     -11.304   2.354  -6.868  1.00 60.90    -0.005 A 
BRANCH  41  46
HETATM   46  C48   D T1796     -10.988   4.935  -3.949  1.00 60.16     0.028 C 
HETATM   47  C49   D T1796      -9.967   6.046  -3.691  1.00 63.57     0.005 C 
ENDBRANCH  41  46
BRANCH  45  48
HETATM   48  C46   D T1796     -12.433   1.530  -7.527  1.00 63.47     0.028 C 
HETATM   49  C47   D T1796     -11.960   0.342  -8.391  1.00 66.56     0.005 C 
ENDBRANCH  45  48
ENDBRANCH  38  40
ENDBRANCH   7  37
TORSDOF 10
ENDMDL
MODEL 8
REMARK VINA RESULT:    -9.156      6.241      9.789
REMARK INTER + INTRA:         -16.055
REMARK INTER:                 -14.148
REMARK INTRA:                  -1.907
REMARK UNBOUND:                -1.546
REMARK  10 active torsions:
REMARK  status: ('A' for Active; 'I' for Inactive)
REMARK    1  A    between atoms: C7_7  and  C8_8 
REMARK       I    between atoms: C8_8  and  N9_9 
REMARK    2  A    between atoms: N9_9  and  C40_40 
REMARK    3  A    between atoms: C16_16  and  N18_18 
REMARK    4  A    between atoms: N18_18  and  C19_19 
REMARK    5  A    between atoms: C20_20  and  O25_25 
REMARK    6  A    between atoms: C22_22  and  C26_26 
REMARK    7  A    between atoms: O25_25  and  C36_36 
REMARK       I    between atoms: C26_26  and  N27_27 
REMARK    8  A    between atoms: N27_27  and  C29_29 
REMARK    9  A    between atoms: C41_41  and  C48_48 
REMARK   10  A    between atoms: C45_45  and  C46_46 
ROOT
HETATM    1  C1    D T1796     -14.438   3.396  -1.357  1.00 54.88     0.034 C 
HETATM    2  C2    D T1796     -15.326   3.780  -0.111  1.00 56.58     0.034 C 
HETATM    3  C3    D T1796     -15.214   3.384  -2.639  1.00 57.01     0.021 A 
HETATM    4  C4    D T1796     -16.481   3.710  -2.746  1.00 58.76     0.094 A 
HETATM    5  N5    D T1796     -16.835   3.540  -4.098  1.00 60.43    -0.248 N 
HETATM    6  N6    D T1796     -15.758   3.112  -4.789  1.00 59.38    -0.165 NA
HETATM    7  C7    D T1796     -14.786   3.008  -3.970  1.00 58.40     0.156 A 
HETATM    8  C11   D T1796     -18.122   3.776  -4.697  1.00 60.75     0.154 C 
HETATM    9  C12   D T1796     -17.299   4.179  -1.642  1.00 58.23     0.114 A 
HETATM   10  C13   D T1796     -16.767   4.251  -0.405  1.00 57.45     0.018 A 
HETATM   11  C14   D T1796     -17.625   4.767   0.666  1.00 57.39     0.115 A 
HETATM   12  N15   D T1796     -18.835   5.119   0.399  1.00 58.28    -0.058 NA
HETATM   13  C16   D T1796     -19.363   5.020  -0.931  1.00 61.20     0.750 A 
HETATM   14  N17   D T1796     -18.626   4.580  -1.866  1.00 59.17    -0.058 NA
ENDROOT
BRANCH  13  15
HETATM   15  N18   D T1796     -20.685   5.403  -1.253  1.00 64.60    -0.057 NA
BRANCH  15  16
HETATM   16  C19   D T1796     -21.284   5.655  -2.532  1.00 68.09     0.122 A 
HETATM   17  C20   D T1796     -21.608   6.928  -2.779  1.00 69.46     0.120 A 
HETATM   18  C21   D T1796     -22.211   7.310  -4.098  1.00 71.69     0.031 A 
HETATM   19  C22   D T1796     -22.431   6.377  -5.039  1.00 76.06     0.060 A 
HETATM   20  C23   D T1796     -22.094   4.956  -4.771  1.00 74.16     0.006 A 
HETATM   21  C24   D T1796     -21.542   4.608  -3.573  1.00 70.39     0.022 A 
BRANCH  17  22
HETATM   22  O25   D T1796     -21.337   7.845  -1.725  1.00 69.34    -0.252 OA
BRANCH  22  23
HETATM   23  C36   D T1796     -22.423   8.395  -1.003  1.00 69.66     0.530 C 
HETATM   24  F37   D T1796     -22.019   8.604   0.305  1.00 69.10    -0.144 F 
HETATM   25  F38   D T1796     -23.501   7.528  -1.020  1.00 71.00    -0.144 F 
HETATM   26  F39   D T1796     -22.836   9.600  -1.568  1.00 69.28    -0.144 F 
ENDBRANCH  22  23
ENDBRANCH  17  22
BRANCH  19  27
HETATM   27  C26   D T1796     -22.973   6.782  -6.317  1.00 80.81     0.275 C 
HETATM   28  N27   D T1796     -22.669   6.125  -7.448  1.00 85.93    -0.236 NA
HETATM   29  O28   D T1796     -23.715   7.787  -6.332  1.00 81.56    -0.266 OA
BRANCH  28  30
HETATM   30  C29   D T1796     -23.143   6.600  -8.747  1.00 90.09     0.111 C 
HETATM   31  C30   D T1796     -24.270   5.653  -9.268  1.00 91.93     0.060 C 
HETATM   32  C31   D T1796     -24.705   6.073 -10.706  1.00 93.68     0.252 C 
HETATM   33  N32   D T1796     -23.514   6.080 -11.619  1.00 95.57     0.139 N 
HETATM   34  C33   D T1796     -22.481   7.074 -11.173  1.00 93.88     0.252 C 
HETATM   35  C35   D T1796     -23.947   6.405 -12.996  1.00 96.21     0.285 C 
HETATM   36  C34   D T1796     -21.952   6.671  -9.775  1.00 91.28     0.060 C 
ENDBRANCH  28  30
ENDBRANCH  19  27
ENDBRANCH  15  16
ENDBRANCH  13  15
BRANCH   7  37
HETATM   37  C8    D T1796     -13.486   2.583  -4.395  1.00 58.64     0.298 C 
HETATM   38  N9    D T1796     -12.859   3.386  -5.253  1.00 57.71    -0.207 NA
HETATM   39  O10   D T1796     -12.974   1.525  -4.000  1.00 57.40    -0.263 OA
BRANCH  38  40
HETATM   40  C40   D T1796     -11.546   3.203  -5.714  1.00 59.16     0.077 A 
HETATM   41  C41   D T1796     -10.564   3.932  -5.123  1.00 59.34    -0.005 A 
HETATM   42  C42   D T1796      -9.161   3.768  -5.584  1.00 59.63    -0.003 A 
HETATM   43  C43   D T1796      -8.860   2.905  -6.582  1.00 59.97    -0.001 A 
HETATM   44  C44   D T1796      -9.919   2.108  -7.229  1.00 60.46    -0.003 A 
HETATM   45  C45   D T1796     -11.216   2.231  -6.835  1.00 60.90    -0.005 A 
BRANCH  41  46
HETATM   46  C48   D T1796     -10.937   4.899  -3.991  1.00 60.16     0.028 C 
HETATM   47  C49   D T1796      -9.937   6.038  -3.781  1.00 63.57     0.005 C 
ENDBRANCH  41  46
BRANCH  45  48
HETATM   48  C46   D T1796     -12.340   1.403  -7.497  1.00 63.47     0.028 C 
HETATM   49  C47   D T1796     -11.859   0.291  -8.454  1.00 66.56     0.005 C 
ENDBRANCH  45  48
ENDBRANCH  38  40
ENDBRANCH   7  37
TORSDOF 10
ENDMDL
MODEL 9
REMARK VINA RESULT:    -9.022      6.249      9.825
REMARK INTER + INTRA:         -15.842
REMARK INTER:                 -14.020
REMARK INTRA:                  -1.822
REMARK UNBOUND:                -1.546
REMARK  10 active torsions:
REMARK  status: ('A' for Active; 'I' for Inactive)
REMARK    1  A    between atoms: C7_7  and  C8_8 
REMARK       I    between atoms: C8_8  and  N9_9 
REMARK    2  A    between atoms: N9_9  and  C40_40 
REMARK    3  A    between atoms: C16_16  and  N18_18 
REMARK    4  A    between atoms: N18_18  and  C19_19 
REMARK    5  A    between atoms: C20_20  and  O25_25 
REMARK    6  A    between atoms: C22_22  and  C26_26 
REMARK    7  A    between atoms: O25_25  and  C36_36 
REMARK       I    between atoms: C26_26  and  N27_27 
REMARK    8  A    between atoms: N27_27  and  C29_29 
REMARK    9  A    between atoms: C41_41  and  C48_48 
REMARK   10  A    between atoms: C45_45  and  C46_46 
ROOT
HETATM    1  C1    D T1796     -14.503   3.415  -1.365  1.00 54.88     0.034 C 
HETATM    2  C2    D T1796     -15.393   3.799  -0.120  1.00 56.58     0.034 C 
HETATM    3  C3    D T1796     -15.276   3.404  -2.649  1.00 57.01     0.021 A 
HETATM    4  C4    D T1796     -16.543   3.730  -2.758  1.00 58.76     0.094 A 
HETATM    5  N5    D T1796     -16.894   3.561  -4.110  1.00 60.43    -0.248 N 
HETATM    6  N6    D T1796     -15.816   3.134  -4.800  1.00 59.38    -0.165 NA
HETATM    7  C7    D T1796     -14.846   3.030  -3.979  1.00 58.40     0.156 A 
HETATM    8  C11   D T1796     -18.181   3.797  -4.712  1.00 60.75     0.154 C 
HETATM    9  C12   D T1796     -17.363   4.198  -1.655  1.00 58.23     0.114 A 
HETATM   10  C13   D T1796     -16.834   4.269  -0.417  1.00 57.45     0.018 A 
HETATM   11  C14   D T1796     -17.694   4.784   0.653  1.00 57.39     0.115 A 
HETATM   12  N15   D T1796     -18.904   5.136   0.384  1.00 58.28    -0.058 NA
HETATM   13  C16   D T1796     -19.429   5.037  -0.947  1.00 61.20     0.750 A 
HETATM   14  N17   D T1796     -18.690   4.599  -1.881  1.00 59.17    -0.058 NA
ENDROOT
BRANCH  13  15
HETATM   15  N18   D T1796     -20.751   5.420  -1.271  1.00 64.60    -0.057 NA
BRANCH  15  16
HETATM   16  C19   D T1796     -21.349   5.666  -2.552  1.00 68.09     0.122 A 
HETATM   17  C20   D T1796     -21.641   6.942  -2.820  1.00 69.46     0.120 A 
HETATM   18  C21   D T1796     -22.240   7.317  -4.142  1.00 71.69     0.031 A 
HETATM   19  C22   D T1796     -22.490   6.374  -5.066  1.00 76.06     0.060 A 
HETATM   20  C23   D T1796     -22.188   4.949  -4.775  1.00 74.16     0.006 A 
HETATM   21  C24   D T1796     -21.640   4.608  -3.573  1.00 70.39     0.022 A 
BRANCH  17  22
HETATM   22  O25   D T1796     -21.341   7.870  -1.784  1.00 69.34    -0.252 OA
BRANCH  22  23
HETATM   23  C36   D T1796     -22.409   8.456  -1.062  1.00 69.66     0.530 C 
HETATM   24  F37   D T1796     -22.711   9.678  -1.641  1.00 69.10    -0.144 F 
HETATM   25  F38   D T1796     -22.048   8.647   0.260  1.00 71.00    -0.144 F 
HETATM   26  F39   D T1796     -23.533   7.632  -1.083  1.00 69.28    -0.144 F 
ENDBRANCH  22  23
ENDBRANCH  17  22
BRANCH  19  27
HETATM   27  C26   D T1796     -23.027   6.771  -6.348  1.00 80.81     0.275 C 
HETATM   28  N27   D T1796     -22.857   6.015  -7.445  1.00 85.93    -0.236 NA
HETATM   29  O28   D T1796     -23.635   7.862  -6.402  1.00 81.56    -0.266 OA
BRANCH  28  30
HETATM   30  C29   D T1796     -23.320   6.471  -8.755  1.00 90.09     0.111 C 
HETATM   31  C30   D T1796     -24.196   5.359  -9.414  1.00 91.93     0.060 C 
HETATM   32  C31   D T1796     -24.599   5.778 -10.861  1.00 93.68     0.252 C 
HETATM   33  N32   D T1796     -23.369   6.073 -11.670  1.00 95.57     0.139 N 
HETATM   34  C33   D T1796     -22.589   7.218 -11.091  1.00 93.88     0.252 C 
HETATM   35  C35   D T1796     -23.756   6.395 -13.061  1.00 96.21     0.285 C 
HETATM   36  C34   D T1796     -22.094   6.836  -9.674  1.00 91.28     0.060 C 
ENDBRANCH  28  30
ENDBRANCH  19  27
ENDBRANCH  15  16
ENDBRANCH  13  15
BRANCH   7  37
HETATM   37  C8    D T1796     -13.545   2.605  -4.402  1.00 58.64     0.298 C 
HETATM   38  N9    D T1796     -12.964   3.349  -5.343  1.00 57.71    -0.207 NA
HETATM   39  O10   D T1796     -12.992   1.599  -3.933  1.00 57.40    -0.263 OA
BRANCH  38  40
HETATM   40  C40   D T1796     -11.658   3.162  -5.822  1.00 59.16     0.077 A 
HETATM   41  C41   D T1796     -11.483   2.288  -6.848  1.00 59.34    -0.005 A 
HETATM   42  C42   D T1796     -10.116   2.060  -7.383  1.00 59.63    -0.003 A 
HETATM   43  C43   D T1796      -9.053   2.711  -6.856  1.00 59.97    -0.001 A 
HETATM   44  C44   D T1796      -9.233   3.662  -5.743  1.00 60.46    -0.003 A 
HETATM   45  C45   D T1796     -10.470   3.898  -5.226  1.00 60.90    -0.005 A 
BRANCH  41  46
HETATM   46  C48   D T1796     -12.709   1.569  -7.427  1.00 60.16     0.028 C 
HETATM   47  C49   D T1796     -12.378   0.319  -8.245  1.00 63.57     0.005 C 
ENDBRANCH  41  46
BRANCH  45  48
HETATM   48  C46   D T1796     -10.680   4.893  -4.063  1.00 63.47     0.028 C 
HETATM   49  C47   D T1796      -9.622   6.012  -3.958  1.00 66.56     0.005 C 
ENDBRANCH  45  48
ENDBRANCH  38  40
ENDBRANCH   7  37
TORSDOF 10
ENDMDL
