MODEL 1
REMARK VINA RESULT:    -9.196      0.000      0.000
REMARK INTER + INTRA:         -16.520
REMARK INTER:                 -14.572
REMARK INTRA:                  -1.948
REMARK UNBOUND:                -1.948
REMARK  10 active torsions:
REMARK  status: ('A' for Active; 'I' for Inactive)
REMARK    1  A    between atoms: C7_7  and  C8_8 
REMARK       I    between atoms: C8_8  and  N9_9 
REMARK    2  A    between atoms: N9_9  and  C40_40 
REMARK    3  A    between atoms: C16_16  and  N18_18 
REMARK    4  A    between atoms: N18_18  and  C19_19 
REMARK    5  A    between atoms: C20_20  and  O25_25 
REMARK    6  A    between atoms: C22_22  and  C26_26 
REMARK    7  A    between atoms: O25_25  and  C36_36 
REMARK       I    between atoms: C26_26  and  N27_27 
REMARK    8  A    between atoms: N27_27  and  C29_29 
REMARK    9  A    between atoms: C41_41  and  C48_48 
REMARK   10  A    between atoms: C45_45  and  C46_46 
ROOT
HETATM    1  C1    D T1796      -0.367   0.788 -12.131  1.00 54.88     0.034 C 
HETATM    2  C2    D T1796       0.142   2.136 -12.773  1.00 56.58     0.034 C 
HETATM    3  C3    D T1796      -1.073   0.997 -10.827  1.00 57.01     0.021 A 
HETATM    4  C4    D T1796      -1.307   2.171 -10.288  1.00 58.76     0.094 A 
HETATM    5  N5    D T1796      -1.962   1.936  -9.063  1.00 60.43    -0.248 N 
HETATM    6  N6    D T1796      -2.114   0.607  -8.889  1.00 59.38    -0.165 NA
HETATM    7  C7    D T1796      -1.606   0.021  -9.902  1.00 58.40     0.156 A 
HETATM    8  C11   D T1796      -2.419   2.919  -8.117  1.00 60.75     0.154 C 
HETATM    9  C12   D T1796      -0.958   3.438 -10.905  1.00 58.23     0.114 A 
HETATM   10  C13   D T1796      -0.307   3.444 -12.086  1.00 57.45     0.018 A 
HETATM   11  C14   D T1796      -0.012   4.749 -12.683  1.00 57.39     0.115 A 
HETATM   12  N15   D T1796      -0.368   5.826 -12.069  1.00 58.28    -0.058 NA
HETATM   13  C16   D T1796      -1.052   5.774 -10.810  1.00 61.20     0.750 A 
HETATM   14  N17   D T1796      -1.318   4.648 -10.289  1.00 59.17    -0.058 NA
ENDROOT
BRANCH  13  15
HETATM   15  N18   D T1796      -1.457   6.938 -10.118  1.00 64.60    -0.057 NA
BRANCH  15  16
HETATM   16  C19   D T1796      -2.452   7.101  -9.097  1.00 68.09     0.122 A 
HETATM   17  C20   D T1796      -1.990   7.428  -7.887  1.00 69.46     0.120 A 
HETATM   18  C21   D T1796      -2.946   7.654  -6.752  1.00 71.69     0.031 A 
HETATM   19  C22   D T1796      -4.269   7.529  -6.945  1.00 76.06     0.060 A 
HETATM   20  C23   D T1796      -4.795   7.148  -8.279  1.00 74.16     0.006 A 
HETATM   21  C24   D T1796      -3.927   6.944  -9.312  1.00 70.39     0.022 A 
BRANCH  17  22
HETATM   22  O25   D T1796      -0.577   7.539  -7.778  1.00 69.34    -0.252 OA
BRANCH  22  23
HETATM   23  C36   D T1796       0.119   6.625  -6.952  1.00 69.66     0.530 C 
HETATM   24  F37   D T1796      -0.523   5.398  -7.017  1.00 69.10    -0.144 F 
HETATM   25  F38   D T1796       0.131   7.071  -5.643  1.00 71.00    -0.144 F 
HETATM   26  F39   D T1796       1.442   6.486  -7.368  1.00 69.28    -0.144 F 
ENDBRANCH  22  23
ENDBRANCH  17  22
BRANCH  19  27
HETATM   27  C26   D T1796      -5.167   7.797  -5.843  1.00 80.81     0.275 C 
HETATM   28  N27   D T1796      -5.735   6.802  -5.141  1.00 85.93    -0.236 NA
HETATM   29  O28   D T1796      -5.418   8.993  -5.586  1.00 81.56    -0.266 OA
BRANCH  28  30
HETATM   30  C29   D T1796      -6.715   7.081  -4.093  1.00 90.09     0.111 C 
HETATM   31  C30   D T1796      -6.469   6.128  -2.882  1.00 91.93     0.060 C 
HETATM   32  C31   D T1796      -7.579   6.327  -1.805  1.00 93.68     0.252 C 
HETATM   33  N32   D T1796      -8.932   6.113  -2.417  1.00 95.57     0.139 N 
HETATM   34  C33   D T1796      -9.207   7.107  -3.510  1.00 93.88     0.252 C 
HETATM   35  C35   D T1796      -9.974   6.229  -1.374  1.00 96.21     0.285 C 
HETATM   36  C34   D T1796      -8.179   6.911  -4.651  1.00 91.28     0.060 C 
ENDBRANCH  28  30
ENDBRANCH  19  27
ENDBRANCH  15  16
ENDBRANCH  13  15
BRANCH   7  37
HETATM   37  C8    D T1796      -1.616  -1.406 -10.030  1.00 58.64     0.298 C 
HETATM   38  N9    D T1796      -1.832  -1.882 -11.256  1.00 57.71    -0.207 NA
HETATM   39  O10   D T1796      -1.446  -2.158  -9.059  1.00 57.40    -0.263 OA
BRANCH  38  40
HETATM   40  C40   D T1796      -1.783  -3.240 -11.611  1.00 59.16     0.077 A 
HETATM   41  C41   D T1796      -2.951  -3.842 -11.955  1.00 59.34    -0.005 A 
HETATM   42  C42   D T1796      -2.943  -5.279 -12.335  1.00 59.63    -0.003 A 
HETATM   43  C43   D T1796      -1.788  -5.984 -12.336  1.00 59.97    -0.001 A 
HETATM   44  C44   D T1796      -0.515  -5.338 -11.965  1.00 60.46    -0.003 A 
HETATM   45  C45   D T1796      -0.482  -4.025 -11.613  1.00 60.90    -0.005 A 
BRANCH  41  46
HETATM   46  C48   D T1796      -4.243  -3.014 -11.946  1.00 60.16     0.028 C 
HETATM   47  C49   D T1796      -5.445  -3.714 -12.586  1.00 63.57     0.005 C 
ENDBRANCH  41  46
BRANCH  45  48
HETATM   48  C46   D T1796       0.842  -3.328 -11.224  1.00 63.47     0.028 C 
HETATM   49  C47   D T1796       1.572  -3.938 -10.008  1.00 66.56     0.005 C 
ENDBRANCH  45  48
ENDBRANCH  38  40
ENDBRANCH   7  37
TORSDOF 10
ENDMDL
MODEL 2
REMARK VINA RESULT:    -8.928      5.724     10.723
REMARK INTER + INTRA:         -16.095
REMARK INTER:                 -14.802
REMARK INTRA:                  -1.292
REMARK UNBOUND:                -1.948
REMARK  10 active torsions:
REMARK  status: ('A' for Active; 'I' for Inactive)
REMARK    1  A    between atoms: C7_7  and  C8_8 
REMARK       I    between atoms: C8_8  and  N9_9 
REMARK    2  A    between atoms: N9_9  and  C40_40 
REMARK    3  A    between atoms: C16_16  and  N18_18 
REMARK    4  A    between atoms: N18_18  and  C19_19 
REMARK    5  A    between atoms: C20_20  and  O25_25 
REMARK    6  A    between atoms: C22_22  and  C26_26 
REMARK    7  A    between atoms: O25_25  and  C36_36 
REMARK       I    between atoms: C26_26  and  N27_27 
REMARK    8  A    between atoms: N27_27  and  C29_29 
REMARK    9  A    between atoms: C41_41  and  C48_48 
REMARK   10  A    between atoms: C45_45  and  C46_46 
ROOT
HETATM    1  C1    D T1796       0.742   1.793  -8.738  1.00 54.88     0.034 C 
HETATM    2  C2    D T1796       0.491   0.236  -8.694  1.00 56.58     0.034 C 
HETATM    3  C3    D T1796       0.078   2.454  -9.907  1.00 57.01     0.021 A 
HETATM    4  C4    D T1796      -0.682   1.835 -10.779  1.00 58.76     0.094 A 
HETATM    5  N5    D T1796      -1.085   2.795 -11.727  1.00 60.43    -0.248 N 
HETATM    6  N6    D T1796      -0.553   3.991 -11.401  1.00 59.38    -0.165 NA
HETATM    7  C7    D T1796       0.136   3.834 -10.338  1.00 58.40     0.156 A 
HETATM    8  C11   D T1796      -1.928   2.587 -12.874  1.00 60.75     0.154 C 
HETATM    9  C12   D T1796      -1.030   0.427 -10.705  1.00 58.23     0.114 A 
HETATM   10  C13   D T1796      -0.517  -0.333  -9.717  1.00 57.45     0.018 A 
HETATM   11  C14   D T1796      -0.930  -1.738  -9.666  1.00 57.39     0.115 A 
HETATM   12  N15   D T1796      -1.746  -2.195 -10.554  1.00 58.28    -0.058 NA
HETATM   13  C16   D T1796      -2.262  -1.353 -11.594  1.00 61.20     0.750 A 
HETATM   14  N17   D T1796      -1.916  -0.133 -11.642  1.00 59.17    -0.058 NA
ENDROOT
BRANCH  13  15
HETATM   15  N18   D T1796      -3.160  -1.827 -12.577  1.00 64.60    -0.057 NA
BRANCH  15  16
HETATM   16  C19   D T1796      -4.521  -1.451 -12.836  1.00 68.09     0.122 A 
HETATM   17  C20   D T1796      -5.447  -2.121 -12.146  1.00 69.46     0.120 A 
HETATM   18  C21   D T1796      -6.901  -1.788 -12.315  1.00 71.69     0.031 A 
HETATM   19  C22   D T1796      -7.279  -0.815 -13.161  1.00 76.06     0.060 A 
HETATM   20  C23   D T1796      -6.262  -0.075 -13.947  1.00 74.16     0.006 A 
HETATM   21  C24   D T1796      -4.940  -0.376 -13.793  1.00 70.39     0.022 A 
BRANCH  17  22
HETATM   22  O25   D T1796      -4.953  -3.130 -11.275  1.00 69.34    -0.252 OA
BRANCH  22  23
HETATM   23  C36   D T1796      -4.910  -4.468 -11.734  1.00 69.66     0.530 C 
HETATM   24  F37   D T1796      -5.369  -4.498 -13.042  1.00 69.10    -0.144 F 
HETATM   25  F38   D T1796      -5.709  -5.275 -10.945  1.00 71.00    -0.144 F 
HETATM   26  F39   D T1796      -3.611  -4.971 -11.680  1.00 69.28    -0.144 F 
ENDBRANCH  22  23
ENDBRANCH  17  22
BRANCH  19  27
HETATM   27  C26   D T1796      -8.683  -0.487 -13.269  1.00 80.81     0.275 C 
HETATM   28  N27   D T1796      -9.605  -1.426 -13.542  1.00 85.93    -0.236 NA
HETATM   29  O28   D T1796      -9.005   0.712 -13.127  1.00 81.56    -0.266 OA
BRANCH  28  30
HETATM   30  C29   D T1796     -11.009  -1.069 -13.744  1.00 90.09     0.111 C 
HETATM   31  C30   D T1796     -11.820  -1.388 -12.449  1.00 91.93     0.060 C 
HETATM   32  C31   D T1796     -13.339  -1.128 -12.686  1.00 93.68     0.252 C 
HETATM   33  N32   D T1796     -13.819  -1.933 -13.858  1.00 95.57     0.139 N 
HETATM   34  C33   D T1796     -13.112  -1.543 -15.124  1.00 93.88     0.252 C 
HETATM   35  C35   D T1796     -15.276  -1.741 -14.030  1.00 96.21     0.285 C 
HETATM   36  C34   D T1796     -11.600  -1.847 -14.980  1.00 91.28     0.060 C 
ENDBRANCH  28  30
ENDBRANCH  19  27
ENDBRANCH  15  16
ENDBRANCH  13  15
BRANCH   7  37
HETATM   37  C8    D T1796       0.827   4.926  -9.721  1.00 58.64     0.298 C 
HETATM   38  N9    D T1796       1.955   4.618  -9.080  1.00 57.71    -0.207 NA
HETATM   39  O10   D T1796       0.400   6.090  -9.766  1.00 57.40    -0.263 OA
BRANCH  38  40
HETATM   40  C40   D T1796       2.827   5.549  -8.495  1.00 59.16     0.077 A 
HETATM   41  C41   D T1796       4.043   5.723  -9.075  1.00 59.34    -0.005 A 
HETATM   42  C42   D T1796       4.996   6.698  -8.486  1.00 59.63    -0.003 A 
HETATM   43  C43   D T1796       4.662   7.406  -7.381  1.00 59.97    -0.001 A 
HETATM   44  C44   D T1796       3.344   7.225  -6.745  1.00 60.46    -0.003 A 
HETATM   45  C45   D T1796       2.444   6.342  -7.257  1.00 60.90    -0.005 A 
BRANCH  41  46
HETATM   46  C48   D T1796       4.390   4.908 -10.329  1.00 60.16     0.028 C 
HETATM   47  C49   D T1796       5.748   5.249 -10.946  1.00 63.57     0.005 C 
ENDBRANCH  41  46
BRANCH  45  48
HETATM   48  C46   D T1796       1.056   6.139  -6.607  1.00 63.47     0.028 C 
HETATM   49  C47   D T1796       0.209   7.421  -6.456  1.00 66.56     0.005 C 
ENDBRANCH  45  48
ENDBRANCH  38  40
ENDBRANCH   7  37
TORSDOF 10
ENDMDL
MODEL 3
REMARK VINA RESULT:    -8.750      6.547     11.161
REMARK INTER + INTRA:         -15.813
REMARK INTER:                 -13.539
REMARK INTRA:                  -2.274
REMARK UNBOUND:                -1.948
REMARK  10 active torsions:
REMARK  status: ('A' for Active; 'I' for Inactive)
REMARK    1  A    between atoms: C7_7  and  C8_8 
REMARK       I    between atoms: C8_8  and  N9_9 
REMARK    2  A    between atoms: N9_9  and  C40_40 
REMARK    3  A    between atoms: C16_16  and  N18_18 
REMARK    4  A    between atoms: N18_18  and  C19_19 
REMARK    5  A    between atoms: C20_20  and  O25_25 
REMARK    6  A    between atoms: C22_22  and  C26_26 
REMARK    7  A    between atoms: O25_25  and  C36_36 
REMARK       I    between atoms: C26_26  and  N27_27 
REMARK    8  A    between atoms: N27_27  and  C29_29 
REMARK    9  A    between atoms: C41_41  and  C48_48 
REMARK   10  A    between atoms: C45_45  and  C46_46 
ROOT
HETATM    1  C1    D T1796      -3.627   1.742  -9.622  1.00 54.88     0.034 C 
HETATM    2  C2    D T1796      -4.863   2.563  -9.086  1.00 56.58     0.034 C 
HETATM    3  C3    D T1796      -3.993   0.797 -10.725  1.00 57.01     0.021 A 
HETATM    4  C4    D T1796      -5.194   0.691 -11.245  1.00 58.76     0.094 A 
HETATM    5  N5    D T1796      -5.128  -0.318 -12.226  1.00 60.43    -0.248 N 
HETATM    6  N6    D T1796      -3.871  -0.803 -12.279  1.00 59.38    -0.165 NA
HETATM    7  C7    D T1796      -3.173  -0.175 -11.415  1.00 58.40     0.156 A 
HETATM    8  C11   D T1796      -6.198  -0.789 -13.065  1.00 60.75     0.154 C 
HETATM    9  C12   D T1796      -6.328   1.511 -10.858  1.00 58.23     0.114 A 
HETATM   10  C13   D T1796      -6.185   2.418  -9.871  1.00 57.45     0.018 A 
HETATM   11  C14   D T1796      -7.349   3.246  -9.545  1.00 57.39     0.115 A 
HETATM   12  N15   D T1796      -8.452   3.078 -10.194  1.00 58.28    -0.058 NA
HETATM   13  C16   D T1796      -8.562   2.096 -11.233  1.00 61.20     0.750 A 
HETATM   14  N17   D T1796      -7.557   1.380 -11.526  1.00 59.17    -0.058 NA
ENDROOT
BRANCH  13  15
HETATM   15  N18   D T1796      -9.756   1.895 -11.961  1.00 64.60    -0.057 NA
BRANCH  15  16
HETATM   16  C19   D T1796     -10.147   0.798 -12.800  1.00 68.09     0.122 A 
HETATM   17  C20   D T1796     -10.516   1.123 -14.042  1.00 69.46     0.120 A 
HETATM   18  C21   D T1796     -10.914   0.051 -15.015  1.00 71.69     0.031 A 
HETATM   19  C22   D T1796     -10.901  -1.240 -14.643  1.00 76.06     0.060 A 
HETATM   20  C23   D T1796     -10.510  -1.614 -13.261  1.00 74.16     0.006 A 
HETATM   21  C24   D T1796     -10.147  -0.640 -12.377  1.00 70.39     0.022 A 
BRANCH  17  22
HETATM   22  O25   D T1796     -10.497   2.512 -14.345  1.00 69.34    -0.252 OA
BRANCH  22  23
HETATM   23  C36   D T1796      -9.455   3.019 -15.157  1.00 69.66     0.530 C 
HETATM   24  F37   D T1796      -9.705   2.656 -16.470  1.00 69.10    -0.144 F 
HETATM   25  F38   D T1796      -8.237   2.500 -14.757  1.00 71.00    -0.144 F 
HETATM   26  F39   D T1796      -9.380   4.408 -15.059  1.00 69.28    -0.144 F 
ENDBRANCH  22  23
ENDBRANCH  17  22
BRANCH  19  27
HETATM   27  C26   D T1796     -11.246  -2.253 -15.616  1.00 80.81     0.275 C 
HETATM   28  N27   D T1796     -10.536  -3.388 -15.729  1.00 85.93    -0.236 NA
HETATM   29  O28   D T1796     -12.215  -2.020 -16.368  1.00 81.56    -0.266 OA
BRANCH  28  30
HETATM   30  C29   D T1796     -10.833  -4.362 -16.779  1.00 90.09     0.111 C 
HETATM   31  C30   D T1796     -11.699  -5.518 -16.188  1.00 91.93     0.060 C 
HETATM   32  C31   D T1796     -11.924  -6.627 -17.260  1.00 93.68     0.252 C 
HETATM   33  N32   D T1796     -10.602  -7.125 -17.767  1.00 95.57     0.139 N 
HETATM   34  C33   D T1796      -9.819  -6.031 -18.434  1.00 93.88     0.252 C 
HETATM   35  C35   D T1796     -10.821  -8.228 -18.727  1.00 96.21     0.285 C 
HETATM   36  C34   D T1796      -9.498  -4.926 -17.398  1.00 91.28     0.060 C 
ENDBRANCH  28  30
ENDBRANCH  19  27
ENDBRANCH  15  16
ENDBRANCH  13  15
BRANCH   7  37
HETATM   37  C8    D T1796      -1.780  -0.449 -11.227  1.00 58.64     0.298 C 
HETATM   38  N9    D T1796      -1.478  -1.301 -10.246  1.00 57.71    -0.207 NA
HETATM   39  O10   D T1796      -0.902   0.079 -11.925  1.00 57.40    -0.263 OA
BRANCH  38  40
HETATM   40  C40   D T1796      -0.188  -1.775  -9.963  1.00 59.16     0.077 A 
HETATM   41  C41   D T1796       0.530  -1.117  -9.016  1.00 59.34    -0.005 A 
HETATM   42  C42   D T1796       1.902  -1.586  -8.688  1.00 59.63    -0.003 A 
HETATM   43  C43   D T1796       2.435  -2.654  -9.326  1.00 59.97    -0.001 A 
HETATM   44  C44   D T1796       1.662  -3.375 -10.355  1.00 60.46    -0.003 A 
HETATM   45  C45   D T1796       0.403  -2.976 -10.681  1.00 60.90    -0.005 A 
BRANCH  41  46
HETATM   46  C48   D T1796      -0.104   0.088  -8.308  1.00 60.16     0.028 C 
HETATM   47  C49   D T1796       0.394   1.446  -8.810  1.00 63.57     0.005 C 
ENDBRANCH  41  46
BRANCH  45  48
HETATM   48  C46   D T1796      -0.424  -3.720 -11.754  1.00 63.47     0.028 C 
HETATM   49  C47   D T1796       0.036  -3.494 -13.210  1.00 66.56     0.005 C 
ENDBRANCH  45  48
ENDBRANCH  38  40
ENDBRANCH   7  37
TORSDOF 10
ENDMDL
MODEL 4
REMARK VINA RESULT:    -8.699      5.904     11.055
REMARK INTER + INTRA:         -15.733
REMARK INTER:                 -13.933
REMARK INTRA:                  -1.800
REMARK UNBOUND:                -1.948
REMARK  10 active torsions:
REMARK  status: ('A' for Active; 'I' for Inactive)
REMARK    1  A    between atoms: C7_7  and  C8_8 
REMARK       I    between atoms: C8_8  and  N9_9 
REMARK    2  A    between atoms: N9_9  and  C40_40 
REMARK    3  A    between atoms: C16_16  and  N18_18 
REMARK    4  A    between atoms: N18_18  and  C19_19 
REMARK    5  A    between atoms: C20_20  and  O25_25 
REMARK    6  A    between atoms: C22_22  and  C26_26 
REMARK    7  A    between atoms: O25_25  and  C36_36 
REMARK       I    between atoms: C26_26  and  N27_27 
REMARK    8  A    between atoms: N27_27  and  C29_29 
REMARK    9  A    between atoms: C41_41  and  C48_48 
REMARK   10  A    between atoms: C45_45  and  C46_46 
ROOT
HETATM    1  C1    D T1796      -1.936   4.585  -8.924  1.00 54.88     0.034 C 
HETATM    2  C2    D T1796      -3.391   4.128  -8.522  1.00 56.58     0.034 C 
HETATM    3  C3    D T1796      -1.238   3.591  -9.801  1.00 57.01     0.021 A 
HETATM    4  C4    D T1796      -1.781   2.482 -10.246  1.00 58.76     0.094 A 
HETATM    5  N5    D T1796      -0.797   1.820 -11.006  1.00 60.43    -0.248 N 
HETATM    6  N6    D T1796       0.334   2.555 -11.004  1.00 59.38    -0.165 NA
HETATM    7  C7    D T1796       0.117   3.602 -10.309  1.00 58.40     0.156 A 
HETATM    8  C11   D T1796      -0.927   0.563 -11.695  1.00 60.75     0.154 C 
HETATM    9  C12   D T1796      -3.155   2.086  -9.994  1.00 58.23     0.114 A 
HETATM   10  C13   D T1796      -3.937   2.860  -9.215  1.00 57.45     0.018 A 
HETATM   11  C14   D T1796      -5.326   2.435  -9.022  1.00 57.39     0.115 A 
HETATM   12  N15   D T1796      -5.744   1.352  -9.585  1.00 58.28    -0.058 NA
HETATM   13  C16   D T1796      -4.876   0.554 -10.400  1.00 61.20     0.750 A 
HETATM   14  N17   D T1796      -3.674   0.918 -10.578  1.00 59.17    -0.058 NA
ENDROOT
BRANCH  13  15
HETATM   15  N18   D T1796      -5.310  -0.634 -11.031  1.00 64.60    -0.057 NA
BRANCH  15  16
HETATM   16  C19   D T1796      -6.503  -0.891 -11.785  1.00 68.09     0.122 A 
HETATM   17  C20   D T1796      -6.956  -2.148 -11.742  1.00 69.46     0.120 A 
HETATM   18  C21   D T1796      -8.215  -2.520 -12.469  1.00 71.69     0.031 A 
HETATM   19  C22   D T1796      -8.894  -1.595 -13.167  1.00 76.06     0.060 A 
HETATM   20  C23   D T1796      -8.393  -0.200 -13.238  1.00 74.16     0.006 A 
HETATM   21  C24   D T1796      -7.250   0.140 -12.577  1.00 70.39     0.022 A 
BRANCH  17  22
HETATM   22  O25   D T1796      -6.173  -3.055 -10.978  1.00 69.34    -0.252 OA
BRANCH  22  23
HETATM   23  C36   D T1796      -5.325  -3.963 -11.655  1.00 69.66     0.530 C 
HETATM   24  F37   D T1796      -5.381  -5.186 -11.004  1.00 69.10    -0.144 F 
HETATM   25  F38   D T1796      -4.022  -3.498 -11.653  1.00 71.00    -0.144 F 
HETATM   26  F39   D T1796      -5.720  -4.118 -12.982  1.00 69.28    -0.144 F 
ENDBRANCH  22  23
ENDBRANCH  17  22
BRANCH  19  27
HETATM   27  C26   D T1796     -10.128  -1.975 -13.819  1.00 80.81     0.275 C 
HETATM   28  N27   D T1796     -11.126  -2.568 -13.143  1.00 85.93    -0.236 NA
HETATM   29  O28   D T1796     -10.219  -1.755 -15.045  1.00 81.56    -0.266 OA
BRANCH  28  30
HETATM   30  C29   D T1796     -12.330  -3.034 -13.830  1.00 90.09     0.111 C 
HETATM   31  C30   D T1796     -13.479  -1.999 -13.629  1.00 91.93     0.060 C 
HETATM   32  C31   D T1796     -14.805  -2.536 -14.251  1.00 93.68     0.252 C 
HETATM   33  N32   D T1796     -15.146  -3.870 -13.654  1.00 95.57     0.139 N 
HETATM   34  C33   D T1796     -14.086  -4.893 -13.947  1.00 93.88     0.252 C 
HETATM   35  C35   D T1796     -16.442  -4.339 -14.192  1.00 96.21     0.285 C 
HETATM   36  C34   D T1796     -12.754  -4.453 -13.290  1.00 91.28     0.060 C 
ENDBRANCH  28  30
ENDBRANCH  19  27
ENDBRANCH  15  16
ENDBRANCH  13  15
BRANCH   7  37
HETATM   37  C8    D T1796       1.124   4.602 -10.118  1.00 58.64     0.298 C 
HETATM   38  N9    D T1796       1.974   4.393  -9.112  1.00 57.71    -0.207 NA
HETATM   39  O10   D T1796       1.199   5.611 -10.836  1.00 57.40    -0.263 OA
BRANCH  38  40
HETATM   40  C40   D T1796       3.086   5.198  -8.819  1.00 59.16     0.077 A 
HETATM   41  C41   D T1796       2.926   6.178  -7.893  1.00 59.34    -0.005 A 
HETATM   42  C42   D T1796       4.079   7.054  -7.556  1.00 59.63    -0.003 A 
HETATM   43  C43   D T1796       5.275   6.881  -8.165  1.00 59.97    -0.001 A 
HETATM   44  C44   D T1796       5.458   5.818  -9.171  1.00 60.46    -0.003 A 
HETATM   45  C45   D T1796       4.427   4.996  -9.505  1.00 60.90    -0.005 A 
BRANCH  41  46
HETATM   46  C48   D T1796       1.558   6.346  -7.219  1.00 60.16     0.028 C 
HETATM   47  C49   D T1796       1.615   6.988  -5.830  1.00 63.57     0.005 C 
ENDBRANCH  41  46
BRANCH  45  48
HETATM   48  C46   D T1796       4.598   3.875 -10.554  1.00 63.47     0.028 C 
HETATM   49  C47   D T1796       4.267   4.278 -12.007  1.00 66.56     0.005 C 
ENDBRANCH  45  48
ENDBRANCH  38  40
ENDBRANCH   7  37
TORSDOF 10
ENDMDL
MODEL 5
REMARK VINA RESULT:    -8.693      5.977     10.968
REMARK INTER + INTRA:         -15.723
REMARK INTER:                 -13.815
REMARK INTRA:                  -1.909
REMARK UNBOUND:                -1.948
REMARK  10 active torsions:
REMARK  status: ('A' for Active; 'I' for Inactive)
REMARK    1  A    between atoms: C7_7  and  C8_8 
REMARK       I    between atoms: C8_8  and  N9_9 
REMARK    2  A    between atoms: N9_9  and  C40_40 
REMARK    3  A    between atoms: C16_16  and  N18_18 
REMARK    4  A    between atoms: N18_18  and  C19_19 
REMARK    5  A    between atoms: C20_20  and  O25_25 
REMARK    6  A    between atoms: C22_22  and  C26_26 
REMARK    7  A    between atoms: O25_25  and  C36_36 
REMARK       I    between atoms: C26_26  and  N27_27 
REMARK    8  A    between atoms: N27_27  and  C29_29 
REMARK    9  A    between atoms: C41_41  and  C48_48 
REMARK   10  A    between atoms: C45_45  and  C46_46 
ROOT
HETATM    1  C1    D T1796       0.626   3.770 -12.146  1.00 54.88     0.034 C 
HETATM    2  C2    D T1796      -0.506   3.649 -13.238  1.00 56.58     0.034 C 
HETATM    3  C3    D T1796       0.166   3.345 -10.785  1.00 57.01     0.021 A 
HETATM    4  C4    D T1796      -1.027   2.865 -10.520  1.00 58.76     0.094 A 
HETATM    5  N5    D T1796      -1.069   2.615  -9.134  1.00 60.43    -0.248 N 
HETATM    6  N6    D T1796       0.116   2.953  -8.586  1.00 59.38    -0.165 NA
HETATM    7  C7    D T1796       0.869   3.385  -9.521  1.00 58.40     0.156 A 
HETATM    8  C11   D T1796      -2.172   2.084  -8.378  1.00 60.75     0.154 C 
HETATM    9  C12   D T1796      -2.054   2.630 -11.519  1.00 58.23     0.114 A 
HETATM   10  C13   D T1796      -1.818   2.960 -12.805  1.00 57.45     0.018 A 
HETATM   11  C14   D T1796      -2.873   2.667 -13.778  1.00 57.39     0.115 A 
HETATM   12  N15   D T1796      -3.973   2.123 -13.382  1.00 58.28    -0.058 NA
HETATM   13  C16   D T1796      -4.186   1.794 -12.002  1.00 61.20     0.750 A 
HETATM   14  N17   D T1796      -3.275   2.038 -11.153  1.00 59.17    -0.058 NA
ENDROOT
BRANCH  13  15
HETATM   15  N18   D T1796      -5.379   1.194 -11.541  1.00 64.60    -0.057 NA
BRANCH  15  16
HETATM   16  C19   D T1796      -6.526   0.746 -12.278  1.00 68.09     0.122 A 
HETATM   17  C20   D T1796      -6.528  -0.547 -12.613  1.00 69.46     0.120 A 
HETATM   18  C21   D T1796      -7.694  -1.130 -13.358  1.00 71.69     0.031 A 
HETATM   19  C22   D T1796      -8.741  -0.357 -13.691  1.00 76.06     0.060 A 
HETATM   20  C23   D T1796      -8.744   1.084 -13.340  1.00 74.16     0.006 A 
HETATM   21  C24   D T1796      -7.685   1.615 -12.662  1.00 70.39     0.022 A 
BRANCH  17  22
HETATM   22  O25   D T1796      -5.380  -1.286 -12.218  1.00 69.34    -0.252 OA
BRANCH  22  23
HETATM   23  C36   D T1796      -4.415  -1.624 -13.195  1.00 69.66     0.530 C 
HETATM   24  F37   D T1796      -3.156  -1.375 -12.674  1.00 69.10    -0.144 F 
HETATM   25  F38   D T1796      -4.600  -0.865 -14.337  1.00 71.00    -0.144 F 
HETATM   26  F39   D T1796      -4.519  -2.967 -13.554  1.00 69.28    -0.144 F 
ENDBRANCH  22  23
ENDBRANCH  17  22
BRANCH  19  27
HETATM   27  C26   D T1796      -9.869  -0.958 -14.368  1.00 80.81     0.275 C 
HETATM   28  N27   D T1796      -9.947  -2.285 -14.560  1.00 85.93    -0.236 NA
HETATM   29  O28   D T1796     -10.757  -0.190 -14.794  1.00 81.56    -0.266 OA
BRANCH  28  30
HETATM   30  C29   D T1796     -11.043  -2.873 -15.329  1.00 90.09     0.111 C 
HETATM   31  C30   D T1796     -12.112  -3.455 -14.353  1.00 91.93     0.060 C 
HETATM   32  C31   D T1796     -13.229  -4.193 -15.153  1.00 93.68     0.252 C 
HETATM   33  N32   D T1796     -12.620  -5.262 -16.013  1.00 95.57     0.139 N 
HETATM   34  C33   D T1796     -11.675  -4.683 -17.026  1.00 93.88     0.252 C 
HETATM   35  C35   D T1796     -13.691  -6.007 -16.711  1.00 96.21     0.285 C 
HETATM   36  C34   D T1796     -10.497  -3.994 -16.293  1.00 91.28     0.060 C 
ENDBRANCH  28  30
ENDBRANCH  19  27
ENDBRANCH  15  16
ENDBRANCH  13  15
BRANCH   7  37
HETATM   37  C8    D T1796       2.211   3.817  -9.269  1.00 58.64     0.298 C 
HETATM   38  N9    D T1796       2.423   5.132  -9.332  1.00 57.71    -0.207 NA
HETATM   39  O10   D T1796       3.126   3.020  -9.017  1.00 57.40    -0.263 OA
BRANCH  38  40
HETATM   40  C40   D T1796       3.637   5.765  -9.023  1.00 59.16     0.077 A 
HETATM   41  C41   D T1796       3.717   6.431  -7.842  1.00 59.34    -0.005 A 
HETATM   42  C42   D T1796       4.984   7.116  -7.478  1.00 59.63    -0.003 A 
HETATM   43  C43   D T1796       6.049   7.083  -8.313  1.00 59.97    -0.001 A 
HETATM   44  C44   D T1796       5.972   6.361  -9.598  1.00 60.46    -0.003 A 
HETATM   45  C45   D T1796       4.830   5.721  -9.964  1.00 60.90    -0.005 A 
BRANCH  41  46
HETATM   46  C48   D T1796       2.493   6.448  -6.916  1.00 60.16     0.028 C 
HETATM   47  C49   D T1796       2.832   6.414  -5.424  1.00 63.57     0.005 C 
ENDBRANCH  41  46
BRANCH  45  48
HETATM   48  C46   D T1796       4.730   4.957 -11.304  1.00 63.47     0.028 C 
HETATM   49  C47   D T1796       5.260   3.507 -11.274  1.00 66.56     0.005 C 
ENDBRANCH  45  48
ENDBRANCH  38  40
ENDBRANCH   7  37
TORSDOF 10
ENDMDL
MODEL 6
REMARK VINA RESULT:    -8.624      7.594     10.659
REMARK INTER + INTRA:         -15.613
REMARK INTER:                 -13.483
REMARK INTRA:                  -2.131
REMARK UNBOUND:                -1.948
REMARK  10 active torsions:
REMARK  status: ('A' for Active; 'I' for Inactive)
REMARK    1  A    between atoms: C7_7  and  C8_8 
REMARK       I    between atoms: C8_8  and  N9_9 
REMARK    2  A    between atoms: N9_9  and  C40_40 
REMARK    3  A    between atoms: C16_16  and  N18_18 
REMARK    4  A    between atoms: N18_18  and  C19_19 
REMARK    5  A    between atoms: C20_20  and  O25_25 
REMARK    6  A    between atoms: C22_22  and  C26_26 
REMARK    7  A    between atoms: O25_25  and  C36_36 
REMARK       I    between atoms: C26_26  and  N27_27 
REMARK    8  A    between atoms: N27_27  and  C29_29 
REMARK    9  A    between atoms: C41_41  and  C48_48 
REMARK   10  A    between atoms: C45_45  and  C46_46 
ROOT
HETATM    1  C1    D T1796      -3.280   1.552  -9.360  1.00 54.88     0.034 C 
HETATM    2  C2    D T1796      -4.452   2.394  -8.724  1.00 56.58     0.034 C 
HETATM    3  C3    D T1796      -3.696   0.824 -10.601  1.00 57.01     0.021 A 
HETATM    4  C4    D T1796      -4.886   0.910 -11.150  1.00 58.76     0.094 A 
HETATM    5  N5    D T1796      -4.881   0.060 -12.273  1.00 60.43    -0.248 N 
HETATM    6  N6    D T1796      -3.672  -0.527 -12.380  1.00 59.38    -0.165 NA
HETATM    7  C7    D T1796      -2.947  -0.105 -11.419  1.00 58.40     0.156 A 
HETATM    8  C11   D T1796      -5.964  -0.176 -13.191  1.00 60.75     0.154 C 
HETATM    9  C12   D T1796      -5.952   1.765 -10.659  1.00 58.23     0.114 A 
HETATM   10  C13   D T1796      -5.758   2.494  -9.542  1.00 57.45     0.018 A 
HETATM   11  C14   D T1796      -6.852   3.368  -9.111  1.00 57.39     0.115 A 
HETATM   12  N15   D T1796      -7.945   3.404  -9.795  1.00 58.28    -0.058 NA
HETATM   13  C16   D T1796      -8.113   2.606 -10.974  1.00 61.20     0.750 A 
HETATM   14  N17   D T1796      -7.168   1.851 -11.359  1.00 59.17    -0.058 NA
ENDROOT
BRANCH  13  15
HETATM   15  N18   D T1796      -9.298   2.630 -11.744  1.00 64.60    -0.057 NA
BRANCH  15  16
HETATM   16  C19   D T1796      -9.468   2.715 -13.166  1.00 68.09     0.122 A 
HETATM   17  C20   D T1796     -10.206   1.747 -13.719  1.00 69.46     0.120 A 
HETATM   18  C21   D T1796     -10.475   1.757 -15.196  1.00 71.69     0.031 A 
HETATM   19  C22   D T1796      -9.977   2.736 -15.970  1.00 76.06     0.060 A 
HETATM   20  C23   D T1796      -9.142   3.806 -15.371  1.00 74.16     0.006 A 
HETATM   21  C24   D T1796      -8.898   3.800 -14.029  1.00 70.39     0.022 A 
BRANCH  17  22
HETATM   22  O25   D T1796     -10.691   0.757 -12.823  1.00 69.34    -0.252 OA
BRANCH  22  23
HETATM   23  C36   D T1796     -10.030  -0.493 -12.764  1.00 69.66     0.530 C 
HETATM   24  F37   D T1796      -9.274  -0.645 -13.916  1.00 69.10    -0.144 F 
HETATM   25  F38   D T1796     -10.952  -1.521 -12.678  1.00 71.00    -0.144 F 
HETATM   26  F39   D T1796      -9.203  -0.567 -11.645  1.00 69.28    -0.144 F 
ENDBRANCH  22  23
ENDBRANCH  17  22
BRANCH  19  27
HETATM   27  C26   D T1796     -10.291   2.742 -17.381  1.00 80.81     0.275 C 
HETATM   28  N27   D T1796      -9.437   3.245 -18.288  1.00 85.93    -0.236 NA
HETATM   29  O28   D T1796     -11.403   2.286 -17.723  1.00 81.56    -0.266 OA
BRANCH  28  30
HETATM   30  C29   D T1796      -9.804   3.334 -19.701  1.00 90.09     0.111 C 
HETATM   31  C30   D T1796      -9.097   2.193 -20.497  1.00 91.93     0.060 C 
HETATM   32  C31   D T1796      -9.378   2.344 -22.023  1.00 93.68     0.252 C 
HETATM   33  N32   D T1796      -8.943   3.702 -22.491  1.00 95.57     0.139 N 
HETATM   34  C33   D T1796      -9.707   4.796 -21.801  1.00 93.88     0.252 C 
HETATM   35  C35   D T1796      -9.143   3.812 -23.953  1.00 96.21     0.285 C 
HETATM   36  C34   D T1796      -9.411   4.746 -20.281  1.00 91.28     0.060 C 
ENDBRANCH  28  30
ENDBRANCH  19  27
ENDBRANCH  15  16
ENDBRANCH  13  15
BRANCH   7  37
HETATM   37  C8    D T1796      -1.590  -0.534 -11.254  1.00 58.64     0.298 C 
HETATM   38  N9    D T1796      -1.374  -1.437 -10.297  1.00 57.71    -0.207 NA
HETATM   39  O10   D T1796      -0.666  -0.086 -11.949  1.00 57.40    -0.263 OA
BRANCH  38  40
HETATM   40  C40   D T1796      -0.140  -2.055 -10.040  1.00 59.16     0.077 A 
HETATM   41  C41   D T1796       0.670  -1.481  -9.113  1.00 59.34    -0.005 A 
HETATM   42  C42   D T1796       1.985  -2.104  -8.813  1.00 59.63    -0.003 A 
HETATM   43  C43   D T1796       2.378  -3.228  -9.457  1.00 59.97    -0.001 A 
HETATM   44  C44   D T1796       1.504  -3.858 -10.464  1.00 60.46    -0.003 A 
HETATM   45  C45   D T1796       0.292  -3.319 -10.765  1.00 60.90    -0.005 A 
BRANCH  41  46
HETATM   46  C48   D T1796       0.194  -0.208  -8.399  1.00 60.16     0.028 C 
HETATM   47  C49   D T1796      -0.756  -0.462  -7.226  1.00 63.57     0.005 C 
ENDBRANCH  41  46
BRANCH  45  48
HETATM   48  C46   D T1796      -0.639  -3.966 -11.814  1.00 63.47     0.028 C 
HETATM   49  C47   D T1796      -0.163  -3.845 -13.278  1.00 66.56     0.005 C 
ENDBRANCH  45  48
ENDBRANCH  38  40
ENDBRANCH   7  37
TORSDOF 10
ENDMDL
MODEL 7
REMARK VINA RESULT:    -8.584      7.930     11.155
REMARK INTER + INTRA:         -15.550
REMARK INTER:                 -13.350
REMARK INTRA:                  -2.201
REMARK UNBOUND:                -1.948
REMARK  10 active torsions:
REMARK  status: ('A' for Active; 'I' for Inactive)
REMARK    1  A    between atoms: C7_7  and  C8_8 
REMARK       I    between atoms: C8_8  and  N9_9 
REMARK    2  A    between atoms: N9_9  and  C40_40 
REMARK    3  A    between atoms: C16_16  and  N18_18 
REMARK    4  A    between atoms: N18_18  and  C19_19 
REMARK    5  A    between atoms: C20_20  and  O25_25 
REMARK    6  A    between atoms: C22_22  and  C26_26 
REMARK    7  A    between atoms: O25_25  and  C36_36 
REMARK       I    between atoms: C26_26  and  N27_27 
REMARK    8  A    between atoms: N27_27  and  C29_29 
REMARK    9  A    between atoms: C41_41  and  C48_48 
REMARK   10  A    between atoms: C45_45  and  C46_46 
ROOT
HETATM    1  C1    D T1796      -4.045   1.559  -9.677  1.00 54.88     0.034 C 
HETATM    2  C2    D T1796      -5.206   2.428  -9.056  1.00 56.58     0.034 C 
HETATM    3  C3    D T1796      -4.462   0.839 -10.923  1.00 57.01     0.021 A 
HETATM    4  C4    D T1796      -5.642   0.952 -11.486  1.00 58.76     0.094 A 
HETATM    5  N5    D T1796      -5.643   0.101 -12.609  1.00 60.43    -0.248 N 
HETATM    6  N6    D T1796      -4.445  -0.513 -12.701  1.00 59.38    -0.165 NA
HETATM    7  C7    D T1796      -3.723  -0.107 -11.731  1.00 58.40     0.156 A 
HETATM    8  C11   D T1796      -6.719  -0.112 -13.540  1.00 60.75     0.154 C 
HETATM    9  C12   D T1796      -6.695   1.830 -11.010  1.00 58.23     0.114 A 
HETATM   10  C13   D T1796      -6.499   2.556  -9.890  1.00 57.45     0.018 A 
HETATM   11  C14   D T1796      -7.579   3.454  -9.474  1.00 57.39     0.115 A 
HETATM   12  N15   D T1796      -8.662   3.515 -10.171  1.00 58.28    -0.058 NA
HETATM   13  C16   D T1796      -8.832   2.719 -11.352  1.00 61.20     0.750 A 
HETATM   14  N17   D T1796      -7.900   1.943 -11.724  1.00 59.17    -0.058 NA
ENDROOT
BRANCH  13  15
HETATM   15  N18   D T1796     -10.007   2.769 -12.136  1.00 64.60    -0.057 NA
BRANCH  15  16
HETATM   16  C19   D T1796     -10.160   2.778 -13.563  1.00 68.09     0.122 A 
HETATM   17  C20   D T1796     -10.981   1.851 -14.063  1.00 69.46     0.120 A 
HETATM   18  C21   D T1796     -11.239   1.791 -15.541  1.00 71.69     0.031 A 
HETATM   19  C22   D T1796     -10.646   2.667 -16.369  1.00 76.06     0.060 A 
HETATM   20  C23   D T1796      -9.717   3.691 -15.829  1.00 74.16     0.006 A 
HETATM   21  C24   D T1796      -9.484   3.747 -14.486  1.00 70.39     0.022 A 
BRANCH  17  22
HETATM   22  O25   D T1796     -11.563   0.970 -13.112  1.00 69.34    -0.252 OA
BRANCH  22  23
HETATM   23  C36   D T1796     -11.322  -0.420 -13.231  1.00 69.66     0.530 C 
HETATM   24  F37   D T1796     -10.015  -0.604 -13.654  1.00 69.10    -0.144 F 
HETATM   25  F38   D T1796     -12.188  -0.982 -14.150  1.00 71.00    -0.144 F 
HETATM   26  F39   D T1796     -11.516  -1.065 -12.011  1.00 69.28    -0.144 F 
ENDBRANCH  22  23
ENDBRANCH  17  22
BRANCH  19  27
HETATM   27  C26   D T1796     -10.949   2.612 -17.781  1.00 80.81     0.275 C 
HETATM   28  N27   D T1796     -10.151   1.963 -18.646  1.00 85.93    -0.236 NA
HETATM   29  O28   D T1796     -11.969   3.216 -18.173  1.00 81.56    -0.266 OA
BRANCH  28  30
HETATM   30  C29   D T1796     -10.413   1.995 -20.084  1.00 90.09     0.111 C 
HETATM   31  C30   D T1796     -11.040   0.637 -20.530  1.00 91.93     0.060 C 
HETATM   32  C31   D T1796     -11.214   0.605 -22.079  1.00 93.68     0.252 C 
HETATM   33  N32   D T1796      -9.895   0.856 -22.748  1.00 95.57     0.139 N 
HETATM   34  C33   D T1796      -9.349   2.212 -22.403  1.00 93.88     0.252 C 
HETATM   35  C35   D T1796     -10.053   0.750 -24.215  1.00 96.21     0.285 C 
HETATM   36  C34   D T1796      -9.083   2.284 -20.879  1.00 91.28     0.060 C 
ENDBRANCH  28  30
ENDBRANCH  19  27
ENDBRANCH  15  16
ENDBRANCH  13  15
BRANCH   7  37
HETATM   37  C8    D T1796      -2.379  -0.565 -11.549  1.00 58.64     0.298 C 
HETATM   38  N9    D T1796      -2.233  -1.684 -10.838  1.00 57.71    -0.207 NA
HETATM   39  O10   D T1796      -1.403   0.044 -12.012  1.00 57.40    -0.263 OA
BRANCH  38  40
HETATM   40  C40   D T1796      -1.015  -2.349 -10.628  1.00 59.16     0.077 A 
HETATM   41  C41   D T1796      -0.771  -3.462 -11.368  1.00 59.34    -0.005 A 
HETATM   42  C42   D T1796       0.507  -4.196 -11.175  1.00 59.63    -0.003 A 
HETATM   43  C43   D T1796       1.417  -3.768 -10.270  1.00 59.97    -0.001 A 
HETATM   44  C44   D T1796       1.160  -2.560  -9.463  1.00 60.46    -0.003 A 
HETATM   45  C45   D T1796       0.004  -1.861  -9.612  1.00 60.90    -0.005 A 
BRANCH  41  46
HETATM   46  C48   D T1796      -1.822  -3.920 -12.388  1.00 60.16     0.028 C 
HETATM   47  C49   D T1796      -2.183  -5.405 -12.297  1.00 63.57     0.005 C 
ENDBRANCH  41  46
BRANCH  45  48
HETATM   48  C46   D T1796      -0.283  -0.592  -8.778  1.00 63.47     0.028 C 
HETATM   49  C47   D T1796      -1.191  -0.806  -7.548  1.00 66.56     0.005 C 
ENDBRANCH  45  48
ENDBRANCH  38  40
ENDBRANCH   7  37
TORSDOF 10
ENDMDL
MODEL 8
REMARK VINA RESULT:    -8.554      5.944     11.036
REMARK INTER + INTRA:         -15.503
REMARK INTER:                 -13.788
REMARK INTRA:                  -1.715
REMARK UNBOUND:                -1.948
REMARK  10 active torsions:
REMARK  status: ('A' for Active; 'I' for Inactive)
REMARK    1  A    between atoms: C7_7  and  C8_8 
REMARK       I    between atoms: C8_8  and  N9_9 
REMARK    2  A    between atoms: N9_9  and  C40_40 
REMARK    3  A    between atoms: C16_16  and  N18_18 
REMARK    4  A    between atoms: N18_18  and  C19_19 
REMARK    5  A    between atoms: C20_20  and  O25_25 
REMARK    6  A    between atoms: C22_22  and  C26_26 
REMARK    7  A    between atoms: O25_25  and  C36_36 
REMARK       I    between atoms: C26_26  and  N27_27 
REMARK    8  A    between atoms: N27_27  and  C29_29 
REMARK    9  A    between atoms: C41_41  and  C48_48 
REMARK   10  A    between atoms: C45_45  and  C46_46 
ROOT
HETATM    1  C1    D T1796      -0.787   4.042 -12.144  1.00 54.88     0.034 C 
HETATM    2  C2    D T1796      -1.602   3.301 -13.274  1.00 56.58     0.034 C 
HETATM    3  C3    D T1796      -1.352   3.810 -10.776  1.00 57.01     0.021 A 
HETATM    4  C4    D T1796      -2.376   3.031 -10.516  1.00 58.76     0.094 A 
HETATM    5  N5    D T1796      -2.606   3.107  -9.128  1.00 60.43    -0.248 N 
HETATM    6  N6    D T1796      -1.702   3.938  -8.573  1.00 59.38    -0.165 NA
HETATM    7  C7    D T1796      -0.946   4.372  -9.506  1.00 58.40     0.156 A 
HETATM    8  C11   D T1796      -3.625   2.424  -8.376  1.00 60.75     0.154 C 
HETATM    9  C12   D T1796      -3.077   2.243 -11.514  1.00 58.23     0.114 A 
HETATM   10  C13   D T1796      -2.709   2.330 -12.808  1.00 57.45     0.018 A 
HETATM   11  C14   D T1796      -3.424   1.485 -13.768  1.00 57.39     0.115 A 
HETATM   12  N15   D T1796      -4.368   0.710 -13.355  1.00 58.28    -0.058 NA
HETATM   13  C16   D T1796      -4.733   0.654 -11.969  1.00 61.20     0.750 A 
HETATM   14  N17   D T1796      -4.115   1.376 -11.130  1.00 59.17    -0.058 NA
ENDROOT
BRANCH  13  15
HETATM   15  N18   D T1796      -5.760  -0.190 -11.490  1.00 64.60    -0.057 NA
BRANCH  15  16
HETATM   16  C19   D T1796      -6.960  -0.637 -12.138  1.00 68.09     0.122 A 
HETATM   17  C20   D T1796      -7.299  -1.910 -11.911  1.00 69.46     0.120 A 
HETATM   18  C21   D T1796      -8.553  -2.473 -12.514  1.00 71.69     0.031 A 
HETATM   19  C22   D T1796      -9.340  -1.704 -13.285  1.00 76.06     0.060 A 
HETATM   20  C23   D T1796      -8.966  -0.295 -13.559  1.00 74.16     0.006 A 
HETATM   21  C24   D T1796      -7.827   0.219 -13.010  1.00 70.39     0.022 A 
BRANCH  17  22
HETATM   22  O25   D T1796      -6.408  -2.645 -11.084  1.00 69.34    -0.252 OA
BRANCH  22  23
HETATM   23  C36   D T1796      -5.547  -3.595 -11.683  1.00 69.66     0.530 C 
HETATM   24  F37   D T1796      -5.641  -4.782 -10.972  1.00 69.10    -0.144 F 
HETATM   25  F38   D T1796      -4.240  -3.144 -11.658  1.00 71.00    -0.144 F 
HETATM   26  F39   D T1796      -5.898  -3.815 -13.014  1.00 69.28    -0.144 F 
ENDBRANCH  22  23
ENDBRANCH  17  22
BRANCH  19  27
HETATM   27  C26   D T1796     -10.564  -2.262 -13.814  1.00 80.81     0.275 C 
HETATM   28  N27   D T1796     -11.661  -2.403 -13.050  1.00 85.93    -0.236 NA
HETATM   29  O28   D T1796     -10.555  -2.637 -15.006  1.00 81.56    -0.266 OA
BRANCH  28  30
HETATM   30  C29   D T1796     -12.862  -3.056 -13.567  1.00 90.09     0.111 C 
HETATM   31  C30   D T1796     -14.129  -2.338 -13.006  1.00 91.93     0.060 C 
HETATM   32  C31   D T1796     -15.419  -3.094 -13.449  1.00 93.68     0.252 C 
HETATM   33  N32   D T1796     -15.349  -4.527 -13.007  1.00 95.57     0.139 N 
HETATM   34  C33   D T1796     -14.190  -5.244 -13.638  1.00 93.88     0.252 C 
HETATM   35  C35   D T1796     -16.607  -5.219 -13.363  1.00 96.21     0.285 C 
HETATM   36  C34   D T1796     -12.867  -4.583 -13.178  1.00 91.28     0.060 C 
ENDBRANCH  28  30
ENDBRANCH  19  27
ENDBRANCH  15  16
ENDBRANCH  13  15
BRANCH   7  37
HETATM   37  C8    D T1796       0.133   5.275  -9.242  1.00 58.64     0.298 C 
HETATM   38  N9    D T1796       1.234   4.735  -8.718  1.00 57.71    -0.207 NA
HETATM   39  O10   D T1796       0.050   6.491  -9.474  1.00 57.40    -0.263 OA
BRANCH  38  40
HETATM   40  C40   D T1796       2.432   5.426  -8.478  1.00 59.16     0.077 A 
HETATM   41  C41   D T1796       3.446   5.254  -9.364  1.00 59.34    -0.005 A 
HETATM   42  C42   D T1796       4.732   5.967  -9.145  1.00 59.63    -0.003 A 
HETATM   43  C43   D T1796       4.895   6.777  -8.073  1.00 59.97    -0.001 A 
HETATM   44  C44   D T1796       3.799   6.971  -7.106  1.00 60.46    -0.003 A 
HETATM   45  C45   D T1796       2.607   6.336  -7.273  1.00 60.90    -0.005 A 
BRANCH  41  46
HETATM   46  C48   D T1796       3.228   4.332 -10.572  1.00 60.16     0.028 C 
HETATM   47  C49   D T1796       4.464   4.149 -11.456  1.00 63.57     0.005 C 
ENDBRANCH  41  46
BRANCH  45  48
HETATM   48  C46   D T1796       1.445   6.528  -6.273  1.00 63.47     0.028 C 
HETATM   49  C47   D T1796       1.866   6.960  -4.852  1.00 66.56     0.005 C 
ENDBRANCH  45  48
ENDBRANCH  38  40
ENDBRANCH   7  37
TORSDOF 10
ENDMDL
MODEL 9
REMARK VINA RESULT:    -8.538      2.309      3.060
REMARK INTER + INTRA:         -15.477
REMARK INTER:                 -13.304
REMARK INTRA:                  -2.174
REMARK UNBOUND:                -1.948
REMARK  10 active torsions:
REMARK  status: ('A' for Active; 'I' for Inactive)
REMARK    1  A    between atoms: C7_7  and  C8_8 
REMARK       I    between atoms: C8_8  and  N9_9 
REMARK    2  A    between atoms: N9_9  and  C40_40 
REMARK    3  A    between atoms: C16_16  and  N18_18 
REMARK    4  A    between atoms: N18_18  and  C19_19 
REMARK    5  A    between atoms: C20_20  and  O25_25 
REMARK    6  A    between atoms: C22_22  and  C26_26 
REMARK    7  A    between atoms: O25_25  and  C36_36 
REMARK       I    between atoms: C26_26  and  N27_27 
REMARK    8  A    between atoms: N27_27  and  C29_29 
REMARK    9  A    between atoms: C41_41  and  C48_48 
REMARK   10  A    between atoms: C45_45  and  C46_46 
ROOT
HETATM    1  C1    D T1796       0.223   1.646  -9.310  1.00 54.88     0.034 C 
HETATM    2  C2    D T1796       0.775   3.110  -9.108  1.00 56.58     0.034 C 
HETATM    3  C3    D T1796      -1.274   1.588  -9.333  1.00 57.01     0.021 A 
HETATM    4  C4    D T1796      -2.059   2.637  -9.253  1.00 58.76     0.094 A 
HETATM    5  N5    D T1796      -3.384   2.159  -9.281  1.00 60.43    -0.248 N 
HETATM    6  N6    D T1796      -3.369   0.814  -9.381  1.00 59.38    -0.165 NA
HETATM    7  C7    D T1796      -2.150   0.440  -9.415  1.00 58.40     0.156 A 
HETATM    8  C11   D T1796      -4.593   2.938  -9.220  1.00 60.75     0.154 C 
HETATM    9  C12   D T1796      -1.588   4.008  -9.184  1.00 58.23     0.114 A 
HETATM   10  C13   D T1796      -0.263   4.254  -9.147  1.00 57.45     0.018 A 
HETATM   11  C14   D T1796       0.160   5.656  -9.115  1.00 57.39     0.115 A 
HETATM   12  N15   D T1796      -0.729   6.590  -9.114  1.00 58.28    -0.058 NA
HETATM   13  C16   D T1796      -2.129   6.284  -9.146  1.00 61.20     0.750 A 
HETATM   14  N17   D T1796      -2.505   5.073  -9.181  1.00 59.17    -0.058 NA
ENDROOT
BRANCH  13  15
HETATM   15  N18   D T1796      -3.125   7.288  -9.149  1.00 64.60    -0.057 NA
BRANCH  15  16
HETATM   16  C19   D T1796      -4.496   7.223  -8.732  1.00 68.09     0.122 A 
HETATM   17  C20   D T1796      -4.732   7.567  -7.463  1.00 69.46     0.120 A 
HETATM   18  C21   D T1796      -6.135   7.566  -6.930  1.00 71.69     0.031 A 
HETATM   19  C22   D T1796      -7.162   7.220  -7.725  1.00 76.06     0.060 A 
HETATM   20  C23   D T1796      -6.912   6.818  -9.131  1.00 74.16     0.006 A 
HETATM   21  C24   D T1796      -5.637   6.820  -9.617  1.00 70.39     0.022 A 
BRANCH  17  22
HETATM   22  O25   D T1796      -3.586   7.920  -6.700  1.00 69.34    -0.252 OA
BRANCH  22  23
HETATM   23  C36   D T1796      -3.134   7.031  -5.696  1.00 69.66     0.530 C 
HETATM   24  F37   D T1796      -1.761   7.175  -5.568  1.00 69.10    -0.144 F 
HETATM   25  F38   D T1796      -3.431   5.725  -6.040  1.00 71.00    -0.144 F 
HETATM   26  F39   D T1796      -3.751   7.303  -4.476  1.00 69.28    -0.144 F 
ENDBRANCH  22  23
ENDBRANCH  17  22
BRANCH  19  27
HETATM   27  C26   D T1796      -8.506   7.272  -7.196  1.00 80.81     0.275 C 
HETATM   28  N27   D T1796      -8.856   8.162  -6.252  1.00 85.93    -0.236 NA
HETATM   29  O28   D T1796      -9.327   6.436  -7.630  1.00 81.56    -0.266 OA
BRANCH  28  30
HETATM   30  C29   D T1796     -10.190   8.145  -5.655  1.00 90.09     0.111 C 
HETATM   31  C30   D T1796     -11.067   9.261  -6.303  1.00 91.93     0.060 C 
HETATM   32  C31   D T1796     -12.454   9.338  -5.595  1.00 93.68     0.252 C 
HETATM   33  N32   D T1796     -12.265   9.561  -4.123  1.00 95.57     0.139 N 
HETATM   34  C33   D T1796     -11.516   8.427  -3.484  1.00 93.88     0.252 C 
HETATM   35  C35   D T1796     -13.584   9.708  -3.469  1.00 96.21     0.285 C 
HETATM   36  C34   D T1796     -10.096   8.343  -4.094  1.00 91.28     0.060 C 
ENDBRANCH  28  30
ENDBRANCH  19  27
ENDBRANCH  15  16
ENDBRANCH  13  15
BRANCH   7  37
HETATM   37  C8    D T1796      -1.789  -0.942  -9.529  1.00 58.64     0.298 C 
HETATM   38  N9    D T1796      -1.447  -1.358 -10.749  1.00 57.71    -0.207 NA
HETATM   39  O10   D T1796      -1.804  -1.712  -8.558  1.00 57.40    -0.263 OA
BRANCH  38  40
HETATM   40  C40   D T1796      -0.969  -2.642 -11.055  1.00 59.16     0.077 A 
HETATM   41  C41   D T1796      -1.780  -3.458 -11.778  1.00 59.34    -0.005 A 
HETATM   42  C42   D T1796      -1.312  -4.826 -12.122  1.00 59.63    -0.003 A 
HETATM   43  C43   D T1796      -0.096  -5.260 -11.718  1.00 59.97    -0.001 A 
HETATM   44  C44   D T1796       0.791  -4.380 -10.934  1.00 60.46    -0.003 A 
HETATM   45  C45   D T1796       0.399  -3.121 -10.601  1.00 60.90    -0.005 A 
BRANCH  41  46
HETATM   46  C48   D T1796      -3.152  -2.935 -12.224  1.00 60.16     0.028 C 
HETATM   47  C49   D T1796      -4.279  -3.967 -12.133  1.00 63.57     0.005 C 
ENDBRANCH  41  46
BRANCH  45  48
HETATM   48  C46   D T1796       1.314  -2.183  -9.782  1.00 63.47     0.028 C 
HETATM   49  C47   D T1796       2.540  -2.862  -9.135  1.00 66.56     0.005 C 
ENDBRANCH  45  48
ENDBRANCH  38  40
ENDBRANCH   7  37
TORSDOF 10
ENDMDL
