MODEL 1
REMARK VINA RESULT:   -10.004      0.000      0.000
REMARK INTER + INTRA:         -17.763
REMARK INTER:                 -15.852
REMARK INTRA:                  -1.911
REMARK UNBOUND:                -1.911
REMARK  10 active torsions:
REMARK  status: ('A' for Active; 'I' for Inactive)
REMARK    1  A    between atoms: C7_7  and  C8_8 
REMARK       I    between atoms: C8_8  and  N9_9 
REMARK    2  A    between atoms: N9_9  and  C40_40 
REMARK    3  A    between atoms: C16_16  and  N18_18 
REMARK    4  A    between atoms: N18_18  and  C19_19 
REMARK    5  A    between atoms: C20_20  and  O25_25 
REMARK    6  A    between atoms: C22_22  and  C26_26 
REMARK    7  A    between atoms: O25_25  and  C36_36 
REMARK       I    between atoms: C26_26  and  N27_27 
REMARK    8  A    between atoms: N27_27  and  C29_29 
REMARK    9  A    between atoms: C41_41  and  C48_48 
REMARK   10  A    between atoms: C45_45  and  C46_46 
ROOT
HETATM    1  C1    D T1796       5.147  18.564  -5.239  1.00 54.88     0.034 A 
HETATM    2  C2    D T1796       3.983  18.338  -4.198  1.00 56.58     0.034 A 
HETATM    3  C3    D T1796       6.163  17.464  -5.218  1.00 57.01     0.021 A 
HETATM    4  C4    D T1796       6.084  16.391  -4.465  1.00 58.76     0.094 A 
HETATM    5  N5    D T1796       7.240  15.627  -4.717  1.00 60.43    -0.248 N 
HETATM    6  N6    D T1796       8.000  16.262  -5.632  1.00 59.38    -0.165 NA
HETATM    7  C7    D T1796       7.405  17.342  -5.952  1.00 58.40     0.156 A 
HETATM    8  C11   D T1796       7.595  14.365  -4.125  1.00 60.75     0.154 C 
HETATM    9  C12   D T1796       4.971  16.095  -3.581  1.00 58.23     0.114 A 
HETATM   10  C13   D T1796       3.960  16.979  -3.466  1.00 57.45     0.018 A 
HETATM   11  C14   D T1796       2.844  16.613  -2.590  1.00 57.39     0.115 A 
HETATM   12  N15   D T1796       2.867  15.486  -1.964  1.00 58.28    -0.058 NA
HETATM   13  C16   D T1796       3.967  14.578  -2.109  1.00 61.20     0.750 A 
HETATM   14  N17   D T1796       4.935  14.882  -2.870  1.00 59.17    -0.058 NA
ENDROOT
BRANCH  13  15
HETATM   15  N18   D T1796       4.017  13.334  -1.439  1.00 64.60    -0.057 NA
BRANCH  15  16
HETATM   16  C19   D T1796       4.845  12.911  -0.346  1.00 68.09     0.122 A 
HETATM   17  C20   D T1796       4.243  12.845   0.845  1.00 69.46     0.120 A 
HETATM   18  C21   D T1796       5.007  12.384   2.051  1.00 71.69     0.031 A 
HETATM   19  C22   D T1796       6.301  12.037   1.943  1.00 76.06     0.060 A 
HETATM   20  C23   D T1796       6.988  12.125   0.630  1.00 74.16     0.006 A 
HETATM   21  C24   D T1796       6.293  12.541  -0.468  1.00 70.39     0.022 A 
BRANCH  17  22
HETATM   22  O25   D T1796       2.874  13.230   0.862  1.00 69.34    -0.252 OA
BRANCH  22  23
HETATM   23  C36   D T1796       1.893  12.250   1.149  1.00 69.66     0.530 C 
HETATM   24  F37   D T1796       0.711  12.617   0.527  1.00 69.10    -0.144 F 
HETATM   25  F38   D T1796       1.687  12.160   2.514  1.00 71.00    -0.144 F 
HETATM   26  F39   D T1796       2.295  10.996   0.694  1.00 69.28    -0.144 F 
ENDBRANCH  22  23
ENDBRANCH  17  22
BRANCH  19  27
HETATM   27  C26   D T1796       6.999  11.555   3.113  1.00 80.81     0.275 C 
HETATM   28  N27   D T1796       8.334  11.663   3.231  1.00 85.93    -0.236 NA
HETATM   29  O28   D T1796       6.315  11.007   4.003  1.00 81.56    -0.266 OA
BRANCH  28  30
HETATM   30  C29   D T1796       9.039  11.087   4.374  1.00 90.09     0.111 C 
HETATM   31  C30   D T1796      10.408  11.812   4.561  1.00 91.93     0.060 C 
HETATM   32  C31   D T1796      11.229  11.132   5.699  1.00 93.68     0.252 C 
HETATM   33  N32   D T1796      11.408   9.673   5.397  1.00 95.57     0.139 N 
HETATM   34  C33   D T1796      10.089   8.956   5.329  1.00 93.88     0.252 C 
HETATM   35  C35   D T1796      12.250   9.049   6.442  1.00 96.21     0.285 C 
HETATM   36  C34   D T1796       9.251   9.540   4.164  1.00 91.28     0.060 C 
ENDBRANCH  28  30
ENDBRANCH  19  27
ENDBRANCH  15  16
ENDBRANCH  13  15
BRANCH   7  37
HETATM   37  C8    D T1796       7.952  18.247  -6.918  1.00 58.64     0.298 C 
HETATM   38  N9    D T1796       8.462  19.381  -6.435  1.00 57.71    -0.207 NA
HETATM   39  O10   D T1796       7.946  18.002  -8.134  1.00 57.40    -0.263 OA
BRANCH  38  40
HETATM   40  C40   D T1796       9.129  20.351  -7.199  1.00 59.16     0.077 A 
HETATM   41  C41   D T1796      10.488  20.325  -7.203  1.00 59.34    -0.005 A 
HETATM   42  C42   D T1796      11.232  21.335  -7.996  1.00 59.63    -0.003 A 
HETATM   43  C43   D T1796      10.569  22.278  -8.708  1.00 59.97    -0.001 A 
HETATM   44  C44   D T1796       9.094  22.313  -8.711  1.00 60.46    -0.003 A 
HETATM   45  C45   D T1796       8.378  21.402  -7.997  1.00 60.90    -0.005 A 
BRANCH  41  46
HETATM   46  C48   D T1796      11.210  19.242  -6.388  1.00 60.16     0.028 C 
HETATM   47  C49   D T1796      11.770  18.091  -7.229  1.00 63.57     0.005 C 
ENDBRANCH  41  46
BRANCH  45  48
HETATM   48  C46   D T1796       6.833  21.421  -7.990  1.00 63.47     0.028 C 
HETATM   49  C47   D T1796       6.180  22.251  -9.115  1.00 66.56     0.005 C 
ENDBRANCH  45  48
ENDBRANCH  38  40
ENDBRANCH   7  37
TORSDOF 10
ENDMDL
MODEL 2
REMARK VINA RESULT:    -9.638      2.619     11.270
REMARK INTER + INTRA:         -17.183
REMARK INTER:                 -15.452
REMARK INTRA:                  -1.731
REMARK UNBOUND:                -1.911
REMARK  10 active torsions:
REMARK  status: ('A' for Active; 'I' for Inactive)
REMARK    1  A    between atoms: C7_7  and  C8_8 
REMARK       I    between atoms: C8_8  and  N9_9 
REMARK    2  A    between atoms: N9_9  and  C40_40 
REMARK    3  A    between atoms: C16_16  and  N18_18 
REMARK    4  A    between atoms: N18_18  and  C19_19 
REMARK    5  A    between atoms: C20_20  and  O25_25 
REMARK    6  A    between atoms: C22_22  and  C26_26 
REMARK    7  A    between atoms: O25_25  and  C36_36 
REMARK       I    between atoms: C26_26  and  N27_27 
REMARK    8  A    between atoms: N27_27  and  C29_29 
REMARK    9  A    between atoms: C41_41  and  C48_48 
REMARK   10  A    between atoms: C45_45  and  C46_46 
ROOT
HETATM    1  C1    D T1796       6.339  11.476   3.570  1.00 54.88     0.034 A 
HETATM    2  C2    D T1796       4.789  11.371   3.290  1.00 56.58     0.034 A 
HETATM    3  C3    D T1796       7.061  12.279   2.532  1.00 57.01     0.021 A 
HETATM    4  C4    D T1796       6.481  12.885   1.522  1.00 58.76     0.094 A 
HETATM    5  N5    D T1796       7.502  13.497   0.770  1.00 60.43    -0.248 N 
HETATM    6  N6    D T1796       8.692  13.248   1.352  1.00 59.38    -0.165 NA
HETATM    7  C7    D T1796       8.478  12.536   2.388  1.00 58.40     0.156 A 
HETATM    8  C11   D T1796       7.350  14.279  -0.429  1.00 60.75     0.154 C 
HETATM    9  C12   D T1796       5.046  12.905   1.297  1.00 58.23     0.114 A 
HETATM   10  C13   D T1796       4.234  12.229   2.133  1.00 57.45     0.018 A 
HETATM   11  C14   D T1796       2.792  12.314   1.883  1.00 57.39     0.115 A 
HETATM   12  N15   D T1796       2.357  13.011   0.889  1.00 58.28    -0.058 NA
HETATM   13  C16   D T1796       3.258  13.709   0.020  1.00 61.20     0.750 A 
HETATM   14  N17   D T1796       4.508  13.647   0.232  1.00 59.17    -0.058 NA
ENDROOT
BRANCH  13  15
HETATM   15  N18   D T1796       2.809  14.483  -1.074  1.00 64.60    -0.057 NA
BRANCH  15  16
HETATM   16  C19   D T1796       3.551  15.061  -2.157  1.00 68.09     0.122 A 
HETATM   17  C20   D T1796       3.419  16.383  -2.310  1.00 69.46     0.120 A 
HETATM   18  C21   D T1796       4.174  17.096  -3.391  1.00 71.69     0.031 A 
HETATM   19  C22   D T1796       4.987  16.412  -4.215  1.00 76.06     0.060 A 
HETATM   20  C23   D T1796       5.128  14.942  -4.071  1.00 74.16     0.006 A 
HETATM   21  C24   D T1796       4.444  14.293  -3.085  1.00 70.39     0.022 A 
BRANCH  17  22
HETATM   22  O25   D T1796       2.539  17.020  -1.392  1.00 69.34    -0.252 OA
BRANCH  22  23
HETATM   23  C36   D T1796       2.666  18.415  -1.181  1.00 69.66     0.530 C 
HETATM   24  F37   D T1796       2.279  19.071  -2.339  1.00 69.10    -0.144 F 
HETATM   25  F38   D T1796       3.977  18.740  -0.884  1.00 71.00    -0.144 F 
HETATM   26  F39   D T1796       1.871  18.831  -0.116  1.00 69.28    -0.144 F 
ENDBRANCH  22  23
ENDBRANCH  17  22
BRANCH  19  27
HETATM   27  C26   D T1796       5.736  17.133  -5.220  1.00 80.81     0.275 C 
HETATM   28  N27   D T1796       7.066  17.296  -5.123  1.00 85.93    -0.236 NA
HETATM   29  O28   D T1796       5.093  17.624  -6.172  1.00 81.56    -0.266 OA
BRANCH  28  30
HETATM   30  C29   D T1796       7.800  18.107  -6.093  1.00 90.09     0.111 C 
HETATM   31  C30   D T1796       9.178  17.440  -6.394  1.00 91.93     0.060 C 
HETATM   32  C31   D T1796      10.025  18.352  -7.333  1.00 93.68     0.252 C 
HETATM   33  N32   D T1796      10.186  19.711  -6.717  1.00 95.57     0.139 N 
HETATM   34  C33   D T1796       8.862  20.395  -6.533  1.00 93.88     0.252 C 
HETATM   35  C35   D T1796      11.053  20.547  -7.577  1.00 96.21     0.285 C 
HETATM   36  C34   D T1796       7.995  19.572  -5.547  1.00 91.28     0.060 C 
ENDBRANCH  28  30
ENDBRANCH  19  27
ENDBRANCH  15  16
ENDBRANCH  13  15
BRANCH   7  37
HETATM   37  C8    D T1796       9.546  12.105   3.240  1.00 58.64     0.298 C 
HETATM   38  N9    D T1796      10.434  11.277   2.691  1.00 57.71    -0.207 NA
HETATM   39  O10   D T1796       9.638  12.469   4.422  1.00 57.40    -0.263 OA
BRANCH  38  40
HETATM   40  C40   D T1796      11.601  10.817   3.322  1.00 59.16     0.077 A 
HETATM   41  C41   D T1796      12.774  11.415   2.987  1.00 59.34    -0.005 A 
HETATM   42  C42   D T1796      14.033  10.957   3.630  1.00 59.63    -0.003 A 
HETATM   43  C43   D T1796      14.017   9.952   4.539  1.00 59.97    -0.001 A 
HETATM   44  C44   D T1796      12.747   9.299   4.909  1.00 60.46    -0.003 A 
HETATM   45  C45   D T1796      11.574   9.692   4.342  1.00 60.90    -0.005 A 
BRANCH  41  46
HETATM   46  C48   D T1796      12.759  12.552   1.956  1.00 60.16     0.028 C 
HETATM   47  C49   D T1796      12.894  13.952   2.563  1.00 63.57     0.005 C 
ENDBRANCH  41  46
BRANCH  45  48
HETATM   48  C46   D T1796      10.233   9.022   4.719  1.00 63.47     0.028 C 
HETATM   49  C47   D T1796       9.880   9.057   6.221  1.00 66.56     0.005 C 
ENDBRANCH  45  48
ENDBRANCH  38  40
ENDBRANCH   7  37
TORSDOF 10
ENDMDL
MODEL 3
REMARK VINA RESULT:    -9.635      0.293      1.933
REMARK INTER + INTRA:         -17.179
REMARK INTER:                 -15.261
REMARK INTRA:                  -1.918
REMARK UNBOUND:                -1.911
REMARK  10 active torsions:
REMARK  status: ('A' for Active; 'I' for Inactive)
REMARK    1  A    between atoms: C7_7  and  C8_8 
REMARK       I    between atoms: C8_8  and  N9_9 
REMARK    2  A    between atoms: N9_9  and  C40_40 
REMARK    3  A    between atoms: C16_16  and  N18_18 
REMARK    4  A    between atoms: N18_18  and  C19_19 
REMARK    5  A    between atoms: C20_20  and  O25_25 
REMARK    6  A    between atoms: C22_22  and  C26_26 
REMARK    7  A    between atoms: O25_25  and  C36_36 
REMARK       I    between atoms: C26_26  and  N27_27 
REMARK    8  A    between atoms: N27_27  and  C29_29 
REMARK    9  A    between atoms: C41_41  and  C48_48 
REMARK   10  A    between atoms: C45_45  and  C46_46 
ROOT
HETATM    1  C1    D T1796       5.168  18.535  -5.234  1.00 54.88     0.034 A 
HETATM    2  C2    D T1796       3.963  18.356  -4.231  1.00 56.58     0.034 A 
HETATM    3  C3    D T1796       6.162  17.418  -5.148  1.00 57.01     0.021 A 
HETATM    4  C4    D T1796       6.036  16.367  -4.372  1.00 58.76     0.094 A 
HETATM    5  N5    D T1796       7.186  15.577  -4.563  1.00 60.43    -0.248 N 
HETATM    6  N6    D T1796       7.990  16.174  -5.465  1.00 59.38    -0.165 NA
HETATM    7  C7    D T1796       7.427  17.257  -5.834  1.00 58.40     0.156 A 
HETATM    8  C11   D T1796       7.497  14.324  -3.927  1.00 60.75     0.154 C 
HETATM    9  C12   D T1796       4.887  16.113  -3.522  1.00 58.23     0.114 A 
HETATM   10  C13   D T1796       3.889  17.017  -3.467  1.00 57.45     0.018 A 
HETATM   11  C14   D T1796       2.735  16.694  -2.623  1.00 57.39     0.115 A 
HETATM   12  N15   D T1796       2.716  15.583  -1.969  1.00 58.28    -0.058 NA
HETATM   13  C16   D T1796       3.803  14.652  -2.051  1.00 61.20     0.750 A 
HETATM   14  N17   D T1796       4.803  14.920  -2.783  1.00 59.17    -0.058 NA
ENDROOT
BRANCH  13  15
HETATM   15  N18   D T1796       3.806  13.426  -1.348  1.00 64.60    -0.057 NA
BRANCH  15  16
HETATM   16  C19   D T1796       4.661  12.975  -0.288  1.00 68.09     0.122 A 
HETATM   17  C20   D T1796       4.102  12.921   0.924  1.00 69.46     0.120 A 
HETATM   18  C21   D T1796       4.896  12.434   2.100  1.00 71.69     0.031 A 
HETATM   19  C22   D T1796       6.175  12.051   1.943  1.00 76.06     0.060 A 
HETATM   20  C23   D T1796       6.815  12.125   0.606  1.00 74.16     0.006 A 
HETATM   21  C24   D T1796       6.092  12.565  -0.464  1.00 70.39     0.022 A 
BRANCH  17  22
HETATM   22  O25   D T1796       2.746  13.344   0.993  1.00 69.34    -0.252 OA
BRANCH  22  23
HETATM   23  C36   D T1796       1.746  12.387   1.292  1.00 69.66     0.530 C 
HETATM   24  F37   D T1796       0.551  12.811   0.734  1.00 69.10    -0.144 F 
HETATM   25  F38   D T1796       1.596  12.258   2.661  1.00 71.00    -0.144 F 
HETATM   26  F39   D T1796       2.087  11.137   0.780  1.00 69.28    -0.144 F 
ENDBRANCH  22  23
ENDBRANCH  17  22
BRANCH  19  27
HETATM   27  C26   D T1796       6.902  11.545   3.085  1.00 80.81     0.275 C 
HETATM   28  N27   D T1796       8.240  11.638   3.166  1.00 85.93    -0.236 NA
HETATM   29  O28   D T1796       6.238  10.990   3.987  1.00 81.56    -0.266 OA
BRANCH  28  30
HETATM   30  C29   D T1796       8.973  11.038   4.279  1.00 90.09     0.111 C 
HETATM   31  C30   D T1796      10.331  11.784   4.472  1.00 91.93     0.060 C 
HETATM   32  C31   D T1796      11.180  11.082   5.575  1.00 93.68     0.252 C 
HETATM   33  N32   D T1796      11.382   9.637   5.223  1.00 95.57     0.139 N 
HETATM   34  C33   D T1796      10.076   8.898   5.149  1.00 93.88     0.252 C 
HETATM   35  C35   D T1796      12.250   8.995   6.234  1.00 96.21     0.285 C 
HETATM   36  C34   D T1796       9.210   9.504   4.016  1.00 91.28     0.060 C 
ENDBRANCH  28  30
ENDBRANCH  19  27
ENDBRANCH  15  16
ENDBRANCH  13  15
BRANCH   7  37
HETATM   37  C8    D T1796       8.025  18.127  -6.802  1.00 58.64     0.298 C 
HETATM   38  N9    D T1796       8.427  19.315  -6.351  1.00 57.71    -0.207 NA
HETATM   39  O10   D T1796       8.155  17.804  -7.992  1.00 57.40    -0.263 OA
BRANCH  38  40
HETATM   40  C40   D T1796       9.121  20.270  -7.110  1.00 59.16     0.077 A 
HETATM   41  C41   D T1796       8.389  21.219  -7.750  1.00 59.34    -0.005 A 
HETATM   42  C42   D T1796       9.084  22.246  -8.566  1.00 59.63    -0.003 A 
HETATM   43  C43   D T1796      10.434  22.241  -8.677  1.00 59.97    -0.001 A 
HETATM   44  C44   D T1796      11.238  21.215  -7.984  1.00 60.46    -0.003 A 
HETATM   45  C45   D T1796      10.635  20.258  -7.227  1.00 60.90    -0.005 A 
BRANCH  41  46
HETATM   46  C48   D T1796       6.861  21.200  -7.602  1.00 60.16     0.028 C 
HETATM   47  C49   D T1796       6.111  21.908  -8.735  1.00 63.57     0.005 C 
ENDBRANCH  41  46
BRANCH  45  48
HETATM   48  C46   D T1796      11.460  19.178  -6.492  1.00 63.47     0.028 C 
HETATM   49  C47   D T1796      11.699  19.441  -4.990  1.00 66.56     0.005 C 
ENDBRANCH  45  48
ENDBRANCH  38  40
ENDBRANCH   7  37
TORSDOF 10
ENDMDL
MODEL 4
REMARK VINA RESULT:    -9.359      4.285     12.019
REMARK INTER + INTRA:         -16.742
REMARK INTER:                 -14.537
REMARK INTRA:                  -2.205
REMARK UNBOUND:                -1.911
REMARK  10 active torsions:
REMARK  status: ('A' for Active; 'I' for Inactive)
REMARK    1  A    between atoms: C7_7  and  C8_8 
REMARK       I    between atoms: C8_8  and  N9_9 
REMARK    2  A    between atoms: N9_9  and  C40_40 
REMARK    3  A    between atoms: C16_16  and  N18_18 
REMARK    4  A    between atoms: N18_18  and  C19_19 
REMARK    5  A    between atoms: C20_20  and  O25_25 
REMARK    6  A    between atoms: C22_22  and  C26_26 
REMARK    7  A    between atoms: O25_25  and  C36_36 
REMARK       I    between atoms: C26_26  and  N27_27 
REMARK    8  A    between atoms: N27_27  and  C29_29 
REMARK    9  A    between atoms: C41_41  and  C48_48 
REMARK   10  A    between atoms: C45_45  and  C46_46 
ROOT
HETATM    1  C1    D T1796       3.732  15.223  -1.632  1.00 54.88     0.034 A 
HETATM    2  C2    D T1796       3.082  16.444  -2.392  1.00 56.58     0.034 A 
HETATM    3  C3    D T1796       5.016  14.770  -2.255  1.00 57.01     0.021 A 
HETATM    4  C4    D T1796       5.586  15.346  -3.287  1.00 58.76     0.094 A 
HETATM    5  N5    D T1796       6.749  14.606  -3.579  1.00 60.43    -0.248 N 
HETATM    6  N6    D T1796       6.857  13.587  -2.702  1.00 59.38    -0.165 NA
HETATM    7  C7    D T1796       5.862  13.647  -1.908  1.00 58.40     0.156 A 
HETATM    8  C11   D T1796       7.701  14.859  -4.627  1.00 60.75     0.154 C 
HETATM    9  C12   D T1796       5.078  16.539  -3.940  1.00 58.23     0.114 A 
HETATM   10  C13   D T1796       3.923  17.088  -3.515  1.00 57.45     0.018 A 
HETATM   11  C14   D T1796       3.475  18.312  -4.184  1.00 57.39     0.115 A 
HETATM   12  N15   D T1796       4.180  18.810  -5.142  1.00 58.28    -0.058 NA
HETATM   13  C16   D T1796       5.400  18.189  -5.568  1.00 61.20     0.750 A 
HETATM   14  N17   D T1796       5.799  17.132  -4.991  1.00 59.17    -0.058 NA
ENDROOT
BRANCH  13  15
HETATM   15  N18   D T1796       6.194  18.715  -6.612  1.00 64.60    -0.057 NA
BRANCH  15  16
HETATM   16  C19   D T1796       7.306  19.620  -6.555  1.00 68.09     0.122 A 
HETATM   17  C20   D T1796       8.516  19.055  -6.607  1.00 69.46     0.120 A 
HETATM   18  C21   D T1796       9.748  19.911  -6.588  1.00 71.69     0.031 A 
HETATM   19  C22   D T1796       9.644  21.249  -6.515  1.00 76.06     0.060 A 
HETATM   20  C23   D T1796       8.307  21.888  -6.437  1.00 74.16     0.006 A 
HETATM   21  C24   D T1796       7.186  21.112  -6.458  1.00 70.39     0.022 A 
BRANCH  17  22
HETATM   22  O25   D T1796       8.527  17.635  -6.684  1.00 69.34    -0.252 OA
BRANCH  22  23
HETATM   23  C36   D T1796       9.025  17.019  -7.857  1.00 69.66     0.530 C 
HETATM   24  F37   D T1796       8.447  17.635  -8.956  1.00 69.10    -0.144 F 
HETATM   25  F38   D T1796       8.709  15.672  -7.865  1.00 71.00    -0.144 F 
HETATM   26  F39   D T1796      10.412  17.133  -7.928  1.00 69.28    -0.144 F 
ENDBRANCH  22  23
ENDBRANCH  17  22
BRANCH  19  27
HETATM   27  C26   D T1796      10.848  22.049  -6.542  1.00 80.81     0.275 C 
HETATM   28  N27   D T1796      11.355  22.596  -5.424  1.00 85.93    -0.236 NA
HETATM   29  O28   D T1796      11.387  22.236  -7.654  1.00 81.56    -0.266 OA
BRANCH  28  30
HETATM   30  C29   D T1796      12.516  23.481  -5.476  1.00 90.09     0.111 C 
HETATM   31  C30   D T1796      13.559  23.038  -4.403  1.00 91.93     0.060 C 
HETATM   32  C31   D T1796      14.751  24.042  -4.361  1.00 93.68     0.252 C 
HETATM   33  N32   D T1796      14.241  25.430  -4.103  1.00 95.57     0.139 N 
HETATM   34  C33   D T1796      13.325  25.895  -5.199  1.00 93.88     0.252 C 
HETATM   35  C35   D T1796      15.381  26.366  -3.990  1.00 96.21     0.285 C 
HETATM   36  C34   D T1796      12.078  24.976  -5.246  1.00 91.28     0.060 C 
ENDBRANCH  28  30
ENDBRANCH  19  27
ENDBRANCH  15  16
ENDBRANCH  13  15
BRANCH   7  37
HETATM   37  C8    D T1796       5.687  12.704  -0.845  1.00 58.64     0.298 C 
HETATM   38  N9    D T1796       5.772  13.194   0.392  1.00 57.71    -0.207 NA
HETATM   39  O10   D T1796       5.478  11.499  -1.055  1.00 57.40    -0.263 OA
BRANCH  38  40
HETATM   40  C40   D T1796       5.536  12.461   1.565  1.00 59.16     0.077 A 
HETATM   41  C41   D T1796       6.615  11.964   2.225  1.00 59.34    -0.005 A 
HETATM   42  C42   D T1796       6.409  11.180   3.469  1.00 59.63    -0.003 A 
HETATM   43  C43   D T1796       5.160  10.957   3.945  1.00 59.97    -0.001 A 
HETATM   44  C44   D T1796       3.983  11.494   3.235  1.00 60.46    -0.003 A 
HETATM   45  C45   D T1796       4.133  12.217   2.092  1.00 60.90    -0.005 A 
BRANCH  41  46
HETATM   46  C48   D T1796       8.018  12.237   1.662  1.00 60.16     0.028 C 
HETATM   47  C49   D T1796       8.826  10.974   1.349  1.00 63.57     0.005 C 
ENDBRANCH  41  46
BRANCH  45  48
HETATM   48  C46   D T1796       2.912  12.790   1.337  1.00 63.47     0.028 C 
HETATM   49  C47   D T1796       2.219  11.809   0.368  1.00 66.56     0.005 C 
ENDBRANCH  45  48
ENDBRANCH  38  40
ENDBRANCH   7  37
TORSDOF 10
ENDMDL
MODEL 5
REMARK VINA RESULT:    -9.183      4.208     12.216
REMARK INTER + INTRA:         -16.462
REMARK INTER:                 -14.712
REMARK INTRA:                  -1.750
REMARK UNBOUND:                -1.911
REMARK  10 active torsions:
REMARK  status: ('A' for Active; 'I' for Inactive)
REMARK    1  A    between atoms: C7_7  and  C8_8 
REMARK       I    between atoms: C8_8  and  N9_9 
REMARK    2  A    between atoms: N9_9  and  C40_40 
REMARK    3  A    between atoms: C16_16  and  N18_18 
REMARK    4  A    between atoms: N18_18  and  C19_19 
REMARK    5  A    between atoms: C20_20  and  O25_25 
REMARK    6  A    between atoms: C22_22  and  C26_26 
REMARK    7  A    between atoms: O25_25  and  C36_36 
REMARK       I    between atoms: C26_26  and  N27_27 
REMARK    8  A    between atoms: N27_27  and  C29_29 
REMARK    9  A    between atoms: C41_41  and  C48_48 
REMARK   10  A    between atoms: C45_45  and  C46_46 
ROOT
HETATM    1  C1    D T1796       3.239  15.424  -1.693  1.00 54.88     0.034 A 
HETATM    2  C2    D T1796       2.661  16.697  -2.424  1.00 56.58     0.034 A 
HETATM    3  C3    D T1796       4.485  14.903  -2.338  1.00 57.01     0.021 A 
HETATM    4  C4    D T1796       5.081  15.461  -3.366  1.00 58.76     0.094 A 
HETATM    5  N5    D T1796       6.191  14.655  -3.684  1.00 60.43    -0.248 N 
HETATM    6  N6    D T1796       6.244  13.615  -2.827  1.00 59.38    -0.165 NA
HETATM    7  C7    D T1796       5.262  13.723  -2.022  1.00 58.40     0.156 A 
HETATM    8  C11   D T1796       7.147  14.866  -4.739  1.00 60.75     0.154 C 
HETATM    9  C12   D T1796       4.643  16.695  -3.993  1.00 58.23     0.114 A 
HETATM   10  C13   D T1796       3.529  17.308  -3.545  1.00 57.45     0.018 A 
HETATM   11  C14   D T1796       3.153  18.571  -4.187  1.00 57.39     0.115 A 
HETATM   12  N15   D T1796       3.879  19.041  -5.143  1.00 58.28    -0.058 NA
HETATM   13  C16   D T1796       5.052  18.352  -5.594  1.00 61.20     0.750 A 
HETATM   14  N17   D T1796       5.390  17.261  -5.040  1.00 59.17    -0.058 NA
ENDROOT
BRANCH  13  15
HETATM   15  N18   D T1796       5.868  18.846  -6.637  1.00 64.60    -0.057 NA
BRANCH  15  16
HETATM   16  C19   D T1796       7.025  19.692  -6.578  1.00 68.09     0.122 A 
HETATM   17  C20   D T1796       8.204  19.065  -6.650  1.00 69.46     0.120 A 
HETATM   18  C21   D T1796       9.480  19.855  -6.630  1.00 71.69     0.031 A 
HETATM   19  C22   D T1796       9.446  21.195  -6.536  1.00 76.06     0.060 A 
HETATM   20  C23   D T1796       8.145  21.902  -6.435  1.00 74.16     0.006 A 
HETATM   21  C24   D T1796       6.985  21.185  -6.456  1.00 70.39     0.022 A 
BRANCH  17  22
HETATM   22  O25   D T1796       8.140  17.648  -6.748  1.00 69.34    -0.252 OA
BRANCH  22  23
HETATM   23  C36   D T1796       8.772  17.010  -7.843  1.00 69.66     0.530 C 
HETATM   24  F37   D T1796       8.521  15.650  -7.764  1.00 69.10    -0.144 F 
HETATM   25  F38   D T1796      10.138  17.230  -7.805  1.00 71.00    -0.144 F 
HETATM   26  F39   D T1796       8.293  17.508  -9.052  1.00 69.28    -0.144 F 
ENDBRANCH  22  23
ENDBRANCH  17  22
BRANCH  19  27
HETATM   27  C26   D T1796      10.689  21.932  -6.563  1.00 80.81     0.275 C 
HETATM   28  N27   D T1796      11.187  22.513  -5.458  1.00 85.93    -0.236 NA
HETATM   29  O28   D T1796      11.273  22.032  -7.663  1.00 81.56    -0.266 OA
BRANCH  28  30
HETATM   30  C29   D T1796      12.394  23.335  -5.516  1.00 90.09     0.111 C 
HETATM   31  C30   D T1796      13.262  23.078  -4.244  1.00 91.93     0.060 C 
HETATM   32  C31   D T1796      14.493  24.035  -4.229  1.00 93.68     0.252 C 
HETATM   33  N32   D T1796      14.033  25.461  -4.311  1.00 95.57     0.139 N 
HETATM   34  C33   D T1796      13.294  25.731  -5.591  1.00 93.88     0.252 C 
HETATM   35  C35   D T1796      15.201  26.366  -4.220  1.00 96.21     0.285 C 
HETATM   36  C34   D T1796      12.014  24.859  -5.634  1.00 91.28     0.060 C 
ENDBRANCH  28  30
ENDBRANCH  19  27
ENDBRANCH  15  16
ENDBRANCH  13  15
BRANCH   7  37
HETATM   37  C8    D T1796       5.039  12.772  -0.974  1.00 58.64     0.298 C 
HETATM   38  N9    D T1796       4.394  13.228   0.101  1.00 57.71    -0.207 NA
HETATM   39  O10   D T1796       5.428  11.598  -1.050  1.00 57.40    -0.263 OA
BRANCH  38  40
HETATM   40  C40   D T1796       3.992  12.440   1.191  1.00 59.16     0.077 A 
HETATM   41  C41   D T1796       2.723  11.954   1.182  1.00 59.34    -0.005 A 
HETATM   42  C42   D T1796       2.257  11.118   2.317  1.00 59.63    -0.003 A 
HETATM   43  C43   D T1796       3.083  10.841   3.355  1.00 59.97    -0.001 A 
HETATM   44  C44   D T1796       4.463  11.363   3.371  1.00 60.46    -0.003 A 
HETATM   45  C45   D T1796       4.926  12.133   2.348  1.00 60.90    -0.005 A 
BRANCH  41  46
HETATM   46  C48   D T1796       1.812  12.283  -0.009  1.00 60.16     0.028 C 
HETATM   47  C49   D T1796       0.738  13.333   0.292  1.00 63.57     0.005 C 
ENDBRANCH  41  46
BRANCH  45  48
HETATM   48  C46   D T1796       6.368  12.686   2.346  1.00 63.47     0.028 C 
HETATM   49  C47   D T1796       7.474  11.641   2.605  1.00 66.56     0.005 C 
ENDBRANCH  45  48
ENDBRANCH  38  40
ENDBRANCH   7  37
TORSDOF 10
ENDMDL
MODEL 6
REMARK VINA RESULT:    -9.011      4.840     12.065
REMARK INTER + INTRA:         -16.191
REMARK INTER:                 -14.209
REMARK INTRA:                  -1.982
REMARK UNBOUND:                -1.911
REMARK  10 active torsions:
REMARK  status: ('A' for Active; 'I' for Inactive)
REMARK    1  A    between atoms: C7_7  and  C8_8 
REMARK       I    between atoms: C8_8  and  N9_9 
REMARK    2  A    between atoms: N9_9  and  C40_40 
REMARK    3  A    between atoms: C16_16  and  N18_18 
REMARK    4  A    between atoms: N18_18  and  C19_19 
REMARK    5  A    between atoms: C20_20  and  O25_25 
REMARK    6  A    between atoms: C22_22  and  C26_26 
REMARK    7  A    between atoms: O25_25  and  C36_36 
REMARK       I    between atoms: C26_26  and  N27_27 
REMARK    8  A    between atoms: N27_27  and  C29_29 
REMARK    9  A    between atoms: C41_41  and  C48_48 
REMARK   10  A    between atoms: C45_45  and  C46_46 
ROOT
HETATM    1  C1    D T1796       4.908  14.386  -2.162  1.00 54.88     0.034 A 
HETATM    2  C2    D T1796       4.525  14.594  -3.679  1.00 56.58     0.034 A 
HETATM    3  C3    D T1796       6.264  14.928  -1.829  1.00 57.01     0.021 A 
HETATM    4  C4    D T1796       7.041  15.561  -2.676  1.00 58.76     0.094 A 
HETATM    5  N5    D T1796       8.227  15.878  -1.985  1.00 60.43    -0.248 N 
HETATM    6  N6    D T1796       8.137  15.426  -0.718  1.00 59.38    -0.165 NA
HETATM    7  C7    D T1796       7.001  14.863  -0.584  1.00 58.40     0.156 A 
HETATM    8  C11   D T1796       9.376  16.574  -2.501  1.00 60.75     0.154 C 
HETATM    9  C12   D T1796       6.675  15.871  -4.046  1.00 58.23     0.114 A 
HETATM   10  C13   D T1796       5.486  15.456  -4.526  1.00 57.45     0.018 A 
HETATM   11  C14   D T1796       5.150  15.828  -5.903  1.00 57.39     0.115 A 
HETATM   12  N15   D T1796       5.987  16.520  -6.598  1.00 58.28    -0.058 NA
HETATM   13  C16   D T1796       7.244  16.935  -6.051  1.00 61.20     0.750 A 
HETATM   14  N17   D T1796       7.542  16.623  -4.857  1.00 59.17    -0.058 NA
ENDROOT
BRANCH  13  15
HETATM   15  N18   D T1796       8.178  17.697  -6.789  1.00 64.60    -0.057 NA
BRANCH  15  16
HETATM   16  C19   D T1796       8.940  18.849  -6.398  1.00 68.09     0.122 A 
HETATM   17  C20   D T1796      10.146  18.964  -6.962  1.00 69.46     0.120 A 
HETATM   18  C21   D T1796      11.014  20.147  -6.650  1.00 71.69     0.031 A 
HETATM   19  C22   D T1796      10.587  21.096  -5.800  1.00 76.06     0.060 A 
HETATM   20  C23   D T1796       9.258  20.971  -5.151  1.00 74.16     0.006 A 
HETATM   21  C24   D T1796       8.466  19.898  -5.437  1.00 70.39     0.022 A 
BRANCH  17  22
HETATM   22  O25   D T1796      10.512  17.913  -7.847  1.00 69.34    -0.252 OA
BRANCH  22  23
HETATM   23  C36   D T1796      11.569  17.046  -7.478  1.00 69.66     0.530 C 
HETATM   24  F37   D T1796      12.756  17.567  -7.969  1.00 69.10    -0.144 F 
HETATM   25  F38   D T1796      11.366  15.785  -8.008  1.00 71.00    -0.144 F 
HETATM   26  F39   D T1796      11.647  16.920  -6.093  1.00 69.28    -0.144 F 
ENDBRANCH  22  23
ENDBRANCH  17  22
BRANCH  19  27
HETATM   27  C26   D T1796      11.427  22.246  -5.552  1.00 80.81     0.275 C 
HETATM   28  N27   D T1796      12.223  22.316  -4.471  1.00 85.93    -0.236 NA
HETATM   29  O28   D T1796      11.364  23.188  -6.370  1.00 81.56    -0.266 OA
BRANCH  28  30
HETATM   30  C29   D T1796      12.996  23.523  -4.180  1.00 90.09     0.111 C 
HETATM   31  C30   D T1796      14.481  23.135  -3.897  1.00 91.93     0.060 C 
HETATM   32  C31   D T1796      15.294  24.393  -3.466  1.00 93.68     0.252 C 
HETATM   33  N32   D T1796      14.649  25.035  -2.273  1.00 95.57     0.139 N 
HETATM   34  C33   D T1796      13.257  25.507  -2.584  1.00 93.88     0.252 C 
HETATM   35  C35   D T1796      15.466  26.183  -1.823  1.00 96.21     0.285 C 
HETATM   36  C34   D T1796      12.374  24.288  -2.952  1.00 91.28     0.060 C 
ENDBRANCH  28  30
ENDBRANCH  19  27
ENDBRANCH  15  16
ENDBRANCH  13  15
BRANCH   7  37
HETATM   37  C8    D T1796       6.588  14.283   0.658  1.00 58.64     0.298 C 
HETATM   38  N9    D T1796       6.334  12.974   0.637  1.00 57.71    -0.207 NA
HETATM   39  O10   D T1796       6.462  14.954   1.694  1.00 57.40    -0.263 OA
BRANCH  38  40
HETATM   40  C40   D T1796       6.012  12.199   1.762  1.00 59.16     0.077 A 
HETATM   41  C41   D T1796       7.032  11.581   2.413  1.00 59.34    -0.005 A 
HETATM   42  C42   D T1796       6.734  10.750   3.607  1.00 59.63    -0.003 A 
HETATM   43  C43   D T1796       5.461  10.604   4.046  1.00 59.97    -0.001 A 
HETATM   44  C44   D T1796       4.348  11.274   3.346  1.00 60.46    -0.003 A 
HETATM   45  C45   D T1796       4.582  12.044   2.249  1.00 60.90    -0.005 A 
BRANCH  41  46
HETATM   46  C48   D T1796       8.464  11.767   1.892  1.00 60.16     0.028 C 
HETATM   47  C49   D T1796       9.243  10.461   1.711  1.00 63.57     0.005 C 
ENDBRANCH  41  46
BRANCH  45  48
HETATM   48  C46   D T1796       3.430  12.755   1.505  1.00 63.47     0.028 C 
HETATM   49  C47   D T1796       2.545  11.839   0.633  1.00 66.56     0.005 C 
ENDBRANCH  45  48
ENDBRANCH  38  40
ENDBRANCH   7  37
TORSDOF 10
ENDMDL
MODEL 7
REMARK VINA RESULT:    -9.009      4.875     12.018
REMARK INTER + INTRA:         -16.187
REMARK INTER:                 -14.392
REMARK INTRA:                  -1.795
REMARK UNBOUND:                -1.911
REMARK  10 active torsions:
REMARK  status: ('A' for Active; 'I' for Inactive)
REMARK    1  A    between atoms: C7_7  and  C8_8 
REMARK       I    between atoms: C8_8  and  N9_9 
REMARK    2  A    between atoms: N9_9  and  C40_40 
REMARK    3  A    between atoms: C16_16  and  N18_18 
REMARK    4  A    between atoms: N18_18  and  C19_19 
REMARK    5  A    between atoms: C20_20  and  O25_25 
REMARK    6  A    between atoms: C22_22  and  C26_26 
REMARK    7  A    between atoms: O25_25  and  C36_36 
REMARK       I    between atoms: C26_26  and  N27_27 
REMARK    8  A    between atoms: N27_27  and  C29_29 
REMARK    9  A    between atoms: C41_41  and  C48_48 
REMARK   10  A    between atoms: C45_45  and  C46_46 
ROOT
HETATM    1  C1    D T1796       3.619  15.253  -1.614  1.00 54.88     0.034 A 
HETATM    2  C2    D T1796       2.928  16.449  -2.376  1.00 56.58     0.034 A 
HETATM    3  C3    D T1796       4.973  14.922  -2.161  1.00 57.01     0.021 A 
HETATM    4  C4    D T1796       5.564  15.579  -3.132  1.00 58.76     0.094 A 
HETATM    5  N5    D T1796       6.797  14.941  -3.367  1.00 60.43    -0.248 N 
HETATM    6  N6    D T1796       6.927  13.901  -2.519  1.00 59.38    -0.165 NA
HETATM    7  C7    D T1796       5.879  13.854  -1.794  1.00 58.40     0.156 A 
HETATM    8  C11   D T1796       7.794  15.304  -4.339  1.00 60.75     0.154 C 
HETATM    9  C12   D T1796       5.009  16.754  -3.779  1.00 58.23     0.114 A 
HETATM   10  C13   D T1796       3.789  17.198  -3.417  1.00 57.45     0.018 A 
HETATM   11  C14   D T1796       3.292  18.410  -4.075  1.00 57.39     0.115 A 
HETATM   12  N15   D T1796       4.018  18.995  -4.965  1.00 58.28    -0.058 NA
HETATM   13  C16   D T1796       5.308  18.485  -5.325  1.00 61.20     0.750 A 
HETATM   14  N17   D T1796       5.750  17.440  -4.757  1.00 59.17    -0.058 NA
ENDROOT
BRANCH  13  15
HETATM   15  N18   D T1796       6.127  19.109  -6.294  1.00 64.60    -0.057 NA
BRANCH  15  16
HETATM   16  C19   D T1796       7.388  19.775  -6.141  1.00 68.09     0.122 A 
HETATM   17  C20   D T1796       7.523  20.921  -6.817  1.00 69.46     0.120 A 
HETATM   18  C21   D T1796       8.789  21.717  -6.705  1.00 71.69     0.031 A 
HETATM   19  C22   D T1796       9.796  21.284  -5.927  1.00 76.06     0.060 A 
HETATM   20  C23   D T1796       9.667  20.005  -5.187  1.00 74.16     0.006 A 
HETATM   21  C24   D T1796       8.515  19.282  -5.286  1.00 70.39     0.022 A 
BRANCH  17  22
HETATM   22  O25   D T1796       6.406  21.298  -7.612  1.00 69.34    -0.252 OA
BRANCH  22  23
HETATM   23  C36   D T1796       6.628  22.072  -8.777  1.00 69.66     0.530 C 
HETATM   24  F37   D T1796       7.611  21.454  -9.534  1.00 69.10    -0.144 F 
HETATM   25  F38   D T1796       7.041  23.347  -8.438  1.00 71.00    -0.144 F 
HETATM   26  F39   D T1796       5.459  22.187  -9.528  1.00 69.28    -0.144 F 
ENDBRANCH  22  23
ENDBRANCH  17  22
BRANCH  19  27
HETATM   27  C26   D T1796      10.986  22.095  -5.804  1.00 80.81     0.275 C 
HETATM   28  N27   D T1796      11.499  22.414  -4.603  1.00 85.93    -0.236 NA
HETATM   29  O28   D T1796      11.507  22.512  -6.860  1.00 81.56    -0.266 OA
BRANCH  28  30
HETATM   30  C29   D T1796      12.646  23.313  -4.487  1.00 90.09     0.111 C 
HETATM   31  C30   D T1796      13.796  22.594  -3.714  1.00 91.93     0.060 C 
HETATM   32  C31   D T1796      14.982  23.577  -3.475  1.00 93.68     0.252 C 
HETATM   33  N32   D T1796      14.497  24.795  -2.745  1.00 95.57     0.139 N 
HETATM   34  C33   D T1796      13.470  25.545  -3.544  1.00 93.88     0.252 C 
HETATM   35  C35   D T1796      15.640  25.688  -2.454  1.00 96.21     0.285 C 
HETATM   36  C34   D T1796      12.228  24.644  -3.755  1.00 91.28     0.060 C 
ENDBRANCH  28  30
ENDBRANCH  19  27
ENDBRANCH  15  16
ENDBRANCH  13  15
BRANCH   7  37
HETATM   37  C8    D T1796       5.708  12.861  -0.777  1.00 58.64     0.298 C 
HETATM   38  N9    D T1796       5.762  13.297   0.482  1.00 57.71    -0.207 NA
HETATM   39  O10   D T1796       5.530  11.663  -1.045  1.00 57.40    -0.263 OA
BRANCH  38  40
HETATM   40  C40   D T1796       5.524  12.506   1.617  1.00 59.16     0.077 A 
HETATM   41  C41   D T1796       6.603  11.999   2.269  1.00 59.34    -0.005 A 
HETATM   42  C42   D T1796       6.394  11.155   3.473  1.00 59.63    -0.003 A 
HETATM   43  C43   D T1796       5.143  10.889   3.920  1.00 59.97    -0.001 A 
HETATM   44  C44   D T1796       3.966  11.437   3.219  1.00 60.46    -0.003 A 
HETATM   45  C45   D T1796       4.118  12.215   2.112  1.00 60.90    -0.005 A 
BRANCH  41  46
HETATM   46  C48   D T1796       8.007  12.321   1.739  1.00 60.16     0.028 C 
HETATM   47  C49   D T1796       8.819  11.091   1.321  1.00 63.57     0.005 C 
ENDBRANCH  41  46
BRANCH  45  48
HETATM   48  C46   D T1796       2.898  12.801   1.367  1.00 63.47     0.028 C 
HETATM   49  C47   D T1796       2.222  11.846   0.360  1.00 66.56     0.005 C 
ENDBRANCH  45  48
ENDBRANCH  38  40
ENDBRANCH   7  37
TORSDOF 10
ENDMDL
MODEL 8
REMARK VINA RESULT:    -8.904      4.190      7.686
REMARK INTER + INTRA:         -16.021
REMARK INTER:                 -14.437
REMARK INTRA:                  -1.583
REMARK UNBOUND:                -1.911
REMARK  10 active torsions:
REMARK  status: ('A' for Active; 'I' for Inactive)
REMARK    1  A    between atoms: C7_7  and  C8_8 
REMARK       I    between atoms: C8_8  and  N9_9 
REMARK    2  A    between atoms: N9_9  and  C40_40 
REMARK    3  A    between atoms: C16_16  and  N18_18 
REMARK    4  A    between atoms: N18_18  and  C19_19 
REMARK    5  A    between atoms: C20_20  and  O25_25 
REMARK    6  A    between atoms: C22_22  and  C26_26 
REMARK    7  A    between atoms: O25_25  and  C36_36 
REMARK       I    between atoms: C26_26  and  N27_27 
REMARK    8  A    between atoms: N27_27  and  C29_29 
REMARK    9  A    between atoms: C41_41  and  C48_48 
REMARK   10  A    between atoms: C45_45  and  C46_46 
ROOT
HETATM    1  C1    D T1796       3.295  13.343   0.973  1.00 54.88     0.034 A 
HETATM    2  C2    D T1796       3.343  12.416   2.249  1.00 56.58     0.034 A 
HETATM    3  C3    D T1796       4.648  13.571   0.373  1.00 57.01     0.021 A 
HETATM    4  C4    D T1796       5.759  13.023   0.811  1.00 58.76     0.094 A 
HETATM    5  N5    D T1796       6.803  13.511   0.001  1.00 60.43    -0.248 N 
HETATM    6  N6    D T1796       6.293  14.351  -0.922  1.00 59.38    -0.165 NA
HETATM    7  C7    D T1796       5.033  14.414  -0.739  1.00 58.40     0.156 A 
HETATM    8  C11   D T1796       8.202  13.191   0.099  1.00 60.75     0.154 C 
HETATM    9  C12   D T1796       5.825  12.077   1.909  1.00 58.23     0.114 A 
HETATM   10  C13   D T1796       4.699  11.753   2.576  1.00 57.45     0.018 A 
HETATM   11  C14   D T1796       4.814  10.764   3.651  1.00 57.39     0.115 A 
HETATM   12  N15   D T1796       5.966  10.252   3.924  1.00 58.28    -0.058 NA
HETATM   13  C16   D T1796       7.140  10.630   3.195  1.00 61.20     0.750 A 
HETATM   14  N17   D T1796       7.049  11.481   2.258  1.00 59.17    -0.058 NA
ENDROOT
BRANCH  13  15
HETATM   15  N18   D T1796       8.414  10.082   3.470  1.00 64.60    -0.057 NA
BRANCH  15  16
HETATM   16  C19   D T1796       9.408  10.497   4.418  1.00 68.09     0.122 A 
HETATM   17  C20   D T1796      10.273  11.418   3.984  1.00 69.46     0.120 A 
HETATM   18  C21   D T1796      11.335  11.947   4.902  1.00 71.69     0.031 A 
HETATM   19  C22   D T1796      11.425  11.496   6.165  1.00 76.06     0.060 A 
HETATM   20  C23   D T1796      10.484  10.459   6.655  1.00 74.16     0.006 A 
HETATM   21  C24   D T1796       9.516   9.980   5.821  1.00 70.39     0.022 A 
BRANCH  17  22
HETATM   22  O25   D T1796      10.100  11.835   2.635  1.00 69.34    -0.252 OA
BRANCH  22  23
HETATM   23  C36   D T1796      10.845  11.187   1.620  1.00 69.66     0.530 C 
HETATM   24  F37   D T1796      11.381  12.154   0.784  1.00 69.10    -0.144 F 
HETATM   25  F38   D T1796      10.030  10.344   0.887  1.00 71.00    -0.144 F 
HETATM   26  F39   D T1796      11.870  10.419   2.169  1.00 69.28    -0.144 F 
ENDBRANCH  22  23
ENDBRANCH  17  22
BRANCH  19  27
HETATM   27  C26   D T1796      12.431  12.056   7.040  1.00 80.81     0.275 C 
HETATM   28  N27   D T1796      12.709  13.371   7.042  1.00 85.93    -0.236 NA
HETATM   29  O28   D T1796      13.053  11.264   7.780  1.00 81.56    -0.266 OA
BRANCH  28  30
HETATM   30  C29   D T1796      13.792  13.913   7.860  1.00 90.09     0.111 C 
HETATM   31  C30   D T1796      13.398  15.334   8.373  1.00 91.93     0.060 C 
HETATM   32  C31   D T1796      14.589  15.977   9.147  1.00 93.68     0.252 C 
HETATM   33  N32   D T1796      15.806  16.018   8.269  1.00 95.57     0.139 N 
HETATM   34  C33   D T1796      16.247  14.639   7.871  1.00 93.88     0.252 C 
HETATM   35  C35   D T1796      16.910  16.698   8.983  1.00 96.21     0.285 C 
HETATM   36  C34   D T1796      15.130  13.969   7.031  1.00 91.28     0.060 C 
ENDBRANCH  28  30
ENDBRANCH  19  27
ENDBRANCH  15  16
ENDBRANCH  13  15
BRANCH   7  37
HETATM   37  C8    D T1796       4.189  15.221  -1.569  1.00 58.64     0.298 C 
HETATM   38  N9    D T1796       4.672  16.417  -1.906  1.00 57.71    -0.207 NA
HETATM   39  O10   D T1796       3.071  14.840  -1.946  1.00 57.40    -0.263 OA
BRANCH  38  40
HETATM   40  C40   D T1796       4.049  17.316  -2.786  1.00 59.16     0.077 A 
HETATM   41  C41   D T1796       4.476  17.331  -4.076  1.00 59.34    -0.005 A 
HETATM   42  C42   D T1796       3.845  18.269  -5.039  1.00 59.63    -0.003 A 
HETATM   43  C43   D T1796       2.856  19.105  -4.641  1.00 59.97    -0.001 A 
HETATM   44  C44   D T1796       2.386  19.094  -3.242  1.00 60.46    -0.003 A 
HETATM   45  C45   D T1796       2.940  18.247  -2.331  1.00 60.90    -0.005 A 
BRANCH  41  46
HETATM   46  C48   D T1796       5.596  16.370  -4.497  1.00 60.16     0.028 C 
HETATM   47  C49   D T1796       6.250  16.716  -5.838  1.00 63.57     0.005 C 
ENDBRANCH  41  46
BRANCH  45  48
HETATM   48  C46   D T1796       2.458  18.219  -0.863  1.00 63.47     0.028 C 
HETATM   49  C47   D T1796       2.077  19.592  -0.270  1.00 66.56     0.005 C 
ENDBRANCH  45  48
ENDBRANCH  38  40
ENDBRANCH   7  37
TORSDOF 10
ENDMDL
MODEL 9
REMARK VINA RESULT:    -8.725      6.249     11.170
REMARK INTER + INTRA:         -15.737
REMARK INTER:                 -13.391
REMARK INTRA:                  -2.346
REMARK UNBOUND:                -1.911
REMARK  10 active torsions:
REMARK  status: ('A' for Active; 'I' for Inactive)
REMARK    1  A    between atoms: C7_7  and  C8_8 
REMARK       I    between atoms: C8_8  and  N9_9 
REMARK    2  A    between atoms: N9_9  and  C40_40 
REMARK    3  A    between atoms: C16_16  and  N18_18 
REMARK    4  A    between atoms: N18_18  and  C19_19 
REMARK    5  A    between atoms: C20_20  and  O25_25 
REMARK    6  A    between atoms: C22_22  and  C26_26 
REMARK    7  A    between atoms: O25_25  and  C36_36 
REMARK       I    between atoms: C26_26  and  N27_27 
REMARK    8  A    between atoms: N27_27  and  C29_29 
REMARK    9  A    between atoms: C41_41  and  C48_48 
REMARK   10  A    between atoms: C45_45  and  C46_46 
ROOT
HETATM    1  C1    D T1796       6.169  10.986   2.884  1.00 54.88     0.034 A 
HETATM    2  C2    D T1796       7.167  10.543   4.023  1.00 56.58     0.034 A 
HETATM    3  C3    D T1796       6.767  11.993   1.951  1.00 57.01     0.021 A 
HETATM    4  C4    D T1796       8.003  12.430   2.020  1.00 58.76     0.094 A 
HETATM    5  N5    D T1796       8.160  13.379   0.991  1.00 60.43    -0.248 N 
HETATM    6  N6    D T1796       7.001  13.493   0.312  1.00 59.38    -0.165 NA
HETATM    7  C7    D T1796       6.158  12.697   0.842  1.00 58.40     0.156 A 
HETATM    8  C11   D T1796       9.346  14.129   0.671  1.00 60.75     0.154 C 
HETATM    9  C12   D T1796       8.983  11.960   2.982  1.00 58.23     0.114 A 
HETATM   10  C13   D T1796       8.620  11.051   3.909  1.00 57.45     0.018 A 
HETATM   11  C14   D T1796       9.657  10.582   4.833  1.00 57.39     0.115 A 
HETATM   12  N15   D T1796      10.856  11.050   4.735  1.00 58.28    -0.058 NA
HETATM   13  C16   D T1796      11.196  12.021   3.739  1.00 61.20     0.750 A 
HETATM   14  N17   D T1796      10.307  12.429   2.931  1.00 59.17    -0.058 NA
ENDROOT
BRANCH  13  15
HETATM   15  N18   D T1796      12.502  12.547   3.607  1.00 64.60    -0.057 NA
BRANCH  15  16
HETATM   16  C19   D T1796      12.954  13.908   3.654  1.00 68.09     0.122 A 
HETATM   17  C20   D T1796      13.382  14.335   4.847  1.00 69.46     0.120 A 
HETATM   18  C21   D T1796      13.907  15.731   5.004  1.00 71.69     0.031 A 
HETATM   19  C22   D T1796      13.948  16.563   3.948  1.00 76.06     0.060 A 
HETATM   20  C23   D T1796      13.458  16.109   2.623  1.00 74.16     0.006 A 
HETATM   21  C24   D T1796      12.983  14.838   2.479  1.00 70.39     0.022 A 
BRANCH  17  22
HETATM   22  O25   D T1796      13.301  13.386   5.903  1.00 69.34    -0.252 OA
BRANCH  22  23
HETATM   23  C36   D T1796      12.316  13.561   6.904  1.00 69.66     0.530 C 
HETATM   24  F37   D T1796      12.033  12.325   7.464  1.00 69.10    -0.144 F 
HETATM   25  F38   D T1796      11.162  14.093   6.357  1.00 71.00    -0.144 F 
HETATM   26  F39   D T1796      12.762  14.435   7.893  1.00 69.28    -0.144 F 
ENDBRANCH  22  23
ENDBRANCH  17  22
BRANCH  19  27
HETATM   27  C26   D T1796      14.500  17.888   4.120  1.00 80.81     0.275 C 
HETATM   28  N27   D T1796      14.011  18.741   5.036  1.00 85.93    -0.236 NA
HETATM   29  O28   D T1796      15.436  18.221   3.362  1.00 81.56    -0.266 OA
BRANCH  28  30
HETATM   30  C29   D T1796      14.513  20.110   5.136  1.00 90.09     0.111 C 
HETATM   31  C30   D T1796      15.219  20.307   6.514  1.00 91.93     0.060 C 
HETATM   32  C31   D T1796      15.653  21.794   6.690  1.00 93.68     0.252 C 
HETATM   33  N32   D T1796      14.463  22.696   6.539  1.00 95.57     0.139 N 
HETATM   34  C33   D T1796      13.855  22.584   5.170  1.00 93.88     0.252 C 
HETATM   35  C35   D T1796      14.868  24.098   6.781  1.00 96.21     0.285 C 
HETATM   36  C34   D T1796      13.334  21.140   4.960  1.00 91.28     0.060 C 
ENDBRANCH  28  30
ENDBRANCH  19  27
ENDBRANCH  15  16
ENDBRANCH  13  15
BRANCH   7  37
HETATM   37  C8    D T1796       4.821  12.571   0.343  1.00 58.64     0.298 C 
HETATM   38  N9    D T1796       3.920  13.400   0.870  1.00 57.71    -0.207 NA
HETATM   39  O10   D T1796       4.512  11.736  -0.521  1.00 57.40    -0.263 OA
BRANCH  38  40
HETATM   40  C40   D T1796       2.584  13.505   0.452  1.00 59.16     0.077 A 
HETATM   41  C41   D T1796       1.637  12.894   1.210  1.00 59.34    -0.005 A 
HETATM   42  C42   D T1796       0.212  12.979   0.802  1.00 59.63    -0.003 A 
HETATM   43  C43   D T1796      -0.146  13.656  -0.316  1.00 59.97    -0.001 A 
HETATM   44  C44   D T1796       0.875  14.324  -1.145  1.00 60.46    -0.003 A 
HETATM   45  C45   D T1796       2.191  14.268  -0.801  1.00 60.90    -0.005 A 
BRANCH  41  46
HETATM   46  C48   D T1796       2.074  12.138   2.473  1.00 60.16     0.028 C 
HETATM   47  C49   D T1796       2.144  10.617   2.302  1.00 63.57     0.005 C 
ENDBRANCH  41  46
BRANCH  45  48
HETATM   48  C46   D T1796       3.275  14.964  -1.655  1.00 63.47     0.028 C 
HETATM   49  C47   D T1796       2.950  16.412  -2.079  1.00 66.56     0.005 C 
ENDBRANCH  45  48
ENDBRANCH  38  40
ENDBRANCH   7  37
TORSDOF 10
ENDMDL
