MODEL 1
REMARK VINA RESULT:    -9.040      0.000      0.000
REMARK INTER + INTRA:         -11.460
REMARK INTER:                 -11.154
REMARK INTRA:                  -0.306
REMARK UNBOUND:                -0.306
REMARK  4 active torsions:
REMARK  status: ('A' for Active; 'I' for Inactive)
REMARK    1  A    between atoms: C2_2  and  C4_4 
REMARK    2  A    between atoms: C6_6  and  C7_7 
REMARK       I    between atoms: C7_7  and  N9_9 
REMARK    3  A    between atoms: C14_14  and  C15_15 
REMARK    4  A    between atoms: C15_15  and  N16_16 
ROOT
HETATM    1  C7    D T1232      26.754  -1.186 -26.819  1.00  9.97     0.260 C 
HETATM    2  O8    D T1232      25.730  -0.804 -27.352  1.00 12.42    -0.267 OA
HETATM    3  N9    D T1232      27.964  -0.812 -27.257  1.00 13.46    -0.308 N 
HETATM    4  C10   D T1232      28.164   0.159 -28.342  1.00 13.49     0.131 C 
HETATM    5  C11   D T1232      29.604   0.551 -28.163  1.00 13.44    -0.002 A 
HETATM    6  C12   D T1232      30.344   1.508 -28.845  1.00 17.34    -0.003 A 
HETATM    7  C13   D T1232      31.675   1.710 -28.527  1.00 16.78    -0.003 A 
HETATM    8  C14   D T1232      32.285   0.958 -27.526  1.00 25.83     0.011 A 
HETATM    9  C25   D T1232      31.524   0.006 -26.854  1.00 22.06    -0.005 A 
HETATM   10  C26   D T1232      30.192  -0.189 -27.171  1.00 12.57    -0.002 A 
HETATM   11  C27   D T1232      29.222  -1.182 -26.592  1.00 12.00     0.131 C 
ENDROOT
BRANCH   1  12
HETATM   12  C6    D T1232      26.685  -2.163 -25.699  1.00 12.21     0.081 A 
HETATM   13  C5    D T1232      27.052  -3.493 -25.916  1.00 15.89     0.005 A 
HETATM   14  C4    D T1232      27.024  -4.432 -24.886  1.00  9.53     0.003 A 
HETATM   15  C31   D T1232      26.560  -4.005 -23.621  1.00 10.77     0.129 A 
HETATM   16  C30   D T1232      26.199  -2.685 -23.402  1.00 12.43     0.055 A 
HETATM   17  O32   D T1232      26.504  -4.868 -22.562  1.00 13.22    -0.190 OA
HETATM   18  C28   D T1232      26.266  -1.759 -24.443  1.00 11.17     0.138 A 
HETATM   19  O29   D T1232      25.903  -0.453 -24.241  1.00 12.20    -0.190 OA
BRANCH  14  20
HETATM   20  C2    D T1232      27.338  -5.905 -25.146  1.00 12.98     0.024 C 
HETATM   21  C1    D T1232      26.084  -6.768 -24.970  1.00 15.54     0.005 C 
HETATM   22  C3    D T1232      27.972  -6.161 -26.510  1.00 14.93     0.005 C 
ENDBRANCH  14  20
ENDBRANCH   1  12
BRANCH   8  23
HETATM   23  C15   D T1232      33.741   1.158 -27.187  1.00 39.58     0.277 C 
BRANCH  23  24
HETATM   24  N16   D T1232      34.246   2.523 -27.590  1.00 54.90     0.146 N 
HETATM   25  C18   D T1232      34.391   3.424 -26.398  1.00 62.09     0.286 C 
HETATM   26  C19   D T1232      34.916   4.794 -26.800  1.00 64.75     0.286 C 
HETATM   27  N20   D T1232      36.225   4.646 -27.505  1.00 66.96     0.143 N 
HETATM   28  C22   D T1232      36.826   5.973 -27.833  1.00 67.04     0.285 C 
HETATM   29  C23   D T1232      36.054   3.803 -28.727  1.00 63.79     0.286 C 
HETATM   30  C24   D T1232      35.544   2.425 -28.336  1.00 59.84     0.286 C 
ENDBRANCH  23  24
ENDBRANCH   8  23
TORSDOF 4
ENDMDL
MODEL 2
REMARK VINA RESULT:    -8.906      1.412      2.319
REMARK INTER + INTRA:         -11.294
REMARK INTER:                 -10.939
REMARK INTRA:                  -0.355
REMARK UNBOUND:                -0.306
REMARK  4 active torsions:
REMARK  status: ('A' for Active; 'I' for Inactive)
REMARK    1  A    between atoms: C2_2  and  C4_4 
REMARK    2  A    between atoms: C6_6  and  C7_7 
REMARK       I    between atoms: C7_7  and  N9_9 
REMARK    3  A    between atoms: C14_14  and  C15_15 
REMARK    4  A    between atoms: C15_15  and  N16_16 
ROOT
HETATM    1  C7    D T1232      27.400  -1.967 -27.625  1.00  9.97     0.260 C 
HETATM    2  O8    D T1232      26.344  -1.601 -28.101  1.00 12.42    -0.267 OA
HETATM    3  N9    D T1232      28.520  -1.239 -27.737  1.00 13.46    -0.308 N 
HETATM    4  C10   D T1232      28.554   0.097 -28.348  1.00 13.49     0.131 C 
HETATM    5  C11   D T1232      29.866   0.643 -27.856  1.00 13.44    -0.002 A 
HETATM    6  C12   D T1232      30.412   1.907 -28.035  1.00 17.34    -0.003 A 
HETATM    7  C13   D T1232      31.651   2.208 -27.500  1.00 16.78    -0.003 A 
HETATM    8  C14   D T1232      32.363   1.250 -26.782  1.00 25.83     0.011 A 
HETATM    9  C25   D T1232      31.796  -0.010 -26.613  1.00 22.06    -0.005 A 
HETATM   10  C26   D T1232      30.554  -0.305 -27.145  1.00 12.57    -0.002 A 
HETATM   11  C27   D T1232      29.796  -1.603 -27.103  1.00 12.00     0.131 C 
ENDROOT
BRANCH   1  12
HETATM   12  C6    D T1232      27.493  -3.299 -26.966  1.00 12.21     0.081 A 
HETATM   13  C5    D T1232      26.945  -3.482 -25.694  1.00 15.89     0.005 A 
HETATM   14  C4    D T1232      26.991  -4.720 -25.055  1.00  9.53     0.003 A 
HETATM   15  C31   D T1232      27.659  -5.776 -25.716  1.00 10.77     0.129 A 
HETATM   16  C30   D T1232      28.200  -5.597 -26.980  1.00 12.43     0.055 A 
HETATM   17  O32   D T1232      27.745  -7.019 -25.153  1.00 13.22    -0.190 OA
HETATM   18  C28   D T1232      28.112  -4.356 -27.609  1.00 11.17     0.138 A 
HETATM   19  O29   D T1232      28.651  -4.165 -28.855  1.00 12.20    -0.190 OA
BRANCH  14  20
HETATM   20  C2    D T1232      26.472  -4.896 -23.627  1.00 12.98     0.024 C 
HETATM   21  C1    D T1232      26.341  -3.540 -22.926  1.00 15.54     0.005 C 
HETATM   22  C3    D T1232      25.158  -5.665 -23.548  1.00 14.93     0.005 C 
ENDBRANCH  14  20
ENDBRANCH   1  12
BRANCH   8  23
HETATM   23  C15   D T1232      33.724   1.564 -26.212  1.00 39.58     0.277 C 
BRANCH  23  24
HETATM   24  N16   D T1232      34.368   2.756 -26.878  1.00 54.90     0.146 N 
HETATM   25  C18   D T1232      34.929   3.710 -25.863  1.00 62.09     0.286 C 
HETATM   26  C19   D T1232      35.593   4.904 -26.533  1.00 64.75     0.286 C 
HETATM   27  N20   D T1232      36.670   4.430 -27.455  1.00 66.96     0.143 N 
HETATM   28  C22   D T1232      37.415   5.573 -28.062  1.00 67.04     0.285 C 
HETATM   29  C23   D T1232      36.088   3.536 -28.501  1.00 63.79     0.286 C 
HETATM   30  C24   D T1232      35.434   2.331 -27.844  1.00 59.84     0.286 C 
ENDBRANCH  23  24
ENDBRANCH   8  23
TORSDOF 4
ENDMDL
MODEL 3
REMARK VINA RESULT:    -8.805      2.219      3.331
REMARK INTER + INTRA:         -11.170
REMARK INTER:                 -10.783
REMARK INTRA:                  -0.387
REMARK UNBOUND:                -0.306
REMARK  4 active torsions:
REMARK  status: ('A' for Active; 'I' for Inactive)
REMARK    1  A    between atoms: C2_2  and  C4_4 
REMARK    2  A    between atoms: C6_6  and  C7_7 
REMARK       I    between atoms: C7_7  and  N9_9 
REMARK    3  A    between atoms: C14_14  and  C15_15 
REMARK    4  A    between atoms: C15_15  and  N16_16 
ROOT
HETATM    1  C7    D T1232      27.658  -1.860 -27.666  1.00  9.97     0.260 C 
HETATM    2  O8    D T1232      26.631  -1.480 -28.193  1.00 12.42    -0.267 OA
HETATM    3  N9    D T1232      28.796  -1.157 -27.740  1.00 13.46    -0.308 N 
HETATM    4  C10   D T1232      28.884   0.169 -28.368  1.00 13.49     0.131 C 
HETATM    5  C11   D T1232      30.185   0.696 -27.827  1.00 13.44    -0.002 A 
HETATM    6  C12   D T1232      30.764   1.946 -28.000  1.00 17.34    -0.003 A 
HETATM    7  C13   D T1232      31.985   2.230 -27.416  1.00 16.78    -0.003 A 
HETATM    8  C14   D T1232      32.645   1.268 -26.655  1.00 25.83     0.011 A 
HETATM    9  C25   D T1232      32.046   0.023 -26.494  1.00 22.06    -0.005 A 
HETATM   10  C26   D T1232      30.822  -0.255 -27.074  1.00 12.57    -0.002 A 
HETATM   11  C27   D T1232      30.036  -1.537 -27.047  1.00 12.00     0.131 C 
ENDROOT
BRANCH   1  12
HETATM   12  C6    D T1232      27.694  -3.184 -26.986  1.00 12.21     0.081 A 
HETATM   13  C5    D T1232      27.148  -3.321 -25.708  1.00 15.89     0.005 A 
HETATM   14  C4    D T1232      27.141  -4.549 -25.049  1.00  9.53     0.003 A 
HETATM   15  C31   D T1232      27.756  -5.645 -25.696  1.00 10.77     0.129 A 
HETATM   16  C30   D T1232      28.296  -5.512 -26.966  1.00 12.43     0.055 A 
HETATM   17  O32   D T1232      27.790  -6.881 -25.112  1.00 13.22    -0.190 OA
HETATM   18  C28   D T1232      28.261  -4.278 -27.615  1.00 11.17     0.138 A 
HETATM   19  O29   D T1232      28.799  -4.132 -28.867  1.00 12.20    -0.190 OA
BRANCH  14  20
HETATM   20  C2    D T1232      26.626  -4.678 -23.615  1.00 12.98     0.024 C 
HETATM   21  C1    D T1232      26.489  -3.299 -22.960  1.00 15.54     0.005 C 
HETATM   22  C3    D T1232      25.315  -5.450 -23.507  1.00 14.93     0.005 C 
ENDBRANCH  14  20
ENDBRANCH   1  12
BRANCH   8  23
HETATM   23  C15   D T1232      33.988   1.563 -26.032  1.00 39.58     0.277 C 
BRANCH  23  24
HETATM   24  N16   D T1232      35.087   0.688 -26.588  1.00 54.90     0.146 N 
HETATM   25  C18   D T1232      36.269   1.507 -27.017  1.00 62.09     0.286 C 
HETATM   26  C19   D T1232      37.384   0.627 -27.562  1.00 64.75     0.286 C 
HETATM   27  N20   D T1232      37.789  -0.372 -26.527  1.00 66.96     0.143 N 
HETATM   28  C22   D T1232      38.948  -1.196 -26.981  1.00 67.04     0.285 C 
HETATM   29  C23   D T1232      36.619  -1.225 -26.157  1.00 63.79     0.286 C 
HETATM   30  C24   D T1232      35.503  -0.357 -25.597  1.00 59.84     0.286 C 
ENDBRANCH  23  24
ENDBRANCH   8  23
TORSDOF 4
ENDMDL
MODEL 4
REMARK VINA RESULT:    -8.777      1.748      2.512
REMARK INTER + INTRA:         -11.135
REMARK INTER:                 -10.685
REMARK INTRA:                  -0.450
REMARK UNBOUND:                -0.306
REMARK  4 active torsions:
REMARK  status: ('A' for Active; 'I' for Inactive)
REMARK    1  A    between atoms: C2_2  and  C4_4 
REMARK    2  A    between atoms: C6_6  and  C7_7 
REMARK       I    between atoms: C7_7  and  N9_9 
REMARK    3  A    between atoms: C14_14  and  C15_15 
REMARK    4  A    between atoms: C15_15  and  N16_16 
ROOT
HETATM    1  C7    D T1232      26.641  -0.423 -27.741  1.00  9.97     0.260 C 
HETATM    2  O8    D T1232      25.736   0.336 -28.026  1.00 12.42    -0.267 OA
HETATM    3  N9    D T1232      27.928  -0.090 -27.913  1.00 13.46    -0.308 N 
HETATM    4  C10   D T1232      28.363   1.241 -28.359  1.00 13.49     0.131 C 
HETATM    5  C11   D T1232      29.819   1.246 -27.984  1.00 13.44    -0.002 A 
HETATM    6  C12   D T1232      30.746   2.276 -28.081  1.00 17.34    -0.003 A 
HETATM    7  C13   D T1232      32.054   2.070 -27.683  1.00 16.78    -0.003 A 
HETATM    8  C14   D T1232      32.455   0.833 -27.186  1.00 25.83     0.011 A 
HETATM    9  C25   D T1232      31.510  -0.185 -27.095  1.00 22.06    -0.005 A 
HETATM   10  C26   D T1232      30.201   0.028 -27.489  1.00 12.57    -0.002 A 
HETATM   11  C27   D T1232      29.053  -0.944 -27.503  1.00 12.00     0.131 C 
ENDROOT
BRANCH   1  12
HETATM   12  C6    D T1232      26.330  -1.799 -27.264  1.00 12.21     0.081 A 
HETATM   13  C5    D T1232      26.506  -2.121 -25.917  1.00 15.89     0.005 A 
HETATM   14  C4    D T1232      26.202  -3.391 -25.428  1.00  9.53     0.003 A 
HETATM   15  C31   D T1232      25.760  -4.362 -26.354  1.00 10.77     0.129 A 
HETATM   16  C30   D T1232      25.581  -4.043 -27.691  1.00 12.43     0.055 A 
HETATM   17  O32   D T1232      25.444  -5.630 -25.951  1.00 13.22    -0.190 OA
HETATM   18  C28   D T1232      25.863  -2.756 -28.147  1.00 11.17     0.138 A 
HETATM   19  O29   D T1232      25.698  -2.431 -29.469  1.00 12.20    -0.190 OA
BRANCH  14  20
HETATM   20  C2    D T1232      26.481  -3.769 -23.973  1.00 12.98     0.024 C 
HETATM   21  C1    D T1232      27.794  -4.551 -23.856  1.00 15.54     0.005 C 
HETATM   22  C3    D T1232      26.489  -2.575 -23.025  1.00 14.93     0.005 C 
ENDBRANCH  14  20
ENDBRANCH   1  12
BRANCH   8  23
HETATM   23  C15   D T1232      33.885   0.593 -26.769  1.00 39.58     0.277 C 
BRANCH  23  24
HETATM   24  N16   D T1232      34.572   1.857 -26.308  1.00 54.90     0.146 N 
HETATM   25  C18   D T1232      35.084   1.717 -24.903  1.00 62.09     0.286 C 
HETATM   26  C19   D T1232      35.791   2.984 -24.443  1.00 64.75     0.286 C 
HETATM   27  N20   D T1232      36.912   3.303 -25.379  1.00 66.96     0.143 N 
HETATM   28  C22   D T1232      37.696   4.485 -24.912  1.00 67.04     0.285 C 
HETATM   29  C23   D T1232      36.381   3.507 -26.760  1.00 63.79     0.286 C 
HETATM   30  C24   D T1232      35.684   2.241 -27.237  1.00 59.84     0.286 C 
ENDBRANCH  23  24
ENDBRANCH   8  23
TORSDOF 4
ENDMDL
MODEL 5
REMARK VINA RESULT:    -8.602      2.472      3.345
REMARK INTER + INTRA:         -10.920
REMARK INTER:                 -10.425
REMARK INTRA:                  -0.495
REMARK UNBOUND:                -0.306
REMARK  4 active torsions:
REMARK  status: ('A' for Active; 'I' for Inactive)
REMARK    1  A    between atoms: C2_2  and  C4_4 
REMARK    2  A    between atoms: C6_6  and  C7_7 
REMARK       I    between atoms: C7_7  and  N9_9 
REMARK    3  A    between atoms: C14_14  and  C15_15 
REMARK    4  A    between atoms: C15_15  and  N16_16 
ROOT
HETATM    1  C7    D T1232      28.097   0.233 -27.950  1.00  9.97     0.260 C 
HETATM    2  O8    D T1232      27.339   0.763 -28.738  1.00 12.42    -0.267 OA
HETATM    3  N9    D T1232      29.424   0.420 -28.005  1.00 13.46    -0.308 N 
HETATM    4  C10   D T1232      30.068   1.350 -28.943  1.00 13.49     0.131 C 
HETATM    5  C11   D T1232      31.434   1.521 -28.340  1.00 13.44    -0.002 A 
HETATM    6  C12   D T1232      32.470   2.356 -28.739  1.00 17.34    -0.003 A 
HETATM    7  C13   D T1232      33.665   2.357 -28.043  1.00 16.78    -0.003 A 
HETATM    8  C14   D T1232      33.843   1.523 -26.942  1.00 25.83     0.011 A 
HETATM    9  C25   D T1232      32.791   0.696 -26.558  1.00 22.06    -0.005 A 
HETATM   10  C26   D T1232      31.595   0.702 -27.254  1.00 12.57    -0.002 A 
HETATM   11  C27   D T1232      30.367  -0.133 -27.022  1.00 12.00     0.131 C 
ENDROOT
BRANCH   1  12
HETATM   12  C6    D T1232      27.566  -0.723 -26.940  1.00 12.21     0.081 A 
HETATM   13  C5    D T1232      27.765  -2.094 -27.112  1.00 15.89     0.005 A 
HETATM   14  C4    D T1232      27.304  -3.018 -26.175  1.00  9.53     0.003 A 
HETATM   15  C31   D T1232      26.578  -2.524 -25.067  1.00 10.77     0.129 A 
HETATM   16  C30   D T1232      26.383  -1.163 -24.893  1.00 12.43     0.055 A 
HETATM   17  O32   D T1232      26.094  -3.368 -24.108  1.00 13.22    -0.190 OA
HETATM   18  C28   D T1232      26.883  -0.259 -25.830  1.00 11.17     0.138 A 
HETATM   19  O29   D T1232      26.688   1.089 -25.672  1.00 12.20    -0.190 OA
BRANCH  14  20
HETATM   20  C2    D T1232      27.442  -4.523 -26.410  1.00 12.98     0.024 C 
HETATM   21  C1    D T1232      26.187  -5.085 -27.087  1.00 15.54     0.005 C 
HETATM   22  C3    D T1232      28.688  -4.903 -27.202  1.00 14.93     0.005 C 
ENDBRANCH  14  20
ENDBRANCH   1  12
BRANCH   8  23
HETATM   23  C15   D T1232      35.150   1.502 -26.189  1.00 39.58     0.277 C 
BRANCH  23  24
HETATM   24  N16   D T1232      36.080   0.416 -26.675  1.00 54.90     0.146 N 
HETATM   25  C18   D T1232      37.486   0.923 -26.813  1.00 62.09     0.286 C 
HETATM   26  C19   D T1232      38.427  -0.175 -27.286  1.00 64.75     0.286 C 
HETATM   27  N20   D T1232      38.378  -1.326 -26.335  1.00 66.96     0.143 N 
HETATM   28  C22   D T1232      39.358  -2.389 -26.707  1.00 67.04     0.285 C 
HETATM   29  C23   D T1232      36.986  -1.865 -26.259  1.00 63.79     0.286 C 
HETATM   30  C24   D T1232      36.038  -0.780 -25.772  1.00 59.84     0.286 C 
ENDBRANCH  23  24
ENDBRANCH   8  23
TORSDOF 4
ENDMDL
MODEL 6
REMARK VINA RESULT:    -8.565      1.969      2.425
REMARK INTER + INTRA:         -10.873
REMARK INTER:                 -10.536
REMARK INTRA:                  -0.338
REMARK UNBOUND:                -0.306
REMARK  4 active torsions:
REMARK  status: ('A' for Active; 'I' for Inactive)
REMARK    1  A    between atoms: C2_2  and  C4_4 
REMARK    2  A    between atoms: C6_6  and  C7_7 
REMARK       I    between atoms: C7_7  and  N9_9 
REMARK    3  A    between atoms: C14_14  and  C15_15 
REMARK    4  A    between atoms: C15_15  and  N16_16 
ROOT
HETATM    1  C7    D T1232      28.016   0.366 -27.834  1.00  9.97     0.260 C 
HETATM    2  O8    D T1232      27.232   0.994 -28.517  1.00 12.42    -0.267 OA
HETATM    3  N9    D T1232      29.343   0.479 -27.990  1.00 13.46    -0.308 N 
HETATM    4  C10   D T1232      29.966   1.433 -28.918  1.00 13.49     0.131 C 
HETATM    5  C11   D T1232      31.385   1.482 -28.424  1.00 13.44    -0.002 A 
HETATM    6  C12   D T1232      32.437   2.281 -28.855  1.00 17.34    -0.003 A 
HETATM    7  C13   D T1232      33.682   2.164 -28.266  1.00 16.78    -0.003 A 
HETATM    8  C14   D T1232      33.895   1.245 -27.241  1.00 25.83     0.011 A 
HETATM    9  C25   D T1232      32.828   0.456 -26.823  1.00 22.06    -0.005 A 
HETATM   10  C26   D T1232      31.582   0.581 -27.411  1.00 12.57    -0.002 A 
HETATM   11  C27   D T1232      30.326  -0.196 -27.129  1.00 12.00     0.131 C 
ENDROOT
BRANCH   1  12
HETATM   12  C6    D T1232      27.509  -0.625 -26.846  1.00 12.21     0.081 A 
HETATM   13  C5    D T1232      27.720  -1.989 -27.062  1.00 15.89     0.005 A 
HETATM   14  C4    D T1232      27.282  -2.945 -26.147  1.00  9.53     0.003 A 
HETATM   15  C31   D T1232      26.567  -2.493 -25.015  1.00 10.77     0.129 A 
HETATM   16  C30   D T1232      26.360  -1.140 -24.797  1.00 12.43     0.055 A 
HETATM   17  O32   D T1232      26.104  -3.371 -24.075  1.00 13.22    -0.190 OA
HETATM   18  C28   D T1232      26.836  -0.202 -25.713  1.00 11.17     0.138 A 
HETATM   19  O29   D T1232      26.630   1.138 -25.512  1.00 12.20    -0.190 OA
BRANCH  14  20
HETATM   20  C2    D T1232      27.432  -4.441 -26.430  1.00 12.98     0.024 C 
HETATM   21  C1    D T1232      26.124  -5.027 -26.971  1.00 15.54     0.005 C 
HETATM   22  C3    D T1232      28.589  -4.769 -27.367  1.00 14.93     0.005 C 
ENDBRANCH  14  20
ENDBRANCH   1  12
BRANCH   8  23
HETATM   23  C15   D T1232      35.256   1.096 -26.606  1.00 39.58     0.277 C 
BRANCH  23  24
HETATM   24  N16   D T1232      35.649   2.306 -25.791  1.00 54.90     0.146 N 
HETATM   25  C18   D T1232      36.047   1.917 -24.397  1.00 62.09     0.286 C 
HETATM   26  C19   D T1232      36.459   3.132 -23.580  1.00 64.75     0.286 C 
HETATM   27  N20   D T1232      37.582   3.843 -24.264  1.00 66.96     0.143 N 
HETATM   28  C22   D T1232      38.085   4.988 -23.449  1.00 67.04     0.285 C 
HETATM   29  C23   D T1232      37.151   4.284 -25.625  1.00 63.79     0.286 C 
HETATM   30  C24   D T1232      36.751   3.075 -26.457  1.00 59.84     0.286 C 
ENDBRANCH  23  24
ENDBRANCH   8  23
TORSDOF 4
ENDMDL
MODEL 7
REMARK VINA RESULT:    -8.199      4.289      9.414
REMARK INTER + INTRA:         -10.422
REMARK INTER:                  -9.695
REMARK INTRA:                  -0.727
REMARK UNBOUND:                -0.306
REMARK  4 active torsions:
REMARK  status: ('A' for Active; 'I' for Inactive)
REMARK    1  A    between atoms: C2_2  and  C4_4 
REMARK    2  A    between atoms: C6_6  and  C7_7 
REMARK       I    between atoms: C7_7  and  N9_9 
REMARK    3  A    between atoms: C14_14  and  C15_15 
REMARK    4  A    between atoms: C15_15  and  N16_16 
ROOT
HETATM    1  C7    D T1232      34.844   2.549 -26.837  1.00  9.97     0.260 C 
HETATM    2  O8    D T1232      35.162   3.626 -27.301  1.00 12.42    -0.267 OA
HETATM    3  N9    D T1232      33.578   2.109 -26.864  1.00 13.46    -0.308 N 
HETATM    4  C10   D T1232      32.489   2.832 -27.536  1.00 13.49     0.131 C 
HETATM    5  C11   D T1232      31.428   1.773 -27.659  1.00 13.44    -0.002 A 
HETATM    6  C12   D T1232      30.193   1.840 -28.290  1.00 17.34    -0.003 A 
HETATM    7  C13   D T1232      29.352   0.742 -28.282  1.00 16.78    -0.003 A 
HETATM    8  C14   D T1232      29.731  -0.435 -27.641  1.00 25.83     0.011 A 
HETATM    9  C25   D T1232      30.974  -0.480 -27.016  1.00 22.06    -0.005 A 
HETATM   10  C26   D T1232      31.815   0.619 -27.032  1.00 12.57    -0.002 A 
HETATM   11  C27   D T1232      33.166   0.779 -26.392  1.00 12.00     0.131 C 
ENDROOT
BRANCH   1  12
HETATM   12  C6    D T1232      35.861   1.714 -26.140  1.00 12.21     0.081 A 
HETATM   13  C5    D T1232      36.568   0.745 -26.855  1.00 15.89     0.005 A 
HETATM   14  C4    D T1232      37.545  -0.039 -26.243  1.00  9.53     0.003 A 
HETATM   15  C31   D T1232      37.762   0.143 -24.858  1.00 10.77     0.129 A 
HETATM   16  C30   D T1232      37.063   1.107 -24.149  1.00 12.43     0.055 A 
HETATM   17  O32   D T1232      38.702  -0.589 -24.188  1.00 13.22    -0.190 OA
HETATM   18  C28   D T1232      36.113   1.899 -24.793  1.00 11.17     0.138 A 
HETATM   19  O29   D T1232      35.411   2.850 -24.100  1.00 12.20    -0.190 OA
BRANCH  14  20
HETATM   20  C2    D T1232      38.253  -1.162 -27.003  1.00 12.98     0.024 C 
HETATM   21  C1    D T1232      37.366  -2.409 -27.083  1.00 15.54     0.005 C 
HETATM   22  C3    D T1232      38.721  -0.753 -28.395  1.00 14.93     0.005 C 
ENDBRANCH  14  20
ENDBRANCH   1  12
BRANCH   8  23
HETATM   23  C15   D T1232      28.811  -1.630 -27.609  1.00 39.58     0.277 C 
BRANCH  23  24
HETATM   24  N16   D T1232      28.400  -2.005 -26.205  1.00 54.90     0.146 N 
HETATM   25  C18   D T1232      26.942  -1.729 -25.973  1.00 62.09     0.286 C 
HETATM   26  C19   D T1232      26.521  -2.122 -24.565  1.00 64.75     0.286 C 
HETATM   27  N20   D T1232      26.823  -3.567 -24.333  1.00 66.96     0.143 N 
HETATM   28  C22   D T1232      26.338  -4.022 -22.996  1.00 67.04     0.285 C 
HETATM   29  C23   D T1232      28.287  -3.816 -24.500  1.00 63.79     0.286 C 
HETATM   30  C24   D T1232      28.716  -3.441 -25.910  1.00 59.84     0.286 C 
ENDBRANCH  23  24
ENDBRANCH   8  23
TORSDOF 4
ENDMDL
MODEL 8
REMARK VINA RESULT:    -8.086      3.648      9.417
REMARK INTER + INTRA:         -10.283
REMARK INTER:                 -10.355
REMARK INTRA:                   0.071
REMARK UNBOUND:                -0.306
REMARK  4 active torsions:
REMARK  status: ('A' for Active; 'I' for Inactive)
REMARK    1  A    between atoms: C2_2  and  C4_4 
REMARK    2  A    between atoms: C6_6  and  C7_7 
REMARK       I    between atoms: C7_7  and  N9_9 
REMARK    3  A    between atoms: C14_14  and  C15_15 
REMARK    4  A    between atoms: C15_15  and  N16_16 
ROOT
HETATM    1  C7    D T1232      32.039   1.636 -27.513  1.00  9.97     0.260 C 
HETATM    2  O8    D T1232      31.954   2.538 -28.323  1.00 12.42    -0.267 OA
HETATM    3  N9    D T1232      31.026   0.787 -27.286  1.00 13.46    -0.308 N 
HETATM    4  C10   D T1232      29.774   0.804 -28.055  1.00 13.49     0.131 C 
HETATM    5  C11   D T1232      29.184  -0.542 -27.739  1.00 13.44    -0.002 A 
HETATM    6  C12   D T1232      28.037  -1.138 -28.246  1.00 17.34    -0.003 A 
HETATM    7  C13   D T1232      27.660  -2.396 -27.813  1.00 16.78    -0.003 A 
HETATM    8  C14   D T1232      28.422  -3.074 -26.865  1.00 25.83     0.011 A 
HETATM    9  C25   D T1232      29.569  -2.460 -26.371  1.00 22.06    -0.005 A 
HETATM   10  C26   D T1232      29.945  -1.204 -26.812  1.00 12.57    -0.002 A 
HETATM   11  C27   D T1232      31.116  -0.366 -26.379  1.00 12.00     0.131 C 
ENDROOT
BRANCH   1  12
HETATM   12  C6    D T1232      33.265   1.504 -26.678  1.00 12.21     0.081 A 
HETATM   13  C5    D T1232      34.155   0.455 -26.916  1.00 15.89     0.005 A 
HETATM   14  C4    D T1232      35.325   0.312 -26.172  1.00  9.53     0.003 A 
HETATM   15  C31   D T1232      35.557   1.237 -25.129  1.00 10.77     0.129 A 
HETATM   16  C30   D T1232      34.676   2.281 -24.894  1.00 12.43     0.055 A 
HETATM   17  O32   D T1232      36.681   1.161 -24.355  1.00 13.22    -0.190 OA
HETATM   18  C28   D T1232      33.529   2.418 -25.674  1.00 11.17     0.138 A 
HETATM   19  O29   D T1232      32.646   3.442 -25.445  1.00 12.20    -0.190 OA
BRANCH  14  20
HETATM   20  C2    D T1232      36.252  -0.888 -26.372  1.00 12.98     0.024 C 
HETATM   21  C1    D T1232      37.656  -0.429 -26.779  1.00 15.54     0.005 C 
HETATM   22  C3    D T1232      36.325  -1.810 -25.160  1.00 14.93     0.005 C 
ENDBRANCH  14  20
ENDBRANCH   1  12
BRANCH   8  23
HETATM   23  C15   D T1232      28.008  -4.439 -26.372  1.00 39.58     0.277 C 
BRANCH  23  24
HETATM   24  N16   D T1232      26.916  -4.369 -25.330  1.00 54.90     0.146 N 
HETATM   25  C18   D T1232      26.203  -5.684 -25.200  1.00 62.09     0.286 C 
HETATM   26  C19   D T1232      25.115  -5.621 -24.139  1.00 64.75     0.286 C 
HETATM   27  N20   D T1232      25.710  -5.217 -22.829  1.00 66.96     0.143 N 
HETATM   28  C22   D T1232      24.695  -5.235 -21.734  1.00 67.04     0.285 C 
HETATM   29  C23   D T1232      26.358  -3.876 -22.955  1.00 63.79     0.286 C 
HETATM   30  C24   D T1232      27.459  -3.931 -24.002  1.00 59.84     0.286 C 
ENDBRANCH  23  24
ENDBRANCH   8  23
TORSDOF 4
ENDMDL
MODEL 9
REMARK VINA RESULT:    -7.787      3.579      9.098
REMARK INTER + INTRA:          -9.914
REMARK INTER:                  -9.687
REMARK INTRA:                  -0.227
REMARK UNBOUND:                -0.306
REMARK  4 active torsions:
REMARK  status: ('A' for Active; 'I' for Inactive)
REMARK    1  A    between atoms: C2_2  and  C4_4 
REMARK    2  A    between atoms: C6_6  and  C7_7 
REMARK       I    between atoms: C7_7  and  N9_9 
REMARK    3  A    between atoms: C14_14  and  C15_15 
REMARK    4  A    between atoms: C15_15  and  N16_16 
ROOT
HETATM    1  C7    D T1232      32.540   1.833 -28.032  1.00  9.97     0.260 C 
HETATM    2  O8    D T1232      32.833   2.432 -29.048  1.00 12.42    -0.267 OA
HETATM    3  N9    D T1232      31.288   1.419 -27.787  1.00 13.46    -0.308 N 
HETATM    4  C10   D T1232      30.191   1.558 -28.754  1.00 13.49     0.131 C 
HETATM    5  C11   D T1232      29.166   0.597 -28.218  1.00 13.44    -0.002 A 
HETATM    6  C12   D T1232      27.941   0.229 -28.760  1.00 17.34    -0.003 A 
HETATM    7  C13   D T1232      27.135  -0.677 -28.096  1.00 16.78    -0.003 A 
HETATM    8  C14   D T1232      27.538  -1.224 -26.880  1.00 25.83     0.011 A 
HETATM    9  C25   D T1232      28.769  -0.842 -26.356  1.00 22.06    -0.005 A 
HETATM   10  C26   D T1232      29.576   0.059 -27.027  1.00 12.57    -0.002 A 
HETATM   11  C27   D T1232      30.909   0.619 -26.613  1.00 12.00     0.131 C 
ENDROOT
BRANCH   1  12
HETATM   12  C6    D T1232      33.568   1.617 -26.977  1.00 12.21     0.081 A 
HETATM   13  C5    D T1232      34.414   0.508 -27.052  1.00 15.89     0.005 A 
HETATM   14  C4    D T1232      35.405   0.285 -26.098  1.00  9.53     0.003 A 
HETATM   15  C31   D T1232      35.493   1.192 -25.017  1.00 10.77     0.129 A 
HETATM   16  C30   D T1232      34.657   2.295 -24.944  1.00 12.43     0.055 A 
HETATM   17  O32   D T1232      36.438   1.039 -24.042  1.00 13.22    -0.190 OA
HETATM   18  C28   D T1232      33.695   2.511 -25.929  1.00 11.17     0.138 A 
HETATM   19  O29   D T1232      32.856   3.594 -25.862  1.00 12.20    -0.190 OA
BRANCH  14  20
HETATM   20  C2    D T1232      36.269  -0.977 -26.130  1.00 12.98     0.024 C 
HETATM   21  C1    D T1232      37.744  -0.620 -26.345  1.00 15.54     0.005 C 
HETATM   22  C3    D T1232      36.110  -1.855 -24.894  1.00 14.93     0.005 C 
ENDBRANCH  14  20
ENDBRANCH   1  12
BRANCH   8  23
HETATM   23  C15   D T1232      26.655  -2.197 -26.138  1.00 39.58     0.277 C 
BRANCH  23  24
HETATM   24  N16   D T1232      27.320  -3.536 -25.928  1.00 54.90     0.146 N 
HETATM   25  C18   D T1232      26.572  -4.364 -24.924  1.00 62.09     0.286 C 
HETATM   26  C19   D T1232      27.232  -5.721 -24.724  1.00 64.75     0.286 C 
HETATM   27  N20   D T1232      27.317  -6.438 -26.032  1.00 66.96     0.143 N 
HETATM   28  C22   D T1232      27.870  -7.815 -25.868  1.00 67.04     0.285 C 
HETATM   29  C23   D T1232      28.121  -5.635 -27.002  1.00 63.79     0.286 C 
HETATM   30  C24   D T1232      27.463  -4.281 -27.222  1.00 59.84     0.286 C 
ENDBRANCH  23  24
ENDBRANCH   8  23
TORSDOF 4
ENDMDL
