MODEL 1
REMARK VINA RESULT:    -9.033      0.000      0.000
REMARK INTER + INTRA:         -11.527
REMARK INTER:                 -11.145
REMARK INTRA:                  -0.382
REMARK UNBOUND:                -0.382
REMARK  4 active torsions:
REMARK  status: ('A' for Active; 'I' for Inactive)
REMARK    1  A    between atoms: C2_2  and  C4_4 
REMARK    2  A    between atoms: C6_6  and  C7_7 
REMARK       I    between atoms: C7_7  and  N9_9 
REMARK    3  A    between atoms: C14_14  and  C15_15 
REMARK    4  A    between atoms: C15_15  and  N16_16 
ROOT
HETATM    1  C7    D T1232      25.976  -1.759 -27.480  1.00  9.97     0.260 C 
HETATM    2  O8    D T1232      24.989  -1.082 -27.692  1.00 12.42    -0.267 OA
HETATM    3  N9    D T1232      27.210  -1.330 -27.783  1.00 13.46    -0.308 N 
HETATM    4  C10   D T1232      27.491   0.018 -28.295  1.00 13.49     0.131 C 
HETATM    5  C11   D T1232      28.970   0.149 -28.063  1.00 13.44    -0.002 A 
HETATM    6  C12   D T1232      29.796   1.246 -28.269  1.00 17.34    -0.003 A 
HETATM    7  C13   D T1232      31.149   1.156 -27.995  1.00 16.78    -0.003 A 
HETATM    8  C14   D T1232      31.695  -0.031 -27.514  1.00 25.83     0.011 A 
HETATM    9  C25   D T1232      30.848  -1.118 -27.313  1.00 22.06    -0.005 A 
HETATM   10  C26   D T1232      29.495  -1.021 -27.582  1.00 12.57    -0.002 A 
HETATM   11  C27   D T1232      28.434  -2.081 -27.466  1.00 12.00     0.131 C 
ENDROOT
BRANCH   1  12
HETATM   12  C6    D T1232      25.824  -3.141 -26.949  1.00 12.21     0.081 A 
HETATM   13  C5    D T1232      25.891  -3.365 -25.571  1.00 15.89     0.005 A 
HETATM   14  C4    D T1232      25.729  -4.642 -25.035  1.00  9.53     0.003 A 
HETATM   15  C31   D T1232      25.547  -5.715 -25.937  1.00 10.77     0.129 A 
HETATM   16  C30   D T1232      25.476  -5.494 -27.304  1.00 12.43     0.055 A 
HETATM   17  O32   D T1232      25.383  -6.996 -25.487  1.00 13.22    -0.190 OA
HETATM   18  C28   D T1232      25.610  -4.201 -27.811  1.00 11.17     0.138 A 
HETATM   19  O29   D T1232      25.551  -3.972 -29.161  1.00 12.20    -0.190 OA
BRANCH  14  20
HETATM   20  C2    D T1232      25.894  -4.900 -23.537  1.00 12.98     0.024 C 
HETATM   21  C1    D T1232      26.218  -3.599 -22.793  1.00 15.54     0.005 C 
HETATM   22  C3    D T1232      24.691  -5.590 -22.902  1.00 14.93     0.005 C 
ENDBRANCH  14  20
ENDBRANCH   1  12
BRANCH   8  23
HETATM   23  C15   D T1232      33.173  -0.145 -27.233  1.00 39.58     0.277 C 
BRANCH  23  24
HETATM   24  N16   D T1232      33.866   1.195 -27.228  1.00 54.90     0.146 N 
HETATM   25  C18   D T1232      34.178   1.642 -25.829  1.00 62.09     0.286 C 
HETATM   26  C19   D T1232      34.892   2.985 -25.822  1.00 64.75     0.286 C 
HETATM   27  N20   D T1232      36.143   2.896 -26.634  1.00 66.96     0.143 N 
HETATM   28  C22   D T1232      36.928   4.165 -26.577  1.00 67.04     0.285 C 
HETATM   29  C23   D T1232      35.811   2.519 -28.042  1.00 63.79     0.286 C 
HETATM   30  C24   D T1232      35.110   1.168 -28.063  1.00 59.84     0.286 C 
ENDBRANCH  23  24
ENDBRANCH   8  23
TORSDOF 4
ENDMDL
MODEL 2
REMARK VINA RESULT:    -8.903      1.251      2.219
REMARK INTER + INTRA:         -11.367
REMARK INTER:                 -11.058
REMARK INTRA:                  -0.308
REMARK UNBOUND:                -0.382
REMARK  4 active torsions:
REMARK  status: ('A' for Active; 'I' for Inactive)
REMARK    1  A    between atoms: C2_2  and  C4_4 
REMARK    2  A    between atoms: C6_6  and  C7_7 
REMARK       I    between atoms: C7_7  and  N9_9 
REMARK    3  A    between atoms: C14_14  and  C15_15 
REMARK    4  A    between atoms: C15_15  and  N16_16 
ROOT
HETATM    1  C7    D T1232      26.345  -1.728 -26.697  1.00  9.97     0.260 C 
HETATM    2  O8    D T1232      25.337  -1.225 -27.150  1.00 12.42    -0.267 OA
HETATM    3  N9    D T1232      27.565  -1.420 -27.161  1.00 13.46    -0.308 N 
HETATM    4  C10   D T1232      27.801  -0.384 -28.176  1.00 13.49     0.131 C 
HETATM    5  C11   D T1232      29.275  -0.125 -28.035  1.00 13.44    -0.002 A 
HETATM    6  C12   D T1232      30.065   0.820 -28.675  1.00 17.34    -0.003 A 
HETATM    7  C13   D T1232      31.419   0.890 -28.405  1.00 16.78    -0.003 A 
HETATM    8  C14   D T1232      32.004   0.014 -27.494  1.00 25.83     0.011 A 
HETATM    9  C25   D T1232      31.193  -0.925 -26.862  1.00 22.06    -0.005 A 
HETATM   10  C26   D T1232      29.838  -0.986 -27.130  1.00 12.57    -0.002 A 
HETATM   11  C27   D T1232      28.812  -1.942 -26.584  1.00 12.00     0.131 C 
ENDROOT
BRANCH   1  12
HETATM   12  C6    D T1232      26.239  -2.784 -25.652  1.00 12.21     0.081 A 
HETATM   13  C5    D T1232      26.506  -4.115 -25.983  1.00 15.89     0.005 A 
HETATM   14  C4    D T1232      26.442  -5.127 -25.026  1.00  9.53     0.003 A 
HETATM   15  C31   D T1232      26.045  -4.769 -23.717  1.00 10.77     0.129 A 
HETATM   16  C30   D T1232      25.784  -3.449 -23.386  1.00 12.43     0.055 A 
HETATM   17  O32   D T1232      25.957  -5.707 -22.725  1.00 13.22    -0.190 OA
HETATM   18  C28   D T1232      25.887  -2.451 -24.356  1.00 11.17     0.138 A 
HETATM   19  O29   D T1232      25.623  -1.143 -24.043  1.00 12.20    -0.190 OA
BRANCH  14  20
HETATM   20  C2    D T1232      26.643  -6.594 -25.408  1.00 12.98     0.024 C 
HETATM   21  C1    D T1232      25.327  -7.371 -25.297  1.00 15.54     0.005 C 
HETATM   22  C3    D T1232      27.257  -6.783 -26.792  1.00 14.93     0.005 C 
ENDBRANCH  14  20
ENDBRANCH   1  12
BRANCH   8  23
HETATM   23  C15   D T1232      33.484   0.068 -27.209  1.00 39.58     0.277 C 
BRANCH  23  24
HETATM   24  N16   D T1232      34.066   1.444 -27.429  1.00 54.90     0.146 N 
HETATM   25  C18   D T1232      34.457   2.084 -26.129  1.00 62.09     0.286 C 
HETATM   26  C19   D T1232      35.060   3.464 -26.350  1.00 64.75     0.286 C 
HETATM   27  N20   D T1232      36.241   3.359 -27.258  1.00 66.96     0.143 N 
HETATM   28  C22   D T1232      36.924   4.676 -27.427  1.00 67.04     0.285 C 
HETATM   29  C23   D T1232      35.824   2.784 -28.573  1.00 63.79     0.286 C 
HETATM   30  C24   D T1232      35.235   1.397 -28.367  1.00 59.84     0.286 C 
ENDBRANCH  23  24
ENDBRANCH   8  23
TORSDOF 4
ENDMDL
MODEL 3
REMARK VINA RESULT:    -8.710      2.177      2.681
REMARK INTER + INTRA:         -11.129
REMARK INTER:                 -10.768
REMARK INTRA:                  -0.361
REMARK UNBOUND:                -0.382
REMARK  4 active torsions:
REMARK  status: ('A' for Active; 'I' for Inactive)
REMARK    1  A    between atoms: C2_2  and  C4_4 
REMARK    2  A    between atoms: C6_6  and  C7_7 
REMARK       I    between atoms: C7_7  and  N9_9 
REMARK    3  A    between atoms: C14_14  and  C15_15 
REMARK    4  A    between atoms: C15_15  and  N16_16 
ROOT
HETATM    1  C7    D T1232      27.254  -2.288 -27.622  1.00  9.97     0.260 C 
HETATM    2  O8    D T1232      26.253  -1.782 -28.087  1.00 12.42    -0.267 OA
HETATM    3  N9    D T1232      28.451  -1.685 -27.683  1.00 13.46    -0.308 N 
HETATM    4  C10   D T1232      28.641  -0.329 -28.217  1.00 13.49     0.131 C 
HETATM    5  C11   D T1232      29.998   0.039 -27.683  1.00 13.44    -0.002 A 
HETATM    6  C12   D T1232      30.683   1.242 -27.785  1.00 17.34    -0.003 A 
HETATM    7  C13   D T1232      31.940   1.373 -27.223  1.00 16.78    -0.003 A 
HETATM    8  C14   D T1232      32.530   0.304 -26.553  1.00 25.83     0.011 A 
HETATM    9  C25   D T1232      31.824  -0.893 -26.462  1.00 22.06    -0.005 A 
HETATM   10  C26   D T1232      30.565  -1.018 -27.020  1.00 12.57    -0.002 A 
HETATM   11  C27   D T1232      29.668  -2.224 -27.059  1.00 12.00     0.131 C 
ENDROOT
BRANCH   1  12
HETATM   12  C6    D T1232      27.188  -3.657 -27.039  1.00 12.21     0.081 A 
HETATM   13  C5    D T1232      26.686  -3.836 -25.748  1.00 15.89     0.005 A 
HETATM   14  C4    D T1232      26.586  -5.105 -25.178  1.00  9.53     0.003 A 
HETATM   15  C31   D T1232      27.059  -6.203 -25.932  1.00 10.77     0.129 A 
HETATM   16  C30   D T1232      27.553  -6.027 -27.215  1.00 12.43     0.055 A 
HETATM   17  O32   D T1232      26.996  -7.477 -25.440  1.00 13.22    -0.190 OA
HETATM   18  C28   D T1232      27.613  -4.750 -27.773  1.00 11.17     0.138 A 
HETATM   19  O29   D T1232      28.108  -4.562 -29.037  1.00 12.20    -0.190 OA
BRANCH  14  20
HETATM   20  C2    D T1232      26.123  -5.291 -23.732  1.00 12.98     0.024 C 
HETATM   21  C1    D T1232      26.139  -3.956 -22.980  1.00 15.54     0.005 C 
HETATM   22  C3    D T1232      24.755  -5.954 -23.612  1.00 14.93     0.005 C 
ENDBRANCH  14  20
ENDBRANCH   1  12
BRANCH   8  23
HETATM   23  C15   D T1232      33.909   0.431 -25.955  1.00 39.58     0.277 C 
BRANCH  23  24
HETATM   24  N16   D T1232      34.847  -0.651 -26.431  1.00 54.90     0.146 N 
HETATM   25  C18   D T1232      36.169  -0.079 -26.852  1.00 62.09     0.286 C 
HETATM   26  C19   D T1232      37.123  -1.170 -27.316  1.00 64.75     0.286 C 
HETATM   27  N20   D T1232      37.311  -2.174 -26.225  1.00 66.96     0.143 N 
HETATM   28  C22   D T1232      38.315  -3.213 -26.600  1.00 67.04     0.285 C 
HETATM   29  C23   D T1232      35.996  -2.786 -25.864  1.00 63.79     0.286 C 
HETATM   30  C24   D T1232      35.038  -1.706 -25.383  1.00 59.84     0.286 C 
ENDBRANCH  23  24
ENDBRANCH   8  23
TORSDOF 4
ENDMDL
MODEL 4
REMARK VINA RESULT:    -8.514      2.551      3.843
REMARK INTER + INTRA:         -10.886
REMARK INTER:                 -10.279
REMARK INTRA:                  -0.607
REMARK UNBOUND:                -0.382
REMARK  4 active torsions:
REMARK  status: ('A' for Active; 'I' for Inactive)
REMARK    1  A    between atoms: C2_2  and  C4_4 
REMARK    2  A    between atoms: C6_6  and  C7_7 
REMARK       I    between atoms: C7_7  and  N9_9 
REMARK    3  A    between atoms: C14_14  and  C15_15 
REMARK    4  A    between atoms: C15_15  and  N16_16 
ROOT
HETATM    1  C7    D T1232      27.752  -0.180 -27.889  1.00  9.97     0.260 C 
HETATM    2  O8    D T1232      27.025   0.477 -28.607  1.00 12.42    -0.267 OA
HETATM    3  N9    D T1232      29.088  -0.077 -27.945  1.00 13.46    -0.308 N 
HETATM    4  C10   D T1232      29.785   0.899 -28.794  1.00 13.49     0.131 C 
HETATM    5  C11   D T1232      31.165   0.916 -28.198  1.00 13.44    -0.002 A 
HETATM    6  C12   D T1232      32.251   1.716 -28.525  1.00 17.34    -0.003 A 
HETATM    7  C13   D T1232      33.450   1.567 -27.851  1.00 16.78    -0.003 A 
HETATM    8  C14   D T1232      33.580   0.616 -26.843  1.00 25.83     0.011 A 
HETATM    9  C25   D T1232      32.478  -0.175 -26.530  1.00 22.06    -0.005 A 
HETATM   10  C26   D T1232      31.279  -0.018 -27.202  1.00 12.57    -0.002 A 
HETATM   11  C27   D T1232      29.999  -0.790 -27.037  1.00 12.00     0.131 C 
ENDROOT
BRANCH   1  12
HETATM   12  C6    D T1232      27.165  -1.196 -26.973  1.00 12.21     0.081 A 
HETATM   13  C5    D T1232      27.195  -2.547 -27.326  1.00 15.89     0.005 A 
HETATM   14  C4    D T1232      26.679  -3.530 -26.482  1.00  9.53     0.003 A 
HETATM   15  C31   D T1232      26.073  -3.108 -25.277  1.00 10.77     0.129 A 
HETATM   16  C30   D T1232      26.046  -1.769 -24.923  1.00 12.43     0.055 A 
HETATM   17  O32   D T1232      25.542  -4.013 -24.399  1.00 13.22    -0.190 OA
HETATM   18  C28   D T1232      26.599  -0.809 -25.771  1.00 11.17     0.138 A 
HETATM   19  O29   D T1232      26.570   0.519 -25.436  1.00 12.20    -0.190 OA
BRANCH  14  20
HETATM   20  C2    D T1232      26.629  -4.997 -26.911  1.00 12.98     0.024 C 
HETATM   21  C1    D T1232      25.335  -5.298 -27.675  1.00 15.54     0.005 C 
HETATM   22  C3    D T1232      27.841  -5.434 -27.727  1.00 14.93     0.005 C 
ENDBRANCH  14  20
ENDBRANCH   1  12
BRANCH   8  23
HETATM   23  C15   D T1232      34.890   0.431 -26.117  1.00 39.58     0.277 C 
BRANCH  23  24
HETATM   24  N16   D T1232      35.688  -0.732 -26.653  1.00 54.90     0.146 N 
HETATM   25  C18   D T1232      37.094  -0.322 -26.982  1.00 62.09     0.286 C 
HETATM   26  C19   D T1232      37.906  -1.497 -27.506  1.00 64.75     0.286 C 
HETATM   27  N20   D T1232      37.906  -2.600 -26.498  1.00 66.96     0.143 N 
HETATM   28  C22   D T1232      38.772  -3.739 -26.928  1.00 67.04     0.285 C 
HETATM   29  C23   D T1232      36.505  -3.046 -26.231  1.00 63.79     0.286 C 
HETATM   30  C24   D T1232      35.687  -1.882 -25.691  1.00 59.84     0.286 C 
ENDBRANCH  23  24
ENDBRANCH   8  23
TORSDOF 4
ENDMDL
MODEL 5
REMARK VINA RESULT:    -8.491      1.965      3.167
REMARK INTER + INTRA:         -10.858
REMARK INTER:                 -10.394
REMARK INTRA:                  -0.465
REMARK UNBOUND:                -0.382
REMARK  4 active torsions:
REMARK  status: ('A' for Active; 'I' for Inactive)
REMARK    1  A    between atoms: C2_2  and  C4_4 
REMARK    2  A    between atoms: C6_6  and  C7_7 
REMARK       I    between atoms: C7_7  and  N9_9 
REMARK    3  A    between atoms: C14_14  and  C15_15 
REMARK    4  A    between atoms: C15_15  and  N16_16 
ROOT
HETATM    1  C7    D T1232      27.705  -0.155 -27.818  1.00  9.97     0.260 C 
HETATM    2  O8    D T1232      26.967   0.549 -28.477  1.00 12.42    -0.267 OA
HETATM    3  N9    D T1232      29.039  -0.100 -27.943  1.00 13.46    -0.308 N 
HETATM    4  C10   D T1232      29.727   0.876 -28.800  1.00 13.49     0.131 C 
HETATM    5  C11   D T1232      31.136   0.825 -28.278  1.00 13.44    -0.002 A 
HETATM    6  C12   D T1232      32.234   1.594 -28.640  1.00 17.34    -0.003 A 
HETATM    7  C13   D T1232      33.460   1.380 -28.036  1.00 16.78    -0.003 A 
HETATM    8  C14   D T1232      33.607   0.394 -27.065  1.00 25.83     0.011 A 
HETATM    9  C25   D T1232      32.493  -0.365 -26.716  1.00 22.06    -0.005 A 
HETATM   10  C26   D T1232      31.267  -0.143 -27.318  1.00 12.57    -0.002 A 
HETATM   11  C27   D T1232      29.969  -0.873 -27.106  1.00 12.00     0.131 C 
ENDROOT
BRANCH   1  12
HETATM   12  C6    D T1232      27.129  -1.177 -26.902  1.00 12.21     0.081 A 
HETATM   13  C5    D T1232      27.136  -2.524 -27.274  1.00 15.89     0.005 A 
HETATM   14  C4    D T1232      26.629  -3.513 -26.431  1.00  9.53     0.003 A 
HETATM   15  C31   D T1232      26.056  -3.101 -25.206  1.00 10.77     0.129 A 
HETATM   16  C30   D T1232      26.052  -1.765 -24.834  1.00 12.43     0.055 A 
HETATM   17  O32   D T1232      25.537  -4.011 -24.328  1.00 13.22    -0.190 OA
HETATM   18  C28   D T1232      26.595  -0.801 -25.683  1.00 11.17     0.138 A 
HETATM   19  O29   D T1232      26.589   0.523 -25.329  1.00 12.20    -0.190 OA
BRANCH  14  20
HETATM   20  C2    D T1232      26.554  -4.973 -26.877  1.00 12.98     0.024 C 
HETATM   21  C1    D T1232      25.273  -5.232 -27.678  1.00 15.54     0.005 C 
HETATM   22  C3    D T1232      27.776  -5.432 -27.666  1.00 14.93     0.005 C 
ENDBRANCH  14  20
ENDBRANCH   1  12
BRANCH   8  23
HETATM   23  C15   D T1232      34.944   0.140 -26.416  1.00 39.58     0.277 C 
BRANCH  23  24
HETATM   24  N16   D T1232      35.308   1.201 -25.406  1.00 54.90     0.146 N 
HETATM   25  C18   D T1232      35.997   0.605 -24.213  1.00 62.09     0.286 C 
HETATM   26  C19   D T1232      36.380   1.675 -23.201  1.00 64.75     0.286 C 
HETATM   27  N20   D T1232      37.254   2.696 -23.854  1.00 66.96     0.143 N 
HETATM   28  C22   D T1232      37.735   3.715 -22.875  1.00 67.04     0.285 C 
HETATM   29  C23   D T1232      36.531   3.331 -24.997  1.00 63.79     0.286 C 
HETATM   30  C24   D T1232      36.156   2.272 -26.024  1.00 59.84     0.286 C 
ENDBRANCH  23  24
ENDBRANCH   8  23
TORSDOF 4
ENDMDL
MODEL 6
REMARK VINA RESULT:    -8.234      4.496      9.749
REMARK INTER + INTRA:         -10.541
REMARK INTER:                  -9.818
REMARK INTRA:                  -0.723
REMARK UNBOUND:                -0.382
REMARK  4 active torsions:
REMARK  status: ('A' for Active; 'I' for Inactive)
REMARK    1  A    between atoms: C2_2  and  C4_4 
REMARK    2  A    between atoms: C6_6  and  C7_7 
REMARK       I    between atoms: C7_7  and  N9_9 
REMARK    3  A    between atoms: C14_14  and  C15_15 
REMARK    4  A    between atoms: C15_15  and  N16_16 
ROOT
HETATM    1  C7    D T1232      34.612   1.229 -26.743  1.00  9.97     0.260 C 
HETATM    2  O8    D T1232      35.013   2.287 -27.186  1.00 12.42    -0.267 OA
HETATM    3  N9    D T1232      33.311   0.902 -26.750  1.00 13.46    -0.308 N 
HETATM    4  C10   D T1232      32.276   1.736 -27.377  1.00 13.49     0.131 C 
HETATM    5  C11   D T1232      31.123   0.778 -27.501  1.00 13.44    -0.002 A 
HETATM    6  C12   D T1232      29.885   0.969 -28.100  1.00 17.34    -0.003 A 
HETATM    7  C13   D T1232      28.951  -0.051 -28.100  1.00 16.78    -0.003 A 
HETATM    8  C14   D T1232      29.239  -1.273 -27.500  1.00 25.83     0.011 A 
HETATM    9  C25   D T1232      30.487  -1.444 -26.906  1.00 22.06    -0.005 A 
HETATM   10  C26   D T1232      31.421  -0.423 -26.915  1.00 12.57    -0.002 A 
HETATM   11  C27   D T1232      32.795  -0.400 -26.303  1.00 12.00     0.131 C 
ENDROOT
BRANCH   1  12
HETATM   12  C6    D T1232      35.567   0.290 -26.093  1.00 12.21     0.081 A 
HETATM   13  C5    D T1232      36.232  -0.666 -26.865  1.00 15.89     0.005 A 
HETATM   14  C4    D T1232      37.153  -1.546 -26.296  1.00  9.53     0.003 A 
HETATM   15  C31   D T1232      37.351  -1.474 -24.898  1.00 10.77     0.129 A 
HETATM   16  C30   D T1232      36.695  -0.524 -24.132  1.00 12.43     0.055 A 
HETATM   17  O32   D T1232      38.236  -2.305 -24.267  1.00 13.22    -0.190 OA
HETATM   18  C28   D T1232      35.803   0.365 -24.732  1.00 11.17     0.138 A 
HETATM   19  O29   D T1232      35.142   1.303 -23.984  1.00 12.20    -0.190 OA
BRANCH  14  20
HETATM   20  C2    D T1232      37.810  -2.651 -27.123  1.00 12.98     0.024 C 
HETATM   21  C1    D T1232      36.840  -3.816 -27.344  1.00 15.54     0.005 C 
HETATM   22  C3    D T1232      38.366  -2.162 -28.457  1.00 14.93     0.005 C 
ENDBRANCH  14  20
ENDBRANCH   1  12
BRANCH   8  23
HETATM   23  C15   D T1232      28.219  -2.384 -27.476  1.00 39.58     0.277 C 
BRANCH  23  24
HETATM   24  N16   D T1232      27.882  -2.829 -26.074  1.00 54.90     0.146 N 
HETATM   25  C18   D T1232      26.543  -2.304 -25.643  1.00 62.09     0.286 C 
HETATM   26  C19   D T1232      26.193  -2.766 -24.235  1.00 64.75     0.286 C 
HETATM   27  N20   D T1232      26.214  -4.258 -24.174  1.00 66.96     0.143 N 
HETATM   28  C22   D T1232      25.782  -4.760 -22.836  1.00 67.04     0.285 C 
HETATM   29  C23   D T1232      27.572  -4.765 -24.538  1.00 63.79     0.286 C 
HETATM   30  C24   D T1232      27.927  -4.322 -25.951  1.00 59.84     0.286 C 
ENDBRANCH  23  24
ENDBRANCH   8  23
TORSDOF 4
ENDMDL
MODEL 7
REMARK VINA RESULT:    -7.743      3.912      9.651
REMARK INTER + INTRA:          -9.936
REMARK INTER:                 -10.222
REMARK INTRA:                   0.286
REMARK UNBOUND:                -0.382
REMARK  4 active torsions:
REMARK  status: ('A' for Active; 'I' for Inactive)
REMARK    1  A    between atoms: C2_2  and  C4_4 
REMARK    2  A    between atoms: C6_6  and  C7_7 
REMARK       I    between atoms: C7_7  and  N9_9 
REMARK    3  A    between atoms: C14_14  and  C15_15 
REMARK    4  A    between atoms: C15_15  and  N16_16 
ROOT
HETATM    1  C7    D T1232      32.232   1.192 -27.414  1.00  9.97     0.260 C 
HETATM    2  O8    D T1232      32.165   2.190 -28.105  1.00 12.42    -0.267 OA
HETATM    3  N9    D T1232      31.176   0.389 -27.220  1.00 13.46    -0.308 N 
HETATM    4  C10   D T1232      29.885   0.580 -27.897  1.00 13.49     0.131 C 
HETATM    5  C11   D T1232      29.220  -0.753 -27.702  1.00 13.44    -0.002 A 
HETATM    6  C12   D T1232      28.005  -1.208 -28.198  1.00 17.34    -0.003 A 
HETATM    7  C13   D T1232      27.564  -2.483 -27.891  1.00 16.78    -0.003 A 
HETATM    8  C14   D T1232      28.330  -3.320 -27.084  1.00 25.83     0.011 A 
HETATM    9  C25   D T1232      29.545  -2.844 -26.599  1.00 22.06    -0.005 A 
HETATM   10  C26   D T1232      29.985  -1.571 -26.913  1.00 12.57    -0.002 A 
HETATM   11  C27   D T1232      31.237  -0.869 -26.463  1.00 12.00     0.131 C 
ENDROOT
BRANCH   1  12
HETATM   12  C6    D T1232      33.492   0.881 -26.685  1.00 12.21     0.081 A 
HETATM   13  C5    D T1232      34.177  -0.305 -26.960  1.00 15.89     0.005 A 
HETATM   14  C4    D T1232      35.373  -0.619 -26.315  1.00  9.53     0.003 A 
HETATM   15  C31   D T1232      35.845   0.280 -25.332  1.00 10.77     0.129 A 
HETATM   16  C30   D T1232      35.169   1.460 -25.061  1.00 12.43     0.055 A 
HETATM   17  O32   D T1232      37.009   0.041 -24.656  1.00 13.22    -0.190 OA
HETATM   18  C28   D T1232      33.991   1.764 -25.744  1.00 11.17     0.138 A 
HETATM   19  O29   D T1232      33.309   2.923 -25.478  1.00 12.20    -0.190 OA
BRANCH  14  20
HETATM   20  C2    D T1232      36.072  -1.959 -26.549  1.00 12.98     0.024 C 
HETATM   21  C1    D T1232      37.506  -1.745 -27.045  1.00 15.54     0.005 C 
HETATM   22  C3    D T1232      36.063  -2.871 -25.327  1.00 14.93     0.005 C 
ENDBRANCH  14  20
ENDBRANCH   1  12
BRANCH   8  23
HETATM   23  C15   D T1232      27.848  -4.704 -26.726  1.00 39.58     0.277 C 
BRANCH  23  24
HETATM   24  N16   D T1232      26.753  -4.684 -25.687  1.00 54.90     0.146 N 
HETATM   25  C18   D T1232      25.861  -5.885 -25.814  1.00 62.09     0.286 C 
HETATM   26  C19   D T1232      24.766  -5.876 -24.757  1.00 64.75     0.286 C 
HETATM   27  N20   D T1232      25.381  -5.823 -23.396  1.00 66.96     0.143 N 
HETATM   28  C22   D T1232      24.347  -5.910 -22.322  1.00 67.04     0.285 C 
HETATM   29  C23   D T1232      26.211  -4.588 -23.259  1.00 63.79     0.286 C 
HETATM   30  C24   D T1232      27.319  -4.593 -24.302  1.00 59.84     0.286 C 
ENDBRANCH  23  24
ENDBRANCH   8  23
TORSDOF 4
ENDMDL
MODEL 8
REMARK VINA RESULT:    -7.329      4.300      9.660
REMARK INTER + INTRA:          -9.425
REMARK INTER:                  -9.552
REMARK INTRA:                   0.127
REMARK UNBOUND:                -0.382
REMARK  4 active torsions:
REMARK  status: ('A' for Active; 'I' for Inactive)
REMARK    1  A    between atoms: C2_2  and  C4_4 
REMARK    2  A    between atoms: C6_6  and  C7_7 
REMARK       I    between atoms: C7_7  and  N9_9 
REMARK    3  A    between atoms: C14_14  and  C15_15 
REMARK    4  A    between atoms: C15_15  and  N16_16 
ROOT
HETATM    1  C7    D T1232      34.119   2.015 -27.850  1.00  9.97     0.260 C 
HETATM    2  O8    D T1232      34.187   3.197 -28.124  1.00 12.42    -0.267 OA
HETATM    3  N9    D T1232      32.951   1.415 -27.575  1.00 13.46    -0.308 N 
HETATM    4  C10   D T1232      31.653   2.096 -27.679  1.00 13.49     0.131 C 
HETATM    5  C11   D T1232      30.687   0.944 -27.703  1.00 13.44    -0.002 A 
HETATM    6  C12   D T1232      29.309   0.959 -27.875  1.00 17.34    -0.003 A 
HETATM    7  C13   D T1232      28.597  -0.227 -27.858  1.00 16.78    -0.003 A 
HETATM    8  C14   D T1232      29.249  -1.441 -27.665  1.00 25.83     0.011 A 
HETATM    9  C25   D T1232      30.631  -1.433 -27.496  1.00 22.06    -0.005 A 
HETATM   10  C26   D T1232      31.341  -0.246 -27.521  1.00 12.57    -0.002 A 
HETATM   11  C27   D T1232      32.816  -0.027 -27.323  1.00 12.00     0.131 C 
ENDROOT
BRANCH   1  12
HETATM   12  C6    D T1232      35.366   1.211 -27.728  1.00 12.21     0.081 A 
HETATM   13  C5    D T1232      35.580   0.435 -26.586  1.00 15.89     0.005 A 
HETATM   14  C4    D T1232      36.724  -0.351 -26.447  1.00  9.53     0.003 A 
HETATM   15  C31   D T1232      37.688  -0.295 -27.479  1.00 10.77     0.129 A 
HETATM   16  C30   D T1232      37.475   0.470 -28.614  1.00 12.43     0.055 A 
HETATM   17  O32   D T1232      38.836  -1.036 -27.413  1.00 13.22    -0.190 OA
HETATM   18  C28   D T1232      36.307   1.222 -28.742  1.00 11.17     0.138 A 
HETATM   19  O29   D T1232      36.089   1.990 -29.856  1.00 12.20    -0.190 OA
BRANCH  14  20
HETATM   20  C2    D T1232      37.002  -1.126 -25.158  1.00 12.98     0.024 C 
HETATM   21  C1    D T1232      36.726  -0.254 -23.928  1.00 15.54     0.005 C 
HETATM   22  C3    D T1232      36.233  -2.440 -25.062  1.00 14.93     0.005 C 
ENDBRANCH  14  20
ENDBRANCH   1  12
BRANCH   8  23
HETATM   23  C15   D T1232      28.477  -2.737 -27.624  1.00 39.58     0.277 C 
BRANCH  23  24
HETATM   24  N16   D T1232      28.085  -3.131 -26.221  1.00 54.90     0.146 N 
HETATM   25  C18   D T1232      26.765  -2.528 -25.835  1.00 62.09     0.286 C 
HETATM   26  C19   D T1232      26.359  -2.938 -24.427  1.00 64.75     0.286 C 
HETATM   27  N20   D T1232      26.302  -4.428 -24.331  1.00 66.96     0.143 N 
HETATM   28  C22   D T1232      25.813  -4.875 -22.993  1.00 67.04     0.285 C 
HETATM   29  C23   D T1232      27.640  -5.011 -24.650  1.00 63.79     0.286 C 
HETATM   30  C24   D T1232      28.050  -4.621 -26.063  1.00 59.84     0.286 C 
ENDBRANCH  23  24
ENDBRANCH   8  23
TORSDOF 4
ENDMDL
MODEL 9
REMARK VINA RESULT:    -7.327      4.600     10.978
REMARK INTER + INTRA:          -9.423
REMARK INTER:                  -8.952
REMARK INTRA:                  -0.471
REMARK UNBOUND:                -0.382
REMARK  4 active torsions:
REMARK  status: ('A' for Active; 'I' for Inactive)
REMARK    1  A    between atoms: C2_2  and  C4_4 
REMARK    2  A    between atoms: C6_6  and  C7_7 
REMARK       I    between atoms: C7_7  and  N9_9 
REMARK    3  A    between atoms: C14_14  and  C15_15 
REMARK    4  A    between atoms: C15_15  and  N16_16 
ROOT
HETATM    1  C7    D T1232      35.320   0.537 -26.852  1.00  9.97     0.260 C 
HETATM    2  O8    D T1232      35.967  -0.304 -26.260  1.00 12.42    -0.267 OA
HETATM    3  N9    D T1232      34.061   0.311 -27.256  1.00 13.46    -0.308 N 
HETATM    4  C10   D T1232      33.321  -0.917 -26.934  1.00 13.49     0.131 C 
HETATM    5  C11   D T1232      31.898  -0.516 -27.210  1.00 13.44    -0.002 A 
HETATM    6  C12   D T1232      30.729  -1.237 -27.007  1.00 17.34    -0.003 A 
HETATM    7  C13   D T1232      29.506  -0.682 -27.338  1.00 16.78    -0.003 A 
HETATM    8  C14   D T1232      29.435   0.598 -27.879  1.00 25.83     0.011 A 
HETATM    9  C25   D T1232      30.619   1.304 -28.074  1.00 22.06    -0.005 A 
HETATM   10  C26   D T1232      31.839   0.748 -27.735  1.00 12.57    -0.002 A 
HETATM   11  C27   D T1232      33.217   1.329 -27.899  1.00 12.00     0.131 C 
ENDROOT
BRANCH   1  12
HETATM   12  C6    D T1232      35.955   1.830 -27.226  1.00 12.21     0.081 A 
HETATM   13  C5    D T1232      36.491   1.995 -28.506  1.00 15.89     0.005 A 
HETATM   14  C4    D T1232      37.070   3.200 -28.901  1.00  9.53     0.003 A 
HETATM   15  C31   D T1232      37.145   4.237 -27.943  1.00 10.77     0.129 A 
HETATM   16  C30   D T1232      36.610   4.077 -26.675  1.00 12.43     0.055 A 
HETATM   17  O32   D T1232      37.701   5.447 -28.255  1.00 13.22    -0.190 OA
HETATM   18  C28   D T1232      36.007   2.871 -26.317  1.00 11.17     0.138 A 
HETATM   19  O29   D T1232      35.483   2.698 -25.063  1.00 12.20    -0.190 OA
BRANCH  14  20
HETATM   20  C2    D T1232      37.739   3.349 -30.268  1.00 12.98     0.024 C 
HETATM   21  C1    D T1232      38.362   2.022 -30.716  1.00 15.54     0.005 C 
HETATM   22  C3    D T1232      36.805   3.889 -31.346  1.00 14.93     0.005 C 
ENDBRANCH  14  20
ENDBRANCH   1  12
BRANCH   8  23
HETATM   23  C15   D T1232      28.107   1.203 -28.264  1.00 39.58     0.277 C 
BRANCH  23  24
HETATM   24  N16   D T1232      27.067   0.158 -28.584  1.00 54.90     0.146 N 
HETATM   25  C18   D T1232      26.212  -0.143 -27.388  1.00 62.09     0.286 C 
HETATM   26  C19   D T1232      25.150  -1.185 -27.712  1.00 64.75     0.286 C 
HETATM   27  N20   D T1232      24.308  -0.708 -28.850  1.00 66.96     0.143 N 
HETATM   28  C22   D T1232      23.191  -1.655 -29.142  1.00 67.04     0.285 C 
HETATM   29  C23   D T1232      25.162  -0.478 -30.056  1.00 63.79     0.286 C 
HETATM   30  C24   D T1232      26.217   0.574 -29.747  1.00 59.84     0.286 C 
ENDBRANCH  23  24
ENDBRANCH   8  23
TORSDOF 4
ENDMDL
