MODEL 1
REMARK VINA RESULT:    -8.111      0.000      0.000
REMARK INTER + INTRA:         -11.162
REMARK INTER:                 -10.482
REMARK INTRA:                  -0.681
REMARK UNBOUND:                -0.681
REMARK  5 active torsions:
REMARK  status: ('A' for Active; 'I' for Inactive)
REMARK    1  A    between atoms: C17_7  and  C21_10 
REMARK    2  A    between atoms: C21_10  and  O27_12 
REMARK    3  A    between atoms: O27_12  and  C15_13 
REMARK    4  A    between atoms: C14_19  and  C16_20 
REMARK    5  A    between atoms: N26_23  and  C20_25 
ROOT
HETATM    1  C15   D T9000       9.916  -3.090  -3.168  1.00 32.23     0.125 A 
HETATM    2  C4    D T9000      10.241  -3.005  -1.765  1.00 32.87     0.029 A 
HETATM    3  C19   D T9000       9.698  -4.412  -3.684  1.00 30.98     0.173 A 
HETATM    4  N22   D T9000       9.373  -4.571  -5.045  1.00 26.96    -0.078 NA
HETATM    5  N23   D T9000       9.780  -5.545  -2.941  1.00 30.39    -0.228 NA
HETATM    6  C5    D T9000      10.090  -5.432  -1.616  1.00 33.14     0.100 A 
HETATM    7  C14   D T9000      10.336  -4.186  -0.959  1.00 34.48     0.024 A 
ENDROOT
BRANCH   1   8
HETATM    8  O27   D T9000       9.783  -1.998  -4.041  1.00 33.85    -0.326 OA
BRANCH   8   9
HETATM    9  C21   D T9000       8.992  -0.784  -3.796  1.00 39.13     0.145 C 
HETATM   10  C1    D T9000       7.694  -1.256  -3.117  1.00 37.31     0.038 C 
BRANCH   9  11
HETATM   11  C17   D T9000       8.694   0.060  -5.084  1.00 43.03     0.029 A 
HETATM   12  C13   D T9000       9.233   1.413  -5.199  1.00 43.22     0.057 A 
HETATM   13 CL     D T9000      10.214   2.163  -3.968  1.00 44.26    -0.083 Cl
HETATM   14  C3    D T9000       8.967   2.193  -6.363  1.00 43.32     0.013 A 
HETATM   15  C2    D T9000       8.181   1.678  -7.425  1.00 42.25     0.031 A 
HETATM   16  C12   D T9000       7.635   0.367  -7.357  1.00 45.15     0.150 A 
HETATM   17  F     D T9000       6.896  -0.075  -8.388  1.00 42.99    -0.203 F 
HETATM   18  C18   D T9000       7.879  -0.459  -6.198  1.00 44.96     0.084 A 
HETATM   19 CL2    D T9000       7.167  -2.067  -6.198  1.00 59.14    -0.080 Cl
ENDBRANCH   9  11
ENDBRANCH   8   9
ENDBRANCH   1   8
BRANCH   7  20
HETATM   20  C16   D T9000      10.680  -4.096   0.522  1.00 36.37     0.041 A 
HETATM   21  C6    D T9000      11.970  -3.748   1.121  1.00 37.83     0.122 A 
HETATM   22  N24   D T9000      11.860  -3.781   2.404  1.00 39.52    -0.168 NA
HETATM   23  N26   D T9000      10.660  -4.105   2.735  1.00 39.89    -0.252 N 
HETATM   24  C7    D T9000       9.836  -4.326   1.610  1.00 38.44     0.097 A 
BRANCH  23  25
HETATM   25  C20   D T9000      10.244  -4.219   4.158  1.00 45.76     0.110 C 
HETATM   26  C8    D T9000      11.449  -4.594   5.047  1.00 48.47     0.063 C 
HETATM   27  C10   D T9000      10.990  -4.701   6.521  1.00 51.46     0.292 C 
HETATM   28  N25   D T9000       9.857  -5.658   6.692  1.00 52.65     0.339 N 
HETATM   29  C11   D T9000       8.696  -5.340   5.811  1.00 50.34     0.292 C 
HETATM   30  C9    D T9000       9.100  -5.253   4.322  1.00 49.34     0.063 C 
ENDBRANCH  23  25
ENDBRANCH   7  20
TORSDOF 5
ENDMDL
MODEL 2
REMARK VINA RESULT:    -7.979      0.822      1.908
REMARK INTER + INTRA:         -10.992
REMARK INTER:                 -10.447
REMARK INTRA:                  -0.544
REMARK UNBOUND:                -0.681
REMARK  5 active torsions:
REMARK  status: ('A' for Active; 'I' for Inactive)
REMARK    1  A    between atoms: C17_7  and  C21_10 
REMARK    2  A    between atoms: C21_10  and  O27_12 
REMARK    3  A    between atoms: O27_12  and  C15_13 
REMARK    4  A    between atoms: C14_19  and  C16_20 
REMARK    5  A    between atoms: N26_23  and  C20_25 
ROOT
HETATM    1  C15   D T9000       9.820  -3.300  -3.236  1.00 32.23     0.125 A 
HETATM    2  C4    D T9000      10.146  -3.198  -1.834  1.00 32.87     0.029 A 
HETATM    3  C19   D T9000       9.643  -4.631  -3.745  1.00 30.98     0.173 A 
HETATM    4  N22   D T9000       9.320  -4.806  -5.105  1.00 26.96    -0.078 NA
HETATM    5  N23   D T9000       9.764  -5.757  -2.998  1.00 30.39    -0.228 NA
HETATM    6  C5    D T9000      10.075  -5.629  -1.674  1.00 33.14     0.100 A 
HETATM    7  C14   D T9000      10.282  -4.373  -1.024  1.00 34.48     0.024 A 
ENDROOT
BRANCH   1   8
HETATM    8  O27   D T9000       9.649  -2.217  -4.113  1.00 33.85    -0.326 OA
BRANCH   8   9
HETATM    9  C21   D T9000       8.802  -1.039  -3.881  1.00 39.13     0.145 C 
HETATM   10  C1    D T9000       7.512  -1.569  -3.226  1.00 37.31     0.038 C 
BRANCH   9  11
HETATM   11  C17   D T9000       8.490  -0.205  -5.172  1.00 43.03     0.029 A 
HETATM   12  C13   D T9000       7.728  -0.817  -6.258  1.00 43.22     0.057 A 
HETATM   13 CL     D T9000       7.126  -2.452  -6.206  1.00 44.26    -0.083 Cl
HETATM   14  C3    D T9000       7.441  -0.071  -7.439  1.00 43.32     0.013 A 
HETATM   15  C2    D T9000       7.883   1.269  -7.584  1.00 42.25     0.031 A 
HETATM   16  C12   D T9000       8.628   1.905  -6.554  1.00 45.15     0.150 A 
HETATM   17  F     D T9000       9.026   3.175  -6.739  1.00 42.99    -0.203 F 
HETATM   18  C18   D T9000       8.942   1.188  -5.340  1.00 44.96     0.084 A 
HETATM   19 CL2    D T9000       9.865   2.052  -4.118  1.00 59.14    -0.080 Cl
ENDBRANCH   9  11
ENDBRANCH   8   9
ENDBRANCH   1   8
BRANCH   7  20
HETATM   20  C16   D T9000      10.627  -4.264   0.456  1.00 36.37     0.041 A 
HETATM   21  C6    D T9000      11.939  -4.002   1.051  1.00 37.83     0.122 A 
HETATM   22  N24   D T9000      11.823  -3.987   2.334  1.00 39.52    -0.168 NA
HETATM   23  N26   D T9000      10.599  -4.205   2.668  1.00 39.89    -0.252 N 
HETATM   24  C7    D T9000       9.764  -4.394   1.546  1.00 38.44     0.097 A 
BRANCH  23  25
HETATM   25  C20   D T9000      10.171  -4.241   4.091  1.00 45.76     0.110 C 
HETATM   26  C8    D T9000      11.385  -4.465   5.018  1.00 48.47     0.063 C 
HETATM   27  C10   D T9000      10.913  -4.494   6.492  1.00 51.46     0.292 C 
HETATM   28  N25   D T9000       9.846  -5.512   6.722  1.00 52.65     0.339 N 
HETATM   29  C11   D T9000       8.679  -5.343   5.809  1.00 50.34     0.292 C 
HETATM   30  C9    D T9000       9.099  -5.338   4.321  1.00 49.34     0.063 C 
ENDBRANCH  23  25
ENDBRANCH   7  20
TORSDOF 5
ENDMDL
MODEL 3
REMARK VINA RESULT:    -7.964      4.585      6.238
REMARK INTER + INTRA:         -10.972
REMARK INTER:                 -10.197
REMARK INTRA:                  -0.776
REMARK UNBOUND:                -0.681
REMARK  5 active torsions:
REMARK  status: ('A' for Active; 'I' for Inactive)
REMARK    1  A    between atoms: C17_7  and  C21_10 
REMARK    2  A    between atoms: C21_10  and  O27_12 
REMARK    3  A    between atoms: O27_12  and  C15_13 
REMARK    4  A    between atoms: C14_19  and  C16_20 
REMARK    5  A    between atoms: N26_23  and  C20_25 
ROOT
HETATM    1  C15   D T9000      10.727  -1.827  -2.741  1.00 32.23     0.125 A 
HETATM    2  C4    D T9000      12.033  -1.248  -2.537  1.00 32.87     0.029 A 
HETATM    3  C19   D T9000      10.282  -2.745  -1.730  1.00 30.98     0.173 A 
HETATM    4  N22   D T9000       9.015  -3.346  -1.861  1.00 26.96    -0.078 NA
HETATM    5  N23   D T9000      11.005  -3.081  -0.632  1.00 30.39    -0.228 NA
HETATM    6  C5    D T9000      12.237  -2.517  -0.467  1.00 33.14     0.100 A 
HETATM    7  C14   D T9000      12.817  -1.589  -1.387  1.00 34.48     0.024 A 
ENDROOT
BRANCH   1   8
HETATM    8  O27   D T9000       9.873  -1.551  -3.820  1.00 33.85    -0.326 OA
BRANCH   8   9
HETATM    9  C21   D T9000       9.301  -0.241  -4.160  1.00 39.13     0.145 C 
HETATM   10  C1    D T9000       8.387   0.139  -2.981  1.00 37.31     0.038 C 
BRANCH   9  11
HETATM   11  C17   D T9000       8.526  -0.211  -5.523  1.00 43.03     0.029 A 
HETATM   12  C13   D T9000       8.505   1.018  -6.313  1.00 43.22     0.057 A 
HETATM   13 CL     D T9000       9.312   2.485  -5.827  1.00 44.26    -0.083 Cl
HETATM   14  C3    D T9000       7.802   1.060  -7.552  1.00 43.32     0.013 A 
HETATM   15  C2    D T9000       7.113  -0.079  -8.042  1.00 42.25     0.031 A 
HETATM   16  C12   D T9000       7.104  -1.296  -7.307  1.00 45.15     0.150 A 
HETATM   17  F     D T9000       6.436  -2.347  -7.812  1.00 42.99    -0.203 F 
HETATM   18  C18   D T9000       7.804  -1.385  -6.047  1.00 44.96     0.084 A 
HETATM   19 CL2    D T9000       7.743  -2.928  -5.206  1.00 59.14    -0.080 Cl
ENDBRANCH   9  11
ENDBRANCH   8   9
ENDBRANCH   1   8
BRANCH   7  20
HETATM   20  C16   D T9000      14.196  -0.978  -1.172  1.00 36.37     0.041 A 
HETATM   21  C6    D T9000      14.576   0.432  -1.281  1.00 37.83     0.122 A 
HETATM   22  N24   D T9000      15.833   0.549  -1.028  1.00 39.52    -0.168 NA
HETATM   23  N26   D T9000      16.338  -0.604  -0.763  1.00 39.89    -0.252 N 
HETATM   24  C7    D T9000      15.379  -1.636  -0.830  1.00 38.44     0.097 A 
BRANCH  23  25
HETATM   25  C20   D T9000      17.778  -0.771  -0.430  1.00 45.76     0.110 C 
HETATM   26  C8    D T9000      18.495   0.596  -0.427  1.00 48.47     0.063 C 
HETATM   27  C10   D T9000      19.989   0.396  -0.073  1.00 51.46     0.292 C 
HETATM   28  N25   D T9000      20.659  -0.579  -0.984  1.00 52.65     0.339 N 
HETATM   29  C11   D T9000      19.959  -1.894  -1.037  1.00 50.34     0.292 C 
HETATM   30  C9    D T9000      18.467  -1.747  -1.417  1.00 49.34     0.063 C 
ENDBRANCH  23  25
ENDBRANCH   7  20
TORSDOF 5
ENDMDL
MODEL 4
REMARK VINA RESULT:    -7.751      2.481      3.288
REMARK INTER + INTRA:         -10.698
REMARK INTER:                  -9.823
REMARK INTRA:                  -0.874
REMARK UNBOUND:                -0.681
REMARK  5 active torsions:
REMARK  status: ('A' for Active; 'I' for Inactive)
REMARK    1  A    between atoms: C17_7  and  C21_10 
REMARK    2  A    between atoms: C21_10  and  O27_12 
REMARK    3  A    between atoms: O27_12  and  C15_13 
REMARK    4  A    between atoms: C14_19  and  C16_20 
REMARK    5  A    between atoms: N26_23  and  C20_25 
ROOT
HETATM    1  C15   D T9000      10.116  -2.998  -2.696  1.00 32.23     0.125 A 
HETATM    2  C4    D T9000      10.738  -2.544  -1.477  1.00 32.87     0.029 A 
HETATM    3  C19   D T9000       9.947  -4.419  -2.824  1.00 30.98     0.173 A 
HETATM    4  N22   D T9000       9.343  -4.935  -3.987  1.00 26.96    -0.078 NA
HETATM    5  N23   D T9000      10.332  -5.321  -1.886  1.00 30.39    -0.228 NA
HETATM    6  C5    D T9000      10.919  -4.860  -0.743  1.00 33.14     0.100 A 
HETATM    7  C14   D T9000      11.156  -3.476  -0.472  1.00 34.48     0.024 A 
ENDROOT
BRANCH   1   8
HETATM    8  O27   D T9000       9.657  -2.172  -3.734  1.00 33.85    -0.326 OA
BRANCH   8   9
HETATM    9  C21   D T9000       8.866  -0.944  -3.579  1.00 39.13     0.145 C 
HETATM   10  C1    D T9000       7.575  -1.363  -2.851  1.00 37.31     0.038 C 
BRANCH   9  11
HETATM   11  C17   D T9000       8.552  -0.205  -4.926  1.00 43.03     0.029 A 
HETATM   12  C13   D T9000       8.994   1.176  -5.110  1.00 43.22     0.057 A 
HETATM   13 CL     D T9000       9.872   2.072  -3.900  1.00 44.26    -0.083 Cl
HETATM   14  C3    D T9000       8.713   1.860  -6.329  1.00 43.32     0.013 A 
HETATM   15  C2    D T9000       8.006   1.223  -7.380  1.00 42.25     0.031 A 
HETATM   16  C12   D T9000       7.556  -0.119  -7.246  1.00 45.15     0.150 A 
HETATM   17  F     D T9000       6.889  -0.678  -8.269  1.00 42.99    -0.203 F 
HETATM   18  C18   D T9000       7.818  -0.851  -6.029  1.00 44.96     0.084 A 
HETATM   19 CL2    D T9000       7.228  -2.506  -5.949  1.00 59.14    -0.080 Cl
ENDBRANCH   9  11
ENDBRANCH   8   9
ENDBRANCH   1   8
BRANCH   7  20
HETATM   20  C16   D T9000      11.814  -2.995   0.815  1.00 36.37     0.041 A 
HETATM   21  C6    D T9000      12.511  -3.802   1.819  1.00 37.83     0.122 A 
HETATM   22  N24   D T9000      12.926  -3.031   2.763  1.00 39.52    -0.168 NA
HETATM   23  N26   D T9000      12.597  -1.812   2.513  1.00 39.89    -0.252 N 
HETATM   24  C7    D T9000      11.887  -1.688   1.300  1.00 38.44     0.097 A 
BRANCH  23  25
HETATM   25  C20   D T9000      12.951  -0.701   3.436  1.00 45.76     0.110 C 
HETATM   26  C8    D T9000      13.515   0.500   2.646  1.00 48.47     0.063 C 
HETATM   27  C10   D T9000      13.870   1.643   3.628  1.00 51.46     0.292 C 
HETATM   28  N25   D T9000      14.808   1.195   4.699  1.00 52.65     0.339 N 
HETATM   29  C11   D T9000      14.304   0.009   5.449  1.00 50.34     0.292 C 
HETATM   30  C9    D T9000      13.963  -1.172   4.511  1.00 49.34     0.063 C 
ENDBRANCH  23  25
ENDBRANCH   7  20
TORSDOF 5
ENDMDL
MODEL 5
REMARK VINA RESULT:    -7.728      4.497      9.526
REMARK INTER + INTRA:         -10.667
REMARK INTER:                  -9.811
REMARK INTRA:                  -0.857
REMARK UNBOUND:                -0.681
REMARK  5 active torsions:
REMARK  status: ('A' for Active; 'I' for Inactive)
REMARK    1  A    between atoms: C17_7  and  C21_10 
REMARK    2  A    between atoms: C21_10  and  O27_12 
REMARK    3  A    between atoms: O27_12  and  C15_13 
REMARK    4  A    between atoms: C14_19  and  C16_20 
REMARK    5  A    between atoms: N26_23  and  C20_25 
ROOT
HETATM    1  C15   D T9000      10.211  -2.818   0.136  1.00 32.23     0.125 A 
HETATM    2  C4    D T9000      10.282  -1.913  -0.985  1.00 32.87     0.029 A 
HETATM    3  C19   D T9000       9.363  -3.965  -0.035  1.00 30.98     0.173 A 
HETATM    4  N22   D T9000       9.248  -4.894   1.017  1.00 26.96    -0.078 NA
HETATM    5  N23   D T9000       8.651  -4.227  -1.160  1.00 30.39    -0.228 NA
HETATM    6  C5    D T9000       8.738  -3.351  -2.204  1.00 33.14     0.100 A 
HETATM    7  C14   D T9000       9.538  -2.166  -2.184  1.00 34.48     0.024 A 
ENDROOT
BRANCH   1   8
HETATM    8  O27   D T9000      10.909  -2.673   1.345  1.00 33.85    -0.326 OA
BRANCH   8   9
HETATM    9  C21   D T9000      12.368  -2.692   1.512  1.00 39.13     0.145 C 
HETATM   10  C1    D T9000      12.637  -3.519   2.783  1.00 37.31     0.038 C 
BRANCH   9  11
HETATM   11  C17   D T9000      13.025  -1.271   1.601  1.00 43.03     0.029 A 
HETATM   12  C13   D T9000      13.782  -0.755   0.462  1.00 43.22     0.057 A 
HETATM   13 CL     D T9000      14.001  -1.639  -1.025  1.00 44.26    -0.083 Cl
HETATM   14  C3    D T9000      14.386   0.534   0.530  1.00 43.32     0.013 A 
HETATM   15  C2    D T9000      14.268   1.338   1.693  1.00 42.25     0.031 A 
HETATM   16  C12   D T9000      13.543   0.877   2.825  1.00 45.15     0.150 A 
HETATM   17  F     D T9000      13.460   1.674   3.903  1.00 42.99    -0.203 F 
HETATM   18  C18   D T9000      12.913  -0.422   2.801  1.00 44.96     0.084 A 
HETATM   19 CL2    D T9000      12.034  -0.912   4.243  1.00 59.14    -0.080 Cl
ENDBRANCH   9  11
ENDBRANCH   8   9
ENDBRANCH   1   8
BRANCH   7  20
HETATM   20  C16   D T9000       9.613  -1.209  -3.367  1.00 36.37     0.041 A 
HETATM   21  C6    D T9000      10.792  -0.862  -4.162  1.00 37.83     0.122 A 
HETATM   22  N24   D T9000      10.450  -0.018  -5.073  1.00 39.52    -0.168 NA
HETATM   23  N26   D T9000       9.192   0.240  -4.985  1.00 39.89    -0.252 N 
HETATM   24  C7    D T9000       8.574  -0.467  -3.932  1.00 38.44     0.097 A 
BRANCH  23  25
HETATM   25  C20   D T9000       8.520   1.185  -5.916  1.00 45.76     0.110 C 
HETATM   26  C8    D T9000       7.710   0.413  -6.980  1.00 48.47     0.063 C 
HETATM   27  C10   D T9000       7.017   1.418  -7.932  1.00 51.46     0.292 C 
HETATM   28  N25   D T9000       7.987   2.366  -8.555  1.00 52.65     0.339 N 
HETATM   29  C11   D T9000       8.812   3.093  -7.547  1.00 50.34     0.292 C 
HETATM   30  C9    D T9000       9.549   2.128  -6.590  1.00 49.34     0.063 C 
ENDBRANCH  23  25
ENDBRANCH   7  20
TORSDOF 5
ENDMDL
MODEL 6
REMARK VINA RESULT:    -7.479      3.368      4.357
REMARK INTER + INTRA:         -10.346
REMARK INTER:                  -9.696
REMARK INTRA:                  -0.651
REMARK UNBOUND:                -0.681
REMARK  5 active torsions:
REMARK  status: ('A' for Active; 'I' for Inactive)
REMARK    1  A    between atoms: C17_7  and  C21_10 
REMARK    2  A    between atoms: C21_10  and  O27_12 
REMARK    3  A    between atoms: O27_12  and  C15_13 
REMARK    4  A    between atoms: C14_19  and  C16_20 
REMARK    5  A    between atoms: N26_23  and  C20_25 
ROOT
HETATM    1  C15   D T9000       9.586  -1.891  -1.675  1.00 32.23     0.125 A 
HETATM    2  C4    D T9000      10.544  -1.235  -0.819  1.00 32.87     0.029 A 
HETATM    3  C19   D T9000       9.206  -3.222  -1.289  1.00 30.98     0.173 A 
HETATM    4  N22   D T9000       8.271  -3.922  -2.076  1.00 26.96    -0.078 NA
HETATM    5  N23   D T9000       9.689  -3.867  -0.198  1.00 30.39    -0.228 NA
HETATM    6  C5    D T9000      10.596  -3.221   0.592  1.00 33.14     0.100 A 
HETATM    7  C14   D T9000      11.072  -1.897   0.338  1.00 34.48     0.024 A 
ENDROOT
BRANCH   1   8
HETATM    8  O27   D T9000       8.997  -1.330  -2.819  1.00 33.85    -0.326 OA
BRANCH   8   9
HETATM    9  C21   D T9000       9.285  -1.700  -4.212  1.00 39.13     0.145 C 
HETATM   10  C1    D T9000      10.813  -1.870  -4.297  1.00 37.31     0.038 C 
BRANCH   9  11
HETATM   11  C17   D T9000       8.760  -0.672  -5.273  1.00 43.03     0.029 A 
HETATM   12  C13   D T9000       7.810  -1.111  -6.293  1.00 43.22     0.057 A 
HETATM   13 CL     D T9000       7.206  -2.742  -6.404  1.00 44.26    -0.083 Cl
HETATM   14  C3    D T9000       7.328  -0.186  -7.266  1.00 43.32     0.013 A 
HETATM   15  C2    D T9000       7.754   1.166  -7.265  1.00 42.25     0.031 A 
HETATM   16  C12   D T9000       8.677   1.638  -6.292  1.00 45.15     0.150 A 
HETATM   17  F     D T9000       9.052   2.928  -6.334  1.00 42.99    -0.203 F 
HETATM   18  C18   D T9000       9.192   0.738  -5.288  1.00 44.96     0.084 A 
HETATM   19 CL2    D T9000      10.328   1.405  -4.123  1.00 59.14    -0.080 Cl
ENDBRANCH   9  11
ENDBRANCH   8   9
ENDBRANCH   1   8
BRANCH   7  20
HETATM   20  C16   D T9000      12.085  -1.204   1.240  1.00 36.37     0.041 A 
HETATM   21  C6    D T9000      13.377  -0.631   0.859  1.00 37.83     0.122 A 
HETATM   22  N24   D T9000      13.942  -0.136   1.905  1.00 39.52    -0.168 NA
HETATM   23  N26   D T9000      13.188  -0.305   2.934  1.00 39.89    -0.252 N 
HETATM   24  C7    D T9000      11.988  -0.974   2.614  1.00 38.44     0.097 A 
BRANCH  23  25
HETATM   25  C20   D T9000      13.589   0.172   4.285  1.00 45.76     0.110 C 
HETATM   26  C8    D T9000      14.605   1.329   4.172  1.00 48.47     0.063 C 
HETATM   27  C10   D T9000      15.001   1.809   5.589  1.00 51.46     0.292 C 
HETATM   28  N25   D T9000      15.521   0.696   6.437  1.00 52.65     0.339 N 
HETATM   29  C11   D T9000      14.574  -0.452   6.527  1.00 50.34     0.292 C 
HETATM   30  C9    D T9000      14.172  -0.987   5.133  1.00 49.34     0.063 C 
ENDBRANCH  23  25
ENDBRANCH   7  20
TORSDOF 5
ENDMDL
MODEL 7
REMARK VINA RESULT:    -7.295     18.396     21.221
REMARK INTER + INTRA:         -10.109
REMARK INTER:                  -9.000
REMARK INTRA:                  -1.109
REMARK UNBOUND:                -0.681
REMARK  5 active torsions:
REMARK  status: ('A' for Active; 'I' for Inactive)
REMARK    1  A    between atoms: C17_7  and  C21_10 
REMARK    2  A    between atoms: C21_10  and  O27_12 
REMARK    3  A    between atoms: O27_12  and  C15_13 
REMARK    4  A    between atoms: C14_19  and  C16_20 
REMARK    5  A    between atoms: N26_23  and  C20_25 
ROOT
HETATM    1  C15   D T9000       3.941  11.134 -14.422  1.00 32.23     0.125 A 
HETATM    2  C4    D T9000       2.742  10.855 -15.174  1.00 32.87     0.029 A 
HETATM    3  C19   D T9000       4.785  10.006 -14.144  1.00 30.98     0.173 A 
HETATM    4  N22   D T9000       5.975  10.204 -13.417  1.00 26.96    -0.078 NA
HETATM    5  N23   D T9000       4.517   8.736 -14.540  1.00 30.39    -0.228 NA
HETATM    6  C5    D T9000       3.374   8.503 -15.249  1.00 33.14     0.100 A 
HETATM    7  C14   D T9000       2.435   9.522 -15.601  1.00 34.48     0.024 A 
ENDROOT
BRANCH   1   8
HETATM    8  O27   D T9000       4.343  12.401 -13.970  1.00 33.85    -0.326 OA
BRANCH   8   9
HETATM    9  C21   D T9000       3.559  13.305 -13.117  1.00 39.13     0.145 C 
HETATM   10  C1    D T9000       4.480  14.501 -12.812  1.00 37.31     0.038 C 
BRANCH   9  11
HETATM   11  C17   D T9000       3.019  12.644 -11.801  1.00 43.03     0.029 A 
HETATM   12  C13   D T9000       1.580  12.469 -11.621  1.00 43.22     0.057 A 
HETATM   13 CL     D T9000       0.398  12.957 -12.806  1.00 44.26    -0.083 Cl
HETATM   14  C3    D T9000       1.076  11.872 -10.428  1.00 43.32     0.013 A 
HETATM   15  C2    D T9000       1.951  11.438  -9.401  1.00 42.25     0.031 A 
HETATM   16  C12   D T9000       3.359  11.588  -9.532  1.00 45.15     0.150 A 
HETATM   17  F     D T9000       4.147  11.162  -8.530  1.00 42.99    -0.203 F 
HETATM   18  C18   D T9000       3.914  12.187 -10.723  1.00 44.96     0.084 A 
HETATM   19 CL2    D T9000       5.665  12.332 -10.803  1.00 59.14    -0.080 Cl
ENDBRANCH   9  11
ENDBRANCH   8   9
ENDBRANCH   1   8
BRANCH   7  20
HETATM   20  C16   D T9000       1.167   9.228 -16.394  1.00 36.37     0.041 A 
HETATM   21  C6    D T9000       0.674   9.928 -17.582  1.00 37.83     0.122 A 
HETATM   22  N24   D T9000      -0.431   9.384 -17.961  1.00 39.52    -0.168 NA
HETATM   23  N26   D T9000      -0.734   8.411 -17.176  1.00 39.89    -0.252 N 
HETATM   24  C7    D T9000       0.219   8.234 -16.150  1.00 38.44     0.097 A 
BRANCH  23  25
HETATM   25  C20   D T9000      -1.963   7.598 -17.376  1.00 45.76     0.110 C 
HETATM   26  C8    D T9000      -2.830   7.602 -16.099  1.00 48.47     0.063 C 
HETATM   27  C10   D T9000      -4.103   6.754 -16.336  1.00 51.46     0.292 C 
HETATM   28  N25   D T9000      -3.782   5.366 -16.782  1.00 52.65     0.339 N 
HETATM   29  C11   D T9000      -2.909   5.336 -17.990  1.00 50.34     0.292 C 
HETATM   30  C9    D T9000      -1.608   6.147 -17.791  1.00 49.34     0.063 C 
ENDBRANCH  23  25
ENDBRANCH   7  20
TORSDOF 5
ENDMDL
MODEL 8
REMARK VINA RESULT:    -7.211      1.857      2.750
REMARK INTER + INTRA:         -10.000
REMARK INTER:                  -9.457
REMARK INTRA:                  -0.542
REMARK UNBOUND:                -0.681
REMARK  5 active torsions:
REMARK  status: ('A' for Active; 'I' for Inactive)
REMARK    1  A    between atoms: C17_7  and  C21_10 
REMARK    2  A    between atoms: C21_10  and  O27_12 
REMARK    3  A    between atoms: O27_12  and  C15_13 
REMARK    4  A    between atoms: C14_19  and  C16_20 
REMARK    5  A    between atoms: N26_23  and  C20_25 
ROOT
HETATM    1  C15   D T9000      10.298  -2.246  -2.648  1.00 32.23     0.125 A 
HETATM    2  C4    D T9000      10.077  -3.226  -1.614  1.00 32.87     0.029 A 
HETATM    3  C19   D T9000      11.489  -1.453  -2.519  1.00 30.98     0.173 A 
HETATM    4  N22   D T9000      11.771  -0.477  -3.494  1.00 26.96    -0.078 NA
HETATM    5  N23   D T9000      12.383  -1.579  -1.506  1.00 30.39    -0.228 NA
HETATM    6  C5    D T9000      12.146  -2.515  -0.541  1.00 33.14     0.100 A 
HETATM    7  C14   D T9000      11.005  -3.377  -0.532  1.00 34.48     0.024 A 
ENDROOT
BRANCH   1   8
HETATM    8  O27   D T9000       9.464  -2.027  -3.756  1.00 33.85    -0.326 OA
BRANCH   8   9
HETATM    9  C21   D T9000       8.387  -1.031  -3.847  1.00 39.13     0.145 C 
HETATM   10  C1    D T9000       7.149  -1.689  -3.210  1.00 37.31     0.038 C 
BRANCH   9  11
HETATM   11  C17   D T9000       8.090  -0.536  -5.304  1.00 43.03     0.029 A 
HETATM   12  C13   D T9000       7.526  -1.465  -6.280  1.00 43.22     0.057 A 
HETATM   13 CL     D T9000       7.151  -3.129  -5.916  1.00 44.26    -0.083 Cl
HETATM   14  C3    D T9000       7.253  -1.029  -7.610  1.00 43.32     0.013 A 
HETATM   15  C2    D T9000       7.519   0.305  -8.011  1.00 42.25     0.031 A 
HETATM   16  C12   D T9000       8.068   1.245  -7.096  1.00 45.15     0.150 A 
HETATM   17  F     D T9000       8.304   2.496  -7.524  1.00 42.99    -0.203 F 
HETATM   18  C18   D T9000       8.360   0.847  -5.739  1.00 44.96     0.084 A 
HETATM   19 CL2    D T9000       9.035   2.073  -4.674  1.00 59.14    -0.080 Cl
ENDBRANCH   9  11
ENDBRANCH   8   9
ENDBRANCH   1   8
BRANCH   7  20
HETATM   20  C16   D T9000      10.771  -4.413   0.560  1.00 36.37     0.041 A 
HETATM   21  C6    D T9000      11.362  -5.748   0.668  1.00 37.83     0.122 A 
HETATM   22  N24   D T9000      10.914  -6.321   1.731  1.00 39.52    -0.168 NA
HETATM   23  N26   D T9000      10.101  -5.535   2.346  1.00 39.89    -0.252 N 
HETATM   24  C7    D T9000       9.944  -4.301   1.680  1.00 38.44     0.097 A 
BRANCH  23  25
HETATM   25  C20   D T9000       9.432  -5.936   3.612  1.00 45.76     0.110 C 
HETATM   26  C8    D T9000       9.749  -4.926   4.736  1.00 48.47     0.063 C 
HETATM   27  C10   D T9000       9.038  -5.363   6.039  1.00 51.46     0.292 C 
HETATM   28  N25   D T9000       9.389  -6.760   6.433  1.00 52.65     0.339 N 
HETATM   29  C11   D T9000       9.131  -7.748   5.347  1.00 50.34     0.292 C 
HETATM   30  C9    D T9000       9.847  -7.369   4.030  1.00 49.34     0.063 C 
ENDBRANCH  23  25
ENDBRANCH   7  20
TORSDOF 5
ENDMDL
MODEL 9
REMARK VINA RESULT:    -6.851     19.185     21.089
REMARK INTER + INTRA:          -9.535
REMARK INTER:                  -8.618
REMARK INTRA:                  -0.917
REMARK UNBOUND:                -0.681
REMARK  5 active torsions:
REMARK  status: ('A' for Active; 'I' for Inactive)
REMARK    1  A    between atoms: C17_7  and  C21_10 
REMARK    2  A    between atoms: C21_10  and  O27_12 
REMARK    3  A    between atoms: O27_12  and  C15_13 
REMARK    4  A    between atoms: C14_19  and  C16_20 
REMARK    5  A    between atoms: N26_23  and  C20_25 
ROOT
HETATM    1  C15   D T9000       3.078  10.159 -13.170  1.00 32.23     0.125 A 
HETATM    2  C4    D T9000       1.994  10.777 -12.446  1.00 32.87     0.029 A 
HETATM    3  C19   D T9000       2.705   9.146 -14.117  1.00 30.98     0.173 A 
HETATM    4  N22   D T9000       3.711   8.503 -14.863  1.00 26.96    -0.078 NA
HETATM    5  N23   D T9000       1.427   8.757 -14.355  1.00 30.39    -0.228 NA
HETATM    6  C5    D T9000       0.422   9.359 -13.654  1.00 33.14     0.100 A 
HETATM    7  C14   D T9000       0.635  10.381 -12.677  1.00 34.48     0.024 A 
ENDROOT
BRANCH   1   8
HETATM    8  O27   D T9000       4.437  10.481 -13.032  1.00 33.85    -0.326 OA
BRANCH   8   9
HETATM    9  C21   D T9000       5.196  11.417 -13.873  1.00 39.13     0.145 C 
HETATM   10  C1    D T9000       6.595  10.795 -14.040  1.00 37.31     0.038 C 
BRANCH   9  11
HETATM   11  C17   D T9000       5.280  12.875 -13.300  1.00 43.03     0.029 A 
HETATM   12  C13   D T9000       4.754  13.989 -14.087  1.00 43.22     0.057 A 
HETATM   13 CL     D T9000       4.019  13.794 -15.655  1.00 44.26    -0.083 Cl
HETATM   14  C3    D T9000       4.826  15.319 -13.579  1.00 43.32     0.013 A 
HETATM   15  C2    D T9000       5.403  15.589 -12.312  1.00 42.25     0.031 A 
HETATM   16  C12   D T9000       5.928  14.538 -11.512  1.00 45.15     0.150 A 
HETATM   17  F     D T9000       6.466  14.844 -10.320  1.00 42.99    -0.203 F 
HETATM   18  C18   D T9000       5.876  13.174 -11.985  1.00 44.96     0.084 A 
HETATM   19 CL2    D T9000       6.546  11.936 -10.931  1.00 59.14    -0.080 Cl
ENDBRANCH   9  11
ENDBRANCH   8   9
ENDBRANCH   1   8
BRANCH   7  20
HETATM   20  C16   D T9000      -0.509  11.033 -11.912  1.00 36.37     0.041 A 
HETATM   21  C6    D T9000      -1.367  10.422 -10.895  1.00 37.83     0.122 A 
HETATM   22  N24   D T9000      -2.220  11.297 -10.484  1.00 39.52    -0.168 NA
HETATM   23  N26   D T9000      -2.035  12.413 -11.097  1.00 39.89    -0.252 N 
HETATM   24  C7    D T9000      -0.973  12.345 -12.024  1.00 38.44     0.097 A 
BRANCH  23  25
HETATM   25  C20   D T9000      -2.878  13.606 -10.820  1.00 45.76     0.110 C 
HETATM   26  C8    D T9000      -2.219  14.880 -11.393  1.00 48.47     0.063 C 
HETATM   27  C10   D T9000      -3.117  16.105 -11.095  1.00 51.46     0.292 C 
HETATM   28  N25   D T9000      -3.417  16.244  -9.639  1.00 52.65     0.339 N 
HETATM   29  C11   D T9000      -4.015  15.011  -9.053  1.00 50.34     0.292 C 
HETATM   30  C9    D T9000      -3.137  13.762  -9.299  1.00 49.34     0.063 C 
ENDBRANCH  23  25
ENDBRANCH   7  20
TORSDOF 5
ENDMDL
