MODEL 1
REMARK VINA RESULT:    -7.971      0.000      0.000
REMARK INTER + INTRA:         -10.783
REMARK INTER:                 -10.301
REMARK INTRA:                  -0.482
REMARK UNBOUND:                -0.482
REMARK  5 active torsions:
REMARK  status: ('A' for Active; 'I' for Inactive)
REMARK    1  A    between atoms: C17_7  and  C21_10 
REMARK    2  A    between atoms: C21_10  and  O27_12 
REMARK    3  A    between atoms: O27_12  and  C15_13 
REMARK    4  A    between atoms: C14_19  and  C16_20 
REMARK    5  A    between atoms: N26_23  and  C20_25 
ROOT
HETATM    1  C15   D T9000      -4.363  -5.718  -6.221  1.00 32.23     0.125 A 
HETATM    2  C4    D T9000      -5.160  -4.601  -6.669  1.00 32.87     0.029 A 
HETATM    3  C19   D T9000      -3.194  -5.385  -5.455  1.00 30.98     0.173 A 
HETATM    4  N22   D T9000      -2.370  -6.425  -4.980  1.00 26.96    -0.078 NA
HETATM    5  N23   D T9000      -2.818  -4.119  -5.144  1.00 30.39    -0.228 NA
HETATM    6  C5    D T9000      -3.592  -3.085  -5.584  1.00 33.14     0.100 A 
HETATM    7  C14   D T9000      -4.782  -3.255  -6.357  1.00 34.48     0.024 A 
ENDROOT
BRANCH   1   8
HETATM    8  O27   D T9000      -4.650  -7.071  -6.457  1.00 33.85    -0.326 OA
BRANCH   8   9
HETATM    9  C21   D T9000      -5.987  -7.654  -6.640  1.00 39.13     0.145 C 
HETATM   10  C1    D T9000      -6.573  -7.814  -5.224  1.00 37.31     0.038 C 
BRANCH   9  11
HETATM   11  C17   D T9000      -5.996  -9.013  -7.423  1.00 43.03     0.029 A 
HETATM   12  C13   D T9000      -4.778  -9.817  -7.482  1.00 43.22     0.057 A 
HETATM   13 CL     D T9000      -3.282  -9.353  -6.716  1.00 44.26    -0.083 Cl
HETATM   14  C3    D T9000      -4.772 -11.055  -8.192  1.00 43.32     0.013 A 
HETATM   15  C2    D T9000      -5.936 -11.526  -8.849  1.00 42.25     0.031 A 
HETATM   16  C12   D T9000      -7.143 -10.777  -8.819  1.00 45.15     0.150 A 
HETATM   17  F     D T9000      -8.219 -11.266  -9.458  1.00 42.99    -0.203 F 
HETATM   18  C18   D T9000      -7.197  -9.519  -8.111  1.00 44.96     0.084 A 
HETATM   19 CL2    D T9000      -8.731  -8.659  -8.123  1.00 59.14    -0.080 Cl
ENDBRANCH   9  11
ENDBRANCH   8   9
ENDBRANCH   1   8
BRANCH   7  20
HETATM   20  C16   D T9000      -5.624  -2.077  -6.831  1.00 36.37     0.041 A 
HETATM   21  C6    D T9000      -5.317  -1.140  -7.914  1.00 37.83     0.122 A 
HETATM   22  N24   D T9000      -6.273  -0.281  -8.009  1.00 39.52    -0.168 NA
HETATM   23  N26   D T9000      -7.176  -0.529  -7.127  1.00 39.89    -0.252 N 
HETATM   24  C7    D T9000      -6.854  -1.648  -6.332  1.00 38.44     0.097 A 
BRANCH  23  25
HETATM   25  C20   D T9000      -8.402   0.305  -7.007  1.00 45.76     0.110 C 
HETATM   26  C8    D T9000      -8.031   1.800  -6.895  1.00 48.47     0.063 C 
HETATM   27  C10   D T9000      -9.323   2.645  -6.775  1.00 51.46     0.292 C 
HETATM   28  N25   D T9000     -10.187   2.200  -5.641  1.00 52.65     0.339 N 
HETATM   29  C11   D T9000     -10.523   0.749  -5.704  1.00 50.34     0.292 C 
HETATM   30  C9    D T9000      -9.260  -0.139  -5.794  1.00 49.34     0.063 C 
ENDBRANCH  23  25
ENDBRANCH   7  20
TORSDOF 5
ENDMDL
MODEL 2
REMARK VINA RESULT:    -7.917      1.180      2.249
REMARK INTER + INTRA:         -10.713
REMARK INTER:                  -9.946
REMARK INTRA:                  -0.767
REMARK UNBOUND:                -0.482
REMARK  5 active torsions:
REMARK  status: ('A' for Active; 'I' for Inactive)
REMARK    1  A    between atoms: C17_7  and  C21_10 
REMARK    2  A    between atoms: C21_10  and  O27_12 
REMARK    3  A    between atoms: O27_12  and  C15_13 
REMARK    4  A    between atoms: C14_19  and  C16_20 
REMARK    5  A    between atoms: N26_23  and  C20_25 
ROOT
HETATM    1  C15   D T9000      -4.725  -5.095  -6.303  1.00 32.23     0.125 A 
HETATM    2  C4    D T9000      -5.547  -3.974  -6.692  1.00 32.87     0.029 A 
HETATM    3  C19   D T9000      -3.560  -4.777  -5.524  1.00 30.98     0.173 A 
HETATM    4  N22   D T9000      -2.713  -5.822  -5.105  1.00 26.96    -0.078 NA
HETATM    5  N23   D T9000      -3.209  -3.521  -5.151  1.00 30.39    -0.228 NA
HETATM    6  C5    D T9000      -4.007  -2.482  -5.536  1.00 33.14     0.100 A 
HETATM    7  C14   D T9000      -5.197  -2.638  -6.313  1.00 34.48     0.024 A 
ENDROOT
BRANCH   1   8
HETATM    8  O27   D T9000      -4.985  -6.440  -6.606  1.00 33.85    -0.326 OA
BRANCH   8   9
HETATM    9  C21   D T9000      -6.290  -7.111  -6.521  1.00 39.13     0.145 C 
HETATM   10  C1    D T9000      -6.575  -7.290  -5.018  1.00 37.31     0.038 C 
BRANCH   9  11
HETATM   11  C17   D T9000      -6.363  -8.478  -7.287  1.00 43.03     0.029 A 
HETATM   12  C13   D T9000      -7.619  -8.884  -7.915  1.00 43.22     0.057 A 
HETATM   13 CL     D T9000      -9.071  -7.921  -7.870  1.00 44.26    -0.083 Cl
HETATM   14  C3    D T9000      -7.700 -10.126  -8.613  1.00 43.32     0.013 A 
HETATM   15  C2    D T9000      -6.576 -10.985  -8.711  1.00 42.25     0.031 A 
HETATM   16  C12   D T9000      -5.335 -10.630  -8.116  1.00 45.15     0.150 A 
HETATM   17  F     D T9000      -4.299 -11.478  -8.236  1.00 42.99    -0.203 F 
HETATM   18  C18   D T9000      -5.205  -9.383  -7.399  1.00 44.96     0.084 A 
HETATM   19 CL2    D T9000      -3.634  -9.024  -6.696  1.00 59.14    -0.080 Cl
ENDBRANCH   9  11
ENDBRANCH   8   9
ENDBRANCH   1   8
BRANCH   7  20
HETATM   20  C16   D T9000      -6.065  -1.455  -6.724  1.00 36.37     0.041 A 
HETATM   21  C6    D T9000      -6.073  -0.760  -8.014  1.00 37.83     0.122 A 
HETATM   22  N24   D T9000      -6.944   0.188  -7.973  1.00 39.52    -0.168 NA
HETATM   23  N26   D T9000      -7.516   0.211  -6.822  1.00 39.89    -0.252 N 
HETATM   24  C7    D T9000      -7.026  -0.793  -5.961  1.00 38.44     0.097 A 
BRANCH  23  25
HETATM   25  C20   D T9000      -8.571   1.206  -6.492  1.00 45.76     0.110 C 
HETATM   26  C8    D T9000      -9.864   0.908  -7.284  1.00 48.47     0.063 C 
HETATM   27  C10   D T9000     -10.945   1.954  -6.920  1.00 51.46     0.292 C 
HETATM   28  N25   D T9000     -10.474   3.354  -7.134  1.00 52.65     0.339 N 
HETATM   29  C11   D T9000      -9.203   3.653  -6.412  1.00 50.34     0.292 C 
HETATM   30  C9    D T9000      -8.081   2.651  -6.768  1.00 49.34     0.063 C 
ENDBRANCH  23  25
ENDBRANCH   7  20
TORSDOF 5
ENDMDL
MODEL 3
REMARK VINA RESULT:    -7.886      4.435      9.411
REMARK INTER + INTRA:         -10.673
REMARK INTER:                  -9.580
REMARK INTRA:                  -1.093
REMARK UNBOUND:                -0.482
REMARK  5 active torsions:
REMARK  status: ('A' for Active; 'I' for Inactive)
REMARK    1  A    between atoms: C17_7  and  C21_10 
REMARK    2  A    between atoms: C21_10  and  O27_12 
REMARK    3  A    between atoms: O27_12  and  C15_13 
REMARK    4  A    between atoms: C14_19  and  C16_20 
REMARK    5  A    between atoms: N26_23  and  C20_25 
ROOT
HETATM    1  C15   D T9000      -9.250  -2.955  -7.871  1.00 32.23     0.125 A 
HETATM    2  C4    D T9000      -8.395  -4.091  -7.625  1.00 32.87     0.029 A 
HETATM    3  C19   D T9000     -10.596  -3.258  -8.272  1.00 30.98     0.173 A 
HETATM    4  N22   D T9000     -11.488  -2.198  -8.525  1.00 26.96    -0.078 NA
HETATM    5  N23   D T9000     -11.084  -4.515  -8.424  1.00 30.39    -0.228 NA
HETATM    6  C5    D T9000     -10.249  -5.569  -8.185  1.00 33.14     0.100 A 
HETATM    7  C14   D T9000      -8.885  -5.428  -7.782  1.00 34.48     0.024 A 
ENDROOT
BRANCH   1   8
HETATM    8  O27   D T9000      -8.877  -1.609  -7.732  1.00 33.85    -0.326 OA
BRANCH   8   9
HETATM    9  C21   D T9000      -8.389  -0.968  -6.503  1.00 39.13     0.145 C 
HETATM   10  C1    D T9000      -8.625   0.542  -6.693  1.00 37.31     0.038 C 
BRANCH   9  11
HETATM   11  C17   D T9000      -6.888  -1.277  -6.167  1.00 43.03     0.029 A 
HETATM   12  C13   D T9000      -6.536  -1.775  -4.839  1.00 43.22     0.057 A 
HETATM   13 CL     D T9000      -7.705  -2.057  -3.577  1.00 44.26    -0.083 Cl
HETATM   14  C3    D T9000      -5.174  -2.059  -4.520  1.00 43.32     0.013 A 
HETATM   15  C2    D T9000      -4.144  -1.866  -5.474  1.00 42.25     0.031 A 
HETATM   16  C12   D T9000      -4.440  -1.384  -6.778  1.00 45.15     0.150 A 
HETATM   17  F     D T9000      -3.428  -1.217  -7.646  1.00 42.99    -0.203 F 
HETATM   18  C18   D T9000      -5.804  -1.084  -7.147  1.00 44.96     0.084 A 
HETATM   19 CL2    D T9000      -6.079  -0.494  -8.780  1.00 59.14    -0.080 Cl
ENDBRANCH   9  11
ENDBRANCH   8   9
ENDBRANCH   1   8
BRANCH   7  20
HETATM   20  C16   D T9000      -7.982  -6.628  -7.522  1.00 36.37     0.041 A 
HETATM   21  C6    D T9000      -6.785  -6.678  -6.679  1.00 37.83     0.122 A 
HETATM   22  N24   D T9000      -6.296  -7.870  -6.715  1.00 39.52    -0.168 NA
HETATM   23  N26   D T9000      -7.017  -8.617  -7.475  1.00 39.89    -0.252 N 
HETATM   24  C7    D T9000      -8.108  -7.920  -8.032  1.00 38.44     0.097 A 
BRANCH  23  25
HETATM   25  C20   D T9000      -6.688 -10.050  -7.701  1.00 45.76     0.110 C 
HETATM   26  C8    D T9000      -7.067 -10.895  -6.465  1.00 48.47     0.063 C 
HETATM   27  C10   D T9000      -6.718 -12.380  -6.728  1.00 51.46     0.292 C 
HETATM   28  N25   D T9000      -5.287 -12.567  -7.110  1.00 52.65     0.339 N 
HETATM   29  C11   D T9000      -4.886 -11.728  -8.276  1.00 50.34     0.292 C 
HETATM   30  C9    D T9000      -5.187 -10.229  -8.047  1.00 49.34     0.063 C 
ENDBRANCH  23  25
ENDBRANCH   7  20
TORSDOF 5
ENDMDL
MODEL 4
REMARK VINA RESULT:    -7.876      3.786      8.195
REMARK INTER + INTRA:         -10.660
REMARK INTER:                  -9.559
REMARK INTRA:                  -1.102
REMARK UNBOUND:                -0.482
REMARK  5 active torsions:
REMARK  status: ('A' for Active; 'I' for Inactive)
REMARK    1  A    between atoms: C17_7  and  C21_10 
REMARK    2  A    between atoms: C21_10  and  O27_12 
REMARK    3  A    between atoms: O27_12  and  C15_13 
REMARK    4  A    between atoms: C14_19  and  C16_20 
REMARK    5  A    between atoms: N26_23  and  C20_25 
ROOT
HETATM    1  C15   D T9000      -5.571  -1.808  -5.648  1.00 32.23     0.125 A 
HETATM    2  C4    D T9000      -5.757  -3.215  -5.909  1.00 32.87     0.029 A 
HETATM    3  C19   D T9000      -4.226  -1.397  -5.356  1.00 30.98     0.173 A 
HETATM    4  N22   D T9000      -3.970  -0.036  -5.095  1.00 26.96    -0.078 NA
HETATM    5  N23   D T9000      -3.161  -2.236  -5.316  1.00 30.39    -0.228 NA
HETATM    6  C5    D T9000      -3.370  -3.562  -5.565  1.00 33.14     0.100 A 
HETATM    7  C14   D T9000      -4.649  -4.123  -5.869  1.00 34.48     0.024 A 
ENDROOT
BRANCH   1   8
HETATM    8  O27   D T9000      -6.581  -0.834  -5.677  1.00 33.85    -0.326 OA
BRANCH   8   9
HETATM    9  C21   D T9000      -7.320  -0.388  -6.867  1.00 39.13     0.145 C 
HETATM   10  C1    D T9000      -7.687   1.086  -6.607  1.00 37.31     0.038 C 
BRANCH   9  11
HETATM   11  C17   D T9000      -8.591  -1.247  -7.195  1.00 43.03     0.029 A 
HETATM   12  C13   D T9000      -8.990  -1.436  -8.588  1.00 43.22     0.057 A 
HETATM   13 CL     D T9000      -8.122  -0.755  -9.938  1.00 44.26    -0.083 Cl
HETATM   14  C3    D T9000     -10.145  -2.214  -8.901  1.00 43.32     0.013 A 
HETATM   15  C2    D T9000     -10.922  -2.814  -7.879  1.00 42.25     0.031 A 
HETATM   16  C12   D T9000     -10.571  -2.657  -6.511  1.00 45.15     0.150 A 
HETATM   17  F     D T9000     -11.340  -3.245  -5.578  1.00 42.99    -0.203 F 
HETATM   18  C18   D T9000      -9.410  -1.879  -6.146  1.00 44.96     0.084 A 
HETATM   19 CL2    D T9000      -9.048  -1.738  -4.430  1.00 59.14    -0.080 Cl
ENDBRANCH   9  11
ENDBRANCH   8   9
ENDBRANCH   1   8
BRANCH   7  20
HETATM   20  C16   D T9000      -4.845  -5.609  -6.145  1.00 36.37     0.041 A 
HETATM   21  C6    D T9000      -3.818  -6.652  -6.182  1.00 37.83     0.122 A 
HETATM   22  N24   D T9000      -4.377  -7.782  -6.447  1.00 39.52    -0.168 NA
HETATM   23  N26   D T9000      -5.645  -7.622  -6.590  1.00 39.89    -0.252 N 
HETATM   24  C7    D T9000      -6.038  -6.279  -6.417  1.00 38.44     0.097 A 
BRANCH  23  25
HETATM   25  C20   D T9000      -6.548  -8.763  -6.900  1.00 45.76     0.110 C 
HETATM   26  C8    D T9000      -5.777  -9.876  -7.644  1.00 48.47     0.063 C 
HETATM   27  C10   D T9000      -6.737 -11.051  -7.952  1.00 51.46     0.292 C 
HETATM   28  N25   D T9000      -7.946 -10.612  -8.710  1.00 52.65     0.339 N 
HETATM   29  C11   D T9000      -8.683  -9.506  -8.032  1.00 50.34     0.292 C 
HETATM   30  C9    D T9000      -7.771  -8.295  -7.731  1.00 49.34     0.063 C 
ENDBRANCH  23  25
ENDBRANCH   7  20
TORSDOF 5
ENDMDL
MODEL 5
REMARK VINA RESULT:    -7.840      4.025      8.620
REMARK INTER + INTRA:         -10.614
REMARK INTER:                  -9.531
REMARK INTRA:                  -1.082
REMARK UNBOUND:                -0.482
REMARK  5 active torsions:
REMARK  status: ('A' for Active; 'I' for Inactive)
REMARK    1  A    between atoms: C17_7  and  C21_10 
REMARK    2  A    between atoms: C21_10  and  O27_12 
REMARK    3  A    between atoms: O27_12  and  C15_13 
REMARK    4  A    between atoms: C14_19  and  C16_20 
REMARK    5  A    between atoms: N26_23  and  C20_25 
ROOT
HETATM    1  C15   D T9000      -4.968  -2.153  -6.633  1.00 32.23     0.125 A 
HETATM    2  C4    D T9000      -5.169  -3.568  -6.830  1.00 32.87     0.029 A 
HETATM    3  C19   D T9000      -3.956  -1.790  -5.680  1.00 30.98     0.173 A 
HETATM    4  N22   D T9000      -3.703  -0.425  -5.439  1.00 26.96    -0.078 NA
HETATM    5  N23   D T9000      -3.208  -2.681  -4.981  1.00 30.39    -0.228 NA
HETATM    6  C5    D T9000      -3.424  -4.013  -5.189  1.00 33.14     0.100 A 
HETATM    7  C14   D T9000      -4.395  -4.530  -6.103  1.00 34.48     0.024 A 
ENDROOT
BRANCH   1   8
HETATM    8  O27   D T9000      -5.658  -1.131  -7.302  1.00 33.85    -0.326 OA
BRANCH   8   9
HETATM    9  C21   D T9000      -6.895  -1.287  -8.082  1.00 39.13     0.145 C 
HETATM   10  C1    D T9000      -6.866  -0.173  -9.145  1.00 37.31     0.038 C 
BRANCH   9  11
HETATM   11  C17   D T9000      -8.208  -1.231  -7.225  1.00 43.03     0.029 A 
HETATM   12  C13   D T9000      -9.053  -2.419  -7.126  1.00 43.22     0.057 A 
HETATM   13 CL     D T9000      -8.683  -3.930  -7.914  1.00 44.26    -0.083 Cl
HETATM   14  C3    D T9000     -10.251  -2.381  -6.352  1.00 43.32     0.013 A 
HETATM   15  C2    D T9000     -10.644  -1.202  -5.669  1.00 42.25     0.031 A 
HETATM   16  C12   D T9000      -9.853  -0.024  -5.738  1.00 45.15     0.150 A 
HETATM   17  F     D T9000     -10.268   1.068  -5.073  1.00 42.99    -0.203 F 
HETATM   18  C18   D T9000      -8.631  -0.015  -6.509  1.00 44.96     0.084 A 
HETATM   19 CL2    D T9000      -7.714   1.485  -6.537  1.00 59.14    -0.080 Cl
ENDBRANCH   9  11
ENDBRANCH   8   9
ENDBRANCH   1   8
BRANCH   7  20
HETATM   20  C16   D T9000      -4.607  -6.024  -6.310  1.00 36.37     0.041 A 
HETATM   21  C6    D T9000      -3.602  -7.087  -6.235  1.00 37.83     0.122 A 
HETATM   22  N24   D T9000      -4.170  -8.219  -6.472  1.00 39.52    -0.168 NA
HETATM   23  N26   D T9000      -5.425  -8.043  -6.694  1.00 39.89    -0.252 N 
HETATM   24  C7    D T9000      -5.797  -6.685  -6.614  1.00 38.44     0.097 A 
BRANCH  23  25
HETATM   25  C20   D T9000      -6.333  -9.181  -6.995  1.00 45.76     0.110 C 
HETATM   26  C8    D T9000      -5.669 -10.156  -7.993  1.00 48.47     0.063 C 
HETATM   27  C10   D T9000      -6.632 -11.332  -8.286  1.00 51.46     0.292 C 
HETATM   28  N25   D T9000      -7.965 -10.865  -8.770  1.00 52.65     0.339 N 
HETATM   29  C11   D T9000      -8.608  -9.889  -7.843  1.00 50.34     0.292 C 
HETATM   30  C9    D T9000      -7.694  -8.679  -7.544  1.00 49.34     0.063 C 
ENDBRANCH  23  25
ENDBRANCH   7  20
TORSDOF 5
ENDMDL
MODEL 6
REMARK VINA RESULT:    -7.767      3.888      8.305
REMARK INTER + INTRA:         -10.519
REMARK INTER:                  -9.344
REMARK INTRA:                  -1.175
REMARK UNBOUND:                -0.482
REMARK  5 active torsions:
REMARK  status: ('A' for Active; 'I' for Inactive)
REMARK    1  A    between atoms: C17_7  and  C21_10 
REMARK    2  A    between atoms: C21_10  and  O27_12 
REMARK    3  A    between atoms: O27_12  and  C15_13 
REMARK    4  A    between atoms: C14_19  and  C16_20 
REMARK    5  A    between atoms: N26_23  and  C20_25 
ROOT
HETATM    1  C15   D T9000      -4.271  -4.113  -6.454  1.00 32.23     0.125 A 
HETATM    2  C4    D T9000      -4.741  -5.415  -6.860  1.00 32.87     0.029 A 
HETATM    3  C19   D T9000      -3.314  -4.097  -5.382  1.00 30.98     0.173 A 
HETATM    4  N22   D T9000      -2.808  -2.861  -4.936  1.00 26.96    -0.078 NA
HETATM    5  N23   D T9000      -2.848  -5.208  -4.757  1.00 30.39    -0.228 NA
HETATM    6  C5    D T9000      -3.313  -6.425  -5.163  1.00 33.14     0.100 A 
HETATM    7  C14   D T9000      -4.267  -6.603  -6.214  1.00 34.48     0.024 A 
ENDROOT
BRANCH   1   8
HETATM    8  O27   D T9000      -4.657  -2.891  -7.028  1.00 33.85    -0.326 OA
BRANCH   8   9
HETATM    9  C21   D T9000      -6.013  -2.531  -7.465  1.00 39.13     0.145 C 
HETATM   10  C1    D T9000      -5.992  -1.006  -7.689  1.00 37.31     0.038 C 
BRANCH   9  11
HETATM   11  C17   D T9000      -7.146  -2.949  -6.465  1.00 43.03     0.029 A 
HETATM   12  C13   D T9000      -8.267  -3.755  -6.944  1.00 43.22     0.057 A 
HETATM   13 CL     D T9000      -8.426  -4.295  -8.594  1.00 44.26    -0.083 Cl
HETATM   14  C3    D T9000      -9.306  -4.141  -6.045  1.00 43.32     0.013 A 
HETATM   15  C2    D T9000      -9.274  -3.755  -4.681  1.00 42.25     0.031 A 
HETATM   16  C12   D T9000      -8.203  -2.972  -4.171  1.00 45.15     0.150 A 
HETATM   17  F     D T9000      -8.218  -2.631  -2.871  1.00 42.99    -0.203 F 
HETATM   18  C18   D T9000      -7.129  -2.558  -5.044  1.00 44.96     0.084 A 
HETATM   19 CL2    D T9000      -5.844  -1.593  -4.329  1.00 59.14    -0.080 Cl
ENDBRANCH   9  11
ENDBRANCH   8   9
ENDBRANCH   1   8
BRANCH   7  20
HETATM   20  C16   D T9000      -4.764  -7.978  -6.642  1.00 36.37     0.041 A 
HETATM   21  C6    D T9000      -3.967  -9.094  -7.158  1.00 37.83     0.122 A 
HETATM   22  N24   D T9000      -4.748 -10.087  -7.409  1.00 39.52    -0.168 NA
HETATM   23  N26   D T9000      -5.963  -9.773  -7.124  1.00 39.89    -0.252 N 
HETATM   24  C7    D T9000      -6.074  -8.456  -6.631  1.00 38.44     0.097 A 
BRANCH  23  25
HETATM   25  C20   D T9000      -7.083 -10.733  -7.313  1.00 45.76     0.110 C 
HETATM   26  C8    D T9000      -7.313 -11.009  -8.815  1.00 48.47     0.063 C 
HETATM   27  C10   D T9000      -8.480 -12.012  -8.984  1.00 51.46     0.292 C 
HETATM   28  N25   D T9000      -9.728 -11.548  -8.308  1.00 52.65     0.339 N 
HETATM   29  C11   D T9000      -9.521 -11.233  -6.864  1.00 50.34     0.292 C 
HETATM   30  C9    D T9000      -8.383 -10.210  -6.648  1.00 49.34     0.063 C 
ENDBRANCH  23  25
ENDBRANCH   7  20
TORSDOF 5
ENDMDL
MODEL 7
REMARK VINA RESULT:    -7.481      4.037      9.374
REMARK INTER + INTRA:         -10.149
REMARK INTER:                  -9.550
REMARK INTRA:                  -0.600
REMARK UNBOUND:                -0.482
REMARK  5 active torsions:
REMARK  status: ('A' for Active; 'I' for Inactive)
REMARK    1  A    between atoms: C17_7  and  C21_10 
REMARK    2  A    between atoms: C21_10  and  O27_12 
REMARK    3  A    between atoms: O27_12  and  C15_13 
REMARK    4  A    between atoms: C14_19  and  C16_20 
REMARK    5  A    between atoms: N26_23  and  C20_25 
ROOT
HETATM    1  C15   D T9000      -4.836  -4.350  -6.020  1.00 32.23     0.125 A 
HETATM    2  C4    D T9000      -5.365  -5.630  -6.422  1.00 32.87     0.029 A 
HETATM    3  C19   D T9000      -3.529  -4.371  -5.423  1.00 30.98     0.173 A 
HETATM    4  N22   D T9000      -2.948  -3.156  -5.009  1.00 26.96    -0.078 NA
HETATM    5  N23   D T9000      -2.796  -5.496  -5.227  1.00 30.39    -0.228 NA
HETATM    6  C5    D T9000      -3.325  -6.692  -5.617  1.00 33.14     0.100 A 
HETATM    7  C14   D T9000      -4.612  -6.833  -6.224  1.00 34.48     0.024 A 
ENDROOT
BRANCH   1   8
HETATM    8  O27   D T9000      -5.481  -3.114  -6.182  1.00 33.85    -0.326 OA
BRANCH   8   9
HETATM    9  C21   D T9000      -5.927  -2.530  -7.455  1.00 39.13     0.145 C 
HETATM   10  C1    D T9000      -5.026  -1.303  -7.695  1.00 37.31     0.038 C 
BRANCH   9  11
HETATM   11  C17   D T9000      -7.446  -2.144  -7.490  1.00 43.03     0.029 A 
HETATM   12  C13   D T9000      -8.411  -3.070  -8.080  1.00 43.22     0.057 A 
HETATM   13 CL     D T9000      -7.969  -4.613  -8.761  1.00 44.26    -0.083 Cl
HETATM   14  C3    D T9000      -9.796  -2.730  -8.120  1.00 43.32     0.013 A 
HETATM   15  C2    D T9000     -10.263  -1.499  -7.593  1.00 42.25     0.031 A 
HETATM   16  C12   D T9000      -9.361  -0.569  -7.010  1.00 45.15     0.150 A 
HETATM   17  F     D T9000      -9.852   0.584  -6.525  1.00 42.99    -0.203 F 
HETATM   18  C18   D T9000      -7.950  -0.870  -6.947  1.00 44.96     0.084 A 
HETATM   19 CL2    D T9000      -6.907   0.337  -6.206  1.00 59.14    -0.080 Cl
ENDBRANCH   9  11
ENDBRANCH   8   9
ENDBRANCH   1   8
BRANCH   7  20
HETATM   20  C16   D T9000      -5.171  -8.185  -6.648  1.00 36.37     0.041 A 
HETATM   21  C6    D T9000      -6.569  -8.622  -6.620  1.00 37.83     0.122 A 
HETATM   22  N24   D T9000      -6.639  -9.832  -7.057  1.00 39.52    -0.168 NA
HETATM   23  N26   D T9000      -5.466 -10.254  -7.374  1.00 39.89    -0.252 N 
HETATM   24  C7    D T9000      -4.470  -9.282  -7.150  1.00 38.44     0.097 A 
BRANCH  23  25
HETATM   25  C20   D T9000      -5.246 -11.622  -7.912  1.00 45.76     0.110 C 
HETATM   26  C8    D T9000      -6.140 -11.869  -9.148  1.00 48.47     0.063 C 
HETATM   27  C10   D T9000      -5.889 -13.297  -9.690  1.00 51.46     0.292 C 
HETATM   28  N25   D T9000      -6.088 -14.343  -8.644  1.00 52.65     0.339 N 
HETATM   29  C11   D T9000      -5.267 -14.103  -7.422  1.00 50.34     0.292 C 
HETATM   30  C9    D T9000      -5.507 -12.697  -6.825  1.00 49.34     0.063 C 
ENDBRANCH  23  25
ENDBRANCH   7  20
TORSDOF 5
ENDMDL
MODEL 8
REMARK VINA RESULT:    -7.275      3.699      8.658
REMARK INTER + INTRA:          -9.884
REMARK INTER:                  -9.019
REMARK INTRA:                  -0.865
REMARK UNBOUND:                -0.482
REMARK  5 active torsions:
REMARK  status: ('A' for Active; 'I' for Inactive)
REMARK    1  A    between atoms: C17_7  and  C21_10 
REMARK    2  A    between atoms: C21_10  and  O27_12 
REMARK    3  A    between atoms: O27_12  and  C15_13 
REMARK    4  A    between atoms: C14_19  and  C16_20 
REMARK    5  A    between atoms: N26_23  and  C20_25 
ROOT
HETATM    1  C15   D T9000      -5.108  -4.265  -5.876  1.00 32.23     0.125 A 
HETATM    2  C4    D T9000      -5.362  -5.615  -6.318  1.00 32.87     0.029 A 
HETATM    3  C19   D T9000      -3.800  -4.017  -5.337  1.00 30.98     0.173 A 
HETATM    4  N22   D T9000      -3.480  -2.720  -4.889  1.00 26.96    -0.078 NA
HETATM    5  N23   D T9000      -2.827  -4.956  -5.229  1.00 30.39    -0.228 NA
HETATM    6  C5    D T9000      -3.098  -6.224  -5.654  1.00 33.14     0.100 A 
HETATM    7  C14   D T9000      -4.352  -6.626  -6.212  1.00 34.48     0.024 A 
ENDROOT
BRANCH   1   8
HETATM    8  O27   D T9000      -6.018  -3.199  -5.949  1.00 33.85    -0.326 OA
BRANCH   8   9
HETATM    9  C21   D T9000      -7.183  -3.115  -6.842  1.00 39.13     0.145 C 
HETATM   10  C1    D T9000      -7.177  -1.682  -7.408  1.00 37.31     0.038 C 
BRANCH   9  11
HETATM   11  C17   D T9000      -8.550  -3.453  -6.151  1.00 43.03     0.029 A 
HETATM   12  C13   D T9000      -8.838  -2.914  -4.823  1.00 43.22     0.057 A 
HETATM   13 CL     D T9000      -7.735  -1.893  -3.941  1.00 44.26    -0.083 Cl
HETATM   14  C3    D T9000     -10.077  -3.216  -4.183  1.00 43.32     0.013 A 
HETATM   15  C2    D T9000     -11.046  -4.037  -4.814  1.00 42.25     0.031 A 
HETATM   16  C12   D T9000     -10.808  -4.583  -6.104  1.00 45.15     0.150 A 
HETATM   17  F     D T9000     -11.757  -5.355  -6.659  1.00 42.99    -0.203 F 
HETATM   18  C18   D T9000      -9.569  -4.304  -6.792  1.00 44.96     0.084 A 
HETATM   19 CL2    D T9000      -9.360  -5.019  -8.385  1.00 59.14    -0.080 Cl
ENDBRANCH   9  11
ENDBRANCH   8   9
ENDBRANCH   1   8
BRANCH   7  20
HETATM   20  C16   D T9000      -4.620  -8.051  -6.678  1.00 36.37     0.041 A 
HETATM   21  C6    D T9000      -3.633  -9.078  -7.020  1.00 37.83     0.122 A 
HETATM   22  N24   D T9000      -4.250 -10.153  -7.371  1.00 39.52    -0.168 NA
HETATM   23  N26   D T9000      -5.522  -9.971  -7.305  1.00 39.89    -0.252 N 
HETATM   24  C7    D T9000      -5.854  -8.669  -6.876  1.00 38.44     0.097 A 
BRANCH  23  25
HETATM   25  C20   D T9000      -6.485 -11.049  -7.653  1.00 45.76     0.110 C 
HETATM   26  C8    D T9000      -6.799 -11.916  -6.414  1.00 48.47     0.063 C 
HETATM   27  C10   D T9000      -7.806 -13.027  -6.802  1.00 51.46     0.292 C 
HETATM   28  N25   D T9000      -7.324 -13.852  -7.950  1.00 52.65     0.339 N 
HETATM   29  C11   D T9000      -6.974 -13.031  -9.145  1.00 50.34     0.292 C 
HETATM   30  C9    D T9000      -5.945 -11.926  -8.813  1.00 49.34     0.063 C 
ENDBRANCH  23  25
ENDBRANCH   7  20
TORSDOF 5
ENDMDL
MODEL 9
REMARK VINA RESULT:    -7.225      1.985      2.424
REMARK INTER + INTRA:          -9.819
REMARK INTER:                  -9.197
REMARK INTRA:                  -0.622
REMARK UNBOUND:                -0.482
REMARK  5 active torsions:
REMARK  status: ('A' for Active; 'I' for Inactive)
REMARK    1  A    between atoms: C17_7  and  C21_10 
REMARK    2  A    between atoms: C21_10  and  O27_12 
REMARK    3  A    between atoms: O27_12  and  C15_13 
REMARK    4  A    between atoms: C14_19  and  C16_20 
REMARK    5  A    between atoms: N26_23  and  C20_25 
ROOT
HETATM    1  C15   D T9000      -6.358  -6.610  -6.255  1.00 32.23     0.125 A 
HETATM    2  C4    D T9000      -7.258  -5.481  -6.231  1.00 32.87     0.029 A 
HETATM    3  C19   D T9000      -4.957  -6.295  -6.234  1.00 30.98     0.173 A 
HETATM    4  N22   D T9000      -4.020  -7.347  -6.252  1.00 26.96    -0.078 NA
HETATM    5  N23   D T9000      -4.457  -5.034  -6.194  1.00 30.39    -0.228 NA
HETATM    6  C5    D T9000      -5.333  -3.988  -6.174  1.00 33.14     0.100 A 
HETATM    7  C14   D T9000      -6.755  -4.141  -6.192  1.00 34.48     0.024 A 
ENDROOT
BRANCH   1   8
HETATM    8  O27   D T9000      -6.744  -7.959  -6.278  1.00 33.85    -0.326 OA
BRANCH   8   9
HETATM    9  C21   D T9000      -6.774  -8.831  -7.460  1.00 39.13     0.145 C 
HETATM   10  C1    D T9000      -8.178  -8.663  -8.072  1.00 37.31     0.038 C 
BRANCH   9  11
HETATM   11  C17   D T9000      -6.455 -10.337  -7.159  1.00 43.03     0.029 A 
HETATM   12  C13   D T9000      -5.206 -10.919  -7.646  1.00 43.22     0.057 A 
HETATM   13 CL     D T9000      -4.020 -10.023  -8.558  1.00 44.26    -0.083 Cl
HETATM   14  C3    D T9000      -4.904 -12.288  -7.381  1.00 43.32     0.013 A 
HETATM   15  C2    D T9000      -5.800 -13.106  -6.647  1.00 42.25     0.031 A 
HETATM   16  C12   D T9000      -7.026 -12.582  -6.154  1.00 45.15     0.150 A 
HETATM   17  F     D T9000      -7.841 -13.398  -5.464  1.00 42.99    -0.203 F 
HETATM   18  C18   D T9000      -7.374 -11.202  -6.397  1.00 44.96     0.084 A 
HETATM   19 CL2    D T9000      -8.909 -10.638  -5.750  1.00 59.14    -0.080 Cl
ENDBRANCH   9  11
ENDBRANCH   8   9
ENDBRANCH   1   8
BRANCH   7  20
HETATM   20  C16   D T9000      -7.704  -2.949  -6.166  1.00 36.37     0.041 A 
HETATM   21  C6    D T9000      -9.031  -2.878  -5.549  1.00 37.83     0.122 A 
HETATM   22  N24   D T9000      -9.521  -1.702  -5.742  1.00 39.52    -0.168 NA
HETATM   23  N26   D T9000      -8.688  -0.983  -6.408  1.00 39.89    -0.252 N 
HETATM   24  C7    D T9000      -7.507  -1.686  -6.724  1.00 38.44     0.097 A 
BRANCH  23  25
HETATM   25  C20   D T9000      -8.990   0.426  -6.775  1.00 45.76     0.110 C 
HETATM   26  C8    D T9000      -7.720   1.298  -6.669  1.00 48.47     0.063 C 
HETATM   27  C10   D T9000      -8.060   2.757  -7.059  1.00 51.46     0.292 C 
HETATM   28  N25   D T9000      -9.183   3.313  -6.247  1.00 52.65     0.339 N 
HETATM   29  C11   D T9000     -10.409   2.464  -6.299  1.00 50.34     0.292 C 
HETATM   30  C9    D T9000     -10.125   1.002  -5.887  1.00 49.34     0.063 C 
ENDBRANCH  23  25
ENDBRANCH   7  20
TORSDOF 5
ENDMDL
