MODEL 1
REMARK VINA RESULT:    -8.696      0.000      0.000
REMARK INTER + INTRA:         -12.149
REMARK INTER:                 -11.238
REMARK INTRA:                  -0.911
REMARK UNBOUND:                -0.911
REMARK  5 active torsions:
REMARK  status: ('A' for Active; 'I' for Inactive)
REMARK    1  A    between atoms: C17_7  and  C21_10 
REMARK    2  A    between atoms: C21_10  and  O27_12 
REMARK    3  A    between atoms: O27_12  and  C15_13 
REMARK    4  A    between atoms: C14_19  and  C16_20 
REMARK    5  A    between atoms: N26_23  and  C20_25 
ROOT
HETATM    1  C15   D T9000     -14.876   5.359  -0.904  1.00 32.23     0.125 A 
HETATM    2  C4    D T9000     -14.369   4.712  -2.089  1.00 32.87     0.029 A 
HETATM    3  C19   D T9000     -14.209   6.572  -0.517  1.00 30.98     0.173 A 
HETATM    4  N22   D T9000     -14.654   7.261   0.628  1.00 26.96    -0.078 NA
HETATM    5  N23   D T9000     -13.164   7.117  -1.190  1.00 30.39    -0.228 NA
HETATM    6  C5    D T9000     -12.706   6.480  -2.307  1.00 33.14     0.100 A 
HETATM    7  C14   D T9000     -13.264   5.266  -2.814  1.00 34.48     0.024 A 
ENDROOT
BRANCH   1   8
HETATM    8  O27   D T9000     -15.958   4.913  -0.131  1.00 33.85    -0.326 OA
BRANCH   8   9
HETATM    9  C21   D T9000     -17.342   4.742  -0.595  1.00 39.13     0.145 C 
HETATM   10  C1    D T9000     -17.910   6.163  -0.764  1.00 37.31     0.038 C 
BRANCH   9  11
HETATM   11  C17   D T9000     -18.238   3.874   0.357  1.00 43.03     0.029 A 
HETATM   12  C13   D T9000     -19.062   2.807  -0.207  1.00 43.22     0.057 A 
HETATM   13 CL     D T9000     -19.111   2.426  -1.907  1.00 44.26    -0.083 Cl
HETATM   14  C3    D T9000     -19.883   2.012   0.647  1.00 43.32     0.013 A 
HETATM   15  C2    D T9000     -19.917   2.236   2.047  1.00 42.25     0.031 A 
HETATM   16  C12   D T9000     -19.132   3.263   2.638  1.00 45.15     0.150 A 
HETATM   17  F     D T9000     -19.199   3.437   3.969  1.00 42.99    -0.203 F 
HETATM   18  C18   D T9000     -18.285   4.093   1.813  1.00 44.96     0.084 A 
HETATM   19 CL2    D T9000     -17.347   5.337   2.628  1.00 59.14    -0.080 Cl
ENDBRANCH   9  11
ENDBRANCH   8   9
ENDBRANCH   1   8
BRANCH   7  20
HETATM   20  C16   D T9000     -12.728   4.581  -4.066  1.00 36.37     0.041 A 
HETATM   21  C6    D T9000     -13.496   4.085  -5.211  1.00 37.83     0.122 A 
HETATM   22  N24   D T9000     -12.685   3.569  -6.069  1.00 39.52    -0.168 NA
HETATM   23  N26   D T9000     -11.475   3.659  -5.639  1.00 39.89    -0.252 N 
HETATM   24  C7    D T9000     -11.400   4.286  -4.378  1.00 38.44     0.097 A 
BRANCH  23  25
HETATM   25  C20   D T9000     -10.324   3.144  -6.428  1.00 45.76     0.110 C 
HETATM   26  C8    D T9000     -10.746   1.915  -7.263  1.00 48.47     0.063 C 
HETATM   27  C10   D T9000      -9.533   1.402  -8.075  1.00 51.46     0.292 C 
HETATM   28  N25   D T9000      -8.356   1.105  -7.208  1.00 52.65     0.339 N 
HETATM   29  C11   D T9000      -7.955   2.264  -6.360  1.00 50.34     0.292 C 
HETATM   30  C9    D T9000      -9.129   2.794  -5.504  1.00 49.34     0.063 C 
ENDBRANCH  23  25
ENDBRANCH   7  20
TORSDOF 5
ENDMDL
MODEL 2
REMARK VINA RESULT:    -8.434      3.281      4.897
REMARK INTER + INTRA:         -11.810
REMARK INTER:                 -11.199
REMARK INTRA:                  -0.611
REMARK UNBOUND:                -0.911
REMARK  5 active torsions:
REMARK  status: ('A' for Active; 'I' for Inactive)
REMARK    1  A    between atoms: C17_7  and  C21_10 
REMARK    2  A    between atoms: C21_10  and  O27_12 
REMARK    3  A    between atoms: O27_12  and  C15_13 
REMARK    4  A    between atoms: C14_19  and  C16_20 
REMARK    5  A    between atoms: N26_23  and  C20_25 
ROOT
HETATM    1  C15   D T9000     -11.957   5.037  -3.717  1.00 32.23     0.125 A 
HETATM    2  C4    D T9000     -12.115   4.004  -4.710  1.00 32.87     0.029 A 
HETATM    3  C19   D T9000     -10.643   5.607  -3.608  1.00 30.98     0.173 A 
HETATM    4  N22   D T9000     -10.415   6.626  -2.661  1.00 26.96    -0.078 NA
HETATM    5  N23   D T9000      -9.582   5.234  -4.369  1.00 30.39    -0.228 NA
HETATM    6  C5    D T9000      -9.764   4.252  -5.299  1.00 33.14     0.100 A 
HETATM    7  C14   D T9000     -11.010   3.589  -5.523  1.00 34.48     0.024 A 
ENDROOT
BRANCH   1   8
HETATM    8  O27   D T9000     -12.972   5.527  -2.882  1.00 33.85    -0.326 OA
BRANCH   8   9
HETATM    9  C21   D T9000     -14.150   4.780  -2.418  1.00 39.13     0.145 C 
HETATM   10  C1    D T9000     -15.278   5.108  -3.414  1.00 37.31     0.038 C 
BRANCH   9  11
HETATM   11  C17   D T9000     -14.575   5.098  -0.942  1.00 43.03     0.029 A 
HETATM   12  C13   D T9000     -15.334   4.107  -0.182  1.00 43.22     0.057 A 
HETATM   13 CL     D T9000     -15.804   2.557  -0.825  1.00 44.26    -0.083 Cl
HETATM   14  C3    D T9000     -15.729   4.385   1.160  1.00 43.32     0.013 A 
HETATM   15  C2    D T9000     -15.397   5.616   1.781  1.00 42.25     0.031 A 
HETATM   16  C12   D T9000     -14.660   6.609   1.080  1.00 45.15     0.150 A 
HETATM   17  F     D T9000     -14.371   7.759   1.711  1.00 42.99    -0.203 F 
HETATM   18  C18   D T9000     -14.238   6.372  -0.281  1.00 44.96     0.084 A 
HETATM   19 CL2    D T9000     -13.329   7.653  -1.071  1.00 59.14    -0.080 Cl
ENDBRANCH   9  11
ENDBRANCH   8   9
ENDBRANCH   1   8
BRANCH   7  20
HETATM   20  C16   D T9000     -11.178   2.496  -6.572  1.00 36.37     0.041 A 
HETATM   21  C6    D T9000     -10.231   2.112  -7.621  1.00 37.83     0.122 A 
HETATM   22  N24   D T9000     -10.734   1.146  -8.309  1.00 39.52    -0.168 NA
HETATM   23  N26   D T9000     -11.897   0.839  -7.849  1.00 39.89    -0.252 N 
HETATM   24  C7    D T9000     -12.266   1.639  -6.748  1.00 38.44     0.097 A 
BRANCH  23  25
HETATM   25  C20   D T9000     -12.713  -0.248  -8.451  1.00 45.76     0.110 C 
HETATM   26  C8    D T9000     -13.019  -1.341  -7.404  1.00 48.47     0.063 C 
HETATM   27  C10   D T9000     -13.872  -2.457  -8.055  1.00 51.46     0.292 C 
HETATM   28  N25   D T9000     -13.225  -3.023  -9.275  1.00 52.65     0.339 N 
HETATM   29  C11   D T9000     -12.882  -1.981 -10.284  1.00 50.34     0.292 C 
HETATM   30  C9    D T9000     -12.002  -0.858  -9.687  1.00 49.34     0.063 C 
ENDBRANCH  23  25
ENDBRANCH   7  20
TORSDOF 5
ENDMDL
MODEL 3
REMARK VINA RESULT:    -8.311      1.914      2.876
REMARK INTER + INTRA:         -11.651
REMARK INTER:                 -10.673
REMARK INTRA:                  -0.978
REMARK UNBOUND:                -0.911
REMARK  5 active torsions:
REMARK  status: ('A' for Active; 'I' for Inactive)
REMARK    1  A    between atoms: C17_7  and  C21_10 
REMARK    2  A    between atoms: C21_10  and  O27_12 
REMARK    3  A    between atoms: O27_12  and  C15_13 
REMARK    4  A    between atoms: C14_19  and  C16_20 
REMARK    5  A    between atoms: N26_23  and  C20_25 
ROOT
HETATM    1  C15   D T9000     -15.235   5.027   0.594  1.00 32.23     0.125 A 
HETATM    2  C4    D T9000     -14.824   4.302  -0.583  1.00 32.87     0.029 A 
HETATM    3  C19   D T9000     -14.760   6.379   0.697  1.00 30.98     0.173 A 
HETATM    4  N22   D T9000     -15.126   7.150   1.817  1.00 26.96    -0.078 NA
HETATM    5  N23   D T9000     -13.971   6.984  -0.229  1.00 30.39    -0.228 NA
HETATM    6  C5    D T9000     -13.598   6.270  -1.331  1.00 33.14     0.100 A 
HETATM    7  C14   D T9000     -13.989   4.917  -1.571  1.00 34.48     0.024 A 
ENDROOT
BRANCH   1   8
HETATM    8  O27   D T9000     -16.061   4.528   1.612  1.00 33.85    -0.326 OA
BRANCH   8   9
HETATM    9  C21   D T9000     -17.424   4.983   1.924  1.00 39.13     0.145 C 
HETATM   10  C1    D T9000     -17.982   3.976   2.947  1.00 37.31     0.038 C 
BRANCH   9  11
HETATM   11  C17   D T9000     -18.362   5.111   0.673  1.00 43.03     0.029 A 
HETATM   12  C13   D T9000     -19.001   6.392   0.380  1.00 43.22     0.057 A 
HETATM   13 CL     D T9000     -18.779   7.821   1.355  1.00 44.26    -0.083 Cl
HETATM   14  C3    D T9000     -19.858   6.521  -0.752  1.00 43.32     0.013 A 
HETATM   15  C2    D T9000     -20.106   5.422  -1.612  1.00 42.25     0.031 A 
HETATM   16  C12   D T9000     -19.506   4.157  -1.367  1.00 45.15     0.150 A 
HETATM   17  F     D T9000     -19.773   3.145  -2.210  1.00 42.99    -0.203 F 
HETATM   18  C18   D T9000     -18.630   3.978  -0.232  1.00 44.96     0.084 A 
HETATM   19 CL2    D T9000     -17.930   2.381  -0.005  1.00 59.14    -0.080 Cl
ENDBRANCH   9  11
ENDBRANCH   8   9
ENDBRANCH   1   8
BRANCH   7  20
HETATM   20  C16   D T9000     -13.553   4.149  -2.814  1.00 36.37     0.041 A 
HETATM   21  C6    D T9000     -14.123   2.907  -3.342  1.00 37.83     0.122 A 
HETATM   22  N24   D T9000     -13.483   2.571  -4.408  1.00 39.52    -0.168 NA
HETATM   23  N26   D T9000     -12.561   3.433  -4.657  1.00 39.89    -0.252 N 
HETATM   24  C7    D T9000     -12.526   4.471  -3.702  1.00 38.44     0.097 A 
BRANCH  23  25
HETATM   25  C20   D T9000     -11.662   3.299  -5.834  1.00 45.76     0.110 C 
HETATM   26  C8    D T9000     -12.044   2.059  -6.670  1.00 48.47     0.063 C 
HETATM   27  C10   D T9000     -11.097   1.945  -7.889  1.00 51.46     0.292 C 
HETATM   28  N25   D T9000      -9.660   1.921  -7.488  1.00 52.65     0.339 N 
HETATM   29  C11   D T9000      -9.276   3.088  -6.643  1.00 50.34     0.292 C 
HETATM   30  C9    D T9000     -10.176   3.225  -5.393  1.00 49.34     0.063 C 
ENDBRANCH  23  25
ENDBRANCH   7  20
TORSDOF 5
ENDMDL
MODEL 4
REMARK VINA RESULT:    -8.293      3.137      4.974
REMARK INTER + INTRA:         -11.628
REMARK INTER:                 -11.160
REMARK INTRA:                  -0.468
REMARK UNBOUND:                -0.911
REMARK  5 active torsions:
REMARK  status: ('A' for Active; 'I' for Inactive)
REMARK    1  A    between atoms: C17_7  and  C21_10 
REMARK    2  A    between atoms: C21_10  and  O27_12 
REMARK    3  A    between atoms: O27_12  and  C15_13 
REMARK    4  A    between atoms: C14_19  and  C16_20 
REMARK    5  A    between atoms: N26_23  and  C20_25 
ROOT
HETATM    1  C15   D T9000     -11.797   5.127  -3.493  1.00 32.23     0.125 A 
HETATM    2  C4    D T9000     -12.043   4.109  -4.485  1.00 32.87     0.029 A 
HETATM    3  C19   D T9000     -10.455   5.636  -3.436  1.00 30.98     0.173 A 
HETATM    4  N22   D T9000     -10.142   6.636  -2.494  1.00 26.96    -0.078 NA
HETATM    5  N23   D T9000      -9.444   5.220  -4.242  1.00 30.39    -0.228 NA
HETATM    6  C5    D T9000      -9.709   4.255  -5.170  1.00 33.14     0.100 A 
HETATM    7  C14   D T9000     -10.993   3.651  -5.345  1.00 34.48     0.024 A 
ENDROOT
BRANCH   1   8
HETATM    8  O27   D T9000     -12.753   5.657  -2.614  1.00 33.85    -0.326 OA
BRANCH   8   9
HETATM    9  C21   D T9000     -14.008   5.010  -2.206  1.00 39.13     0.145 C 
HETATM   10  C1    D T9000     -15.044   5.378  -3.286  1.00 37.31     0.038 C 
BRANCH   9  11
HETATM   11  C17   D T9000     -14.504   5.411  -0.773  1.00 43.03     0.029 A 
HETATM   12  C13   D T9000     -14.145   6.719  -0.228  1.00 43.22     0.057 A 
HETATM   13 CL     D T9000     -13.183   7.888  -1.091  1.00 44.26    -0.083 Cl
HETATM   14  C3    D T9000     -14.587   7.095   1.075  1.00 43.32     0.013 A 
HETATM   15  C2    D T9000     -15.376   6.219   1.862  1.00 42.25     0.031 A 
HETATM   16  C12   D T9000     -15.749   4.937   1.372  1.00 45.15     0.150 A 
HETATM   17  F     D T9000     -16.497   4.143   2.156  1.00 42.99    -0.203 F 
HETATM   18  C18   D T9000     -15.325   4.513   0.058  1.00 44.96     0.084 A 
HETATM   19 CL2    D T9000     -15.833   2.914  -0.468  1.00 59.14    -0.080 Cl
ENDBRANCH   9  11
ENDBRANCH   8   9
ENDBRANCH   1   8
BRANCH   7  20
HETATM   20  C16   D T9000     -11.254   2.575  -6.393  1.00 36.37     0.041 A 
HETATM   21  C6    D T9000     -10.399   2.202  -7.523  1.00 37.83     0.122 A 
HETATM   22  N24   D T9000     -10.964   1.249  -8.180  1.00 39.52    -0.168 NA
HETATM   23  N26   D T9000     -12.085   0.941  -7.630  1.00 39.89    -0.252 N 
HETATM   24  C7    D T9000     -12.357   1.725  -6.490  1.00 38.44     0.097 A 
BRANCH  23  25
HETATM   25  C20   D T9000     -12.956  -0.133  -8.178  1.00 45.76     0.110 C 
HETATM   26  C8    D T9000     -13.212  -1.221  -7.113  1.00 48.47     0.063 C 
HETATM   27  C10   D T9000     -14.122  -2.323  -7.707  1.00 51.46     0.292 C 
HETATM   28  N25   D T9000     -13.563  -2.901  -8.964  1.00 52.65     0.339 N 
HETATM   29  C11   D T9000     -13.267  -1.864  -9.994  1.00 50.34     0.292 C 
HETATM   30  C9    D T9000     -12.333  -0.756  -9.456  1.00 49.34     0.063 C 
ENDBRANCH  23  25
ENDBRANCH   7  20
TORSDOF 5
ENDMDL
MODEL 5
REMARK VINA RESULT:    -8.161      4.069      6.559
REMARK INTER + INTRA:         -11.457
REMARK INTER:                 -10.819
REMARK INTRA:                  -0.638
REMARK UNBOUND:                -0.911
REMARK  5 active torsions:
REMARK  status: ('A' for Active; 'I' for Inactive)
REMARK    1  A    between atoms: C17_7  and  C21_10 
REMARK    2  A    between atoms: C21_10  and  O27_12 
REMARK    3  A    between atoms: O27_12  and  C15_13 
REMARK    4  A    between atoms: C14_19  and  C16_20 
REMARK    5  A    between atoms: N26_23  and  C20_25 
ROOT
HETATM    1  C15   D T9000     -11.540   3.635  -5.312  1.00 32.23     0.125 A 
HETATM    2  C4    D T9000     -12.216   2.629  -6.092  1.00 32.87     0.029 A 
HETATM    3  C19   D T9000     -10.140   3.806  -5.585  1.00 30.98     0.173 A 
HETATM    4  N22   D T9000      -9.415   4.775  -4.864  1.00 26.96    -0.078 NA
HETATM    5  N23   D T9000      -9.449   3.091  -6.510  1.00 30.39    -0.228 NA
HETATM    6  C5    D T9000     -10.118   2.145  -7.231  1.00 33.14     0.100 A 
HETATM    7  C14   D T9000     -11.509   1.858  -7.071  1.00 34.48     0.024 A 
ENDROOT
BRANCH   1   8
HETATM    8  O27   D T9000     -12.138   4.453  -4.342  1.00 33.85    -0.326 OA
BRANCH   8   9
HETATM    9  C21   D T9000     -13.537   4.388  -3.896  1.00 39.13     0.145 C 
HETATM   10  C1    D T9000     -14.351   5.171  -4.943  1.00 37.31     0.038 C 
BRANCH   9  11
HETATM   11  C17   D T9000     -13.779   4.942  -2.448  1.00 43.03     0.029 A 
HETATM   12  C13   D T9000     -13.328   6.290  -2.110  1.00 43.22     0.057 A 
HETATM   13 CL     D T9000     -12.524   7.347  -3.239  1.00 44.26    -0.083 Cl
HETATM   14  C3    D T9000     -13.538   6.805  -0.796  1.00 43.32     0.013 A 
HETATM   15  C2    D T9000     -14.184   6.030   0.199  1.00 42.25     0.031 A 
HETATM   16  C12   D T9000     -14.639   4.713  -0.086  1.00 45.15     0.150 A 
HETATM   17  F     D T9000     -15.244   4.017   0.892  1.00 42.99    -0.203 F 
HETATM   18  C18   D T9000     -14.449   4.150  -1.402  1.00 44.96     0.084 A 
HETATM   19 CL2    D T9000     -15.044   2.516  -1.667  1.00 59.14    -0.080 Cl
ENDBRANCH   9  11
ENDBRANCH   8   9
ENDBRANCH   1   8
BRANCH   7  20
HETATM   20  C16   D T9000     -12.224   0.793  -7.894  1.00 36.37     0.041 A 
HETATM   21  C6    D T9000     -13.662   0.521  -7.945  1.00 37.83     0.122 A 
HETATM   22  N24   D T9000     -13.876  -0.456  -8.757  1.00 39.52    -0.168 NA
HETATM   23  N26   D T9000     -12.762  -0.867  -9.254  1.00 39.89    -0.252 N 
HETATM   24  C7    D T9000     -11.658  -0.137  -8.768  1.00 38.44     0.097 A 
BRANCH  23  25
HETATM   25  C20   D T9000     -12.706  -1.990 -10.227  1.00 45.76     0.110 C 
HETATM   26  C8    D T9000     -11.569  -1.766 -11.248  1.00 48.47     0.063 C 
HETATM   27  C10   D T9000     -11.531  -2.949 -12.246  1.00 51.46     0.292 C 
HETATM   28  N25   D T9000     -12.844  -3.163 -12.919  1.00 52.65     0.339 N 
HETATM   29  C11   D T9000     -13.967  -3.338 -11.954  1.00 50.34     0.292 C 
HETATM   30  C9    D T9000     -14.066  -2.164 -10.953  1.00 49.34     0.063 C 
ENDBRANCH  23  25
ENDBRANCH   7  20
TORSDOF 5
ENDMDL
MODEL 6
REMARK VINA RESULT:    -8.101      1.939      2.440
REMARK INTER + INTRA:         -11.379
REMARK INTER:                 -10.497
REMARK INTRA:                  -0.882
REMARK UNBOUND:                -0.911
REMARK  5 active torsions:
REMARK  status: ('A' for Active; 'I' for Inactive)
REMARK    1  A    between atoms: C17_7  and  C21_10 
REMARK    2  A    between atoms: C21_10  and  O27_12 
REMARK    3  A    between atoms: O27_12  and  C15_13 
REMARK    4  A    between atoms: C14_19  and  C16_20 
REMARK    5  A    between atoms: N26_23  and  C20_25 
ROOT
HETATM    1  C15   D T9000     -14.581   4.380  -1.363  1.00 32.23     0.125 A 
HETATM    2  C4    D T9000     -14.258   3.664  -2.573  1.00 32.87     0.029 A 
HETATM    3  C19   D T9000     -13.726   5.488  -1.041  1.00 30.98     0.173 A 
HETATM    4  N22   D T9000     -13.985   6.236   0.124  1.00 26.96    -0.078 NA
HETATM    5  N23   D T9000     -12.667   5.880  -1.795  1.00 30.39    -0.228 NA
HETATM    6  C5    D T9000     -12.385   5.181  -2.933  1.00 33.14     0.100 A 
HETATM    7  C14   D T9000     -13.142   4.055  -3.383  1.00 34.48     0.024 A 
ENDROOT
BRANCH   1   8
HETATM    8  O27   D T9000     -15.656   4.091  -0.508  1.00 33.85    -0.326 OA
BRANCH   8   9
HETATM    9  C21   D T9000     -17.083   4.212  -0.839  1.00 39.13     0.145 C 
HETATM   10  C1    D T9000     -17.351   5.718  -1.014  1.00 37.31     0.038 C 
BRANCH   9  11
HETATM   11  C17   D T9000     -18.046   3.576   0.223  1.00 43.03     0.029 A 
HETATM   12  C13   D T9000     -19.013   2.564  -0.197  1.00 43.22     0.057 A 
HETATM   13 CL     D T9000     -19.165   2.003  -1.840  1.00 44.26    -0.083 Cl
HETATM   14  C3    D T9000     -19.897   1.980   0.758  1.00 43.32     0.013 A 
HETATM   15  C2    D T9000     -19.857   2.363   2.123  1.00 42.25     0.031 A 
HETATM   16  C12   D T9000     -18.933   3.344   2.576  1.00 45.15     0.150 A 
HETATM   17  F     D T9000     -18.934   3.674   3.879  1.00 42.99    -0.203 F 
HETATM   18  C18   D T9000     -18.018   3.962   1.645  1.00 44.96     0.084 A 
HETATM   19 CL2    D T9000     -16.908   5.163   2.293  1.00 59.14    -0.080 Cl
ENDBRANCH   9  11
ENDBRANCH   8   9
ENDBRANCH   1   8
BRANCH   7  20
HETATM   20  C16   D T9000     -12.800   3.298  -4.660  1.00 36.37     0.041 A 
HETATM   21  C6    D T9000     -11.642   3.499  -5.535  1.00 37.83     0.122 A 
HETATM   22  N24   D T9000     -11.706   2.665  -6.515  1.00 39.52    -0.168 NA
HETATM   23  N26   D T9000     -12.759   1.934  -6.402  1.00 39.89    -0.252 N 
HETATM   24  C7    D T9000     -13.517   2.260  -5.257  1.00 38.44     0.097 A 
BRANCH  23  25
HETATM   25  C20   D T9000     -13.089   0.878  -7.396  1.00 45.76     0.110 C 
HETATM   26  C8    D T9000     -13.644  -0.378  -6.690  1.00 48.47     0.063 C 
HETATM   27  C10   D T9000     -13.982  -1.457  -7.746  1.00 51.46     0.292 C 
HETATM   28  N25   D T9000     -12.814  -1.782  -8.615  1.00 52.65     0.339 N 
HETATM   29  C11   D T9000     -12.232  -0.578  -9.276  1.00 50.34     0.292 C 
HETATM   30  C9    D T9000     -11.849   0.519  -8.256  1.00 49.34     0.063 C 
ENDBRANCH  23  25
ENDBRANCH   7  20
TORSDOF 5
ENDMDL
MODEL 7
REMARK VINA RESULT:    -7.995      4.457      6.823
REMARK INTER + INTRA:         -11.243
REMARK INTER:                 -10.537
REMARK INTRA:                  -0.706
REMARK UNBOUND:                -0.911
REMARK  5 active torsions:
REMARK  status: ('A' for Active; 'I' for Inactive)
REMARK    1  A    between atoms: C17_7  and  C21_10 
REMARK    2  A    between atoms: C21_10  and  O27_12 
REMARK    3  A    between atoms: O27_12  and  C15_13 
REMARK    4  A    between atoms: C14_19  and  C16_20 
REMARK    5  A    between atoms: N26_23  and  C20_25 
ROOT
HETATM    1  C15   D T9000     -11.597   3.361  -5.443  1.00 32.23     0.125 A 
HETATM    2  C4    D T9000     -12.337   2.368  -6.183  1.00 32.87     0.029 A 
HETATM    3  C19   D T9000     -10.221   3.529  -5.822  1.00 30.98     0.173 A 
HETATM    4  N22   D T9000      -9.438   4.485  -5.146  1.00 26.96    -0.078 NA
HETATM    5  N23   D T9000      -9.608   2.825  -6.808  1.00 30.39    -0.228 NA
HETATM    6  C5    D T9000     -10.336   1.891  -7.488  1.00 33.14     0.100 A 
HETATM    7  C14   D T9000     -11.712   1.608  -7.224  1.00 34.48     0.024 A 
ENDROOT
BRANCH   1   8
HETATM    8  O27   D T9000     -12.114   4.168  -4.419  1.00 33.85    -0.326 OA
BRANCH   8   9
HETATM    9  C21   D T9000     -13.517   4.223  -3.984  1.00 39.13     0.145 C 
HETATM   10  C1    D T9000     -14.268   5.002  -5.079  1.00 37.31     0.038 C 
BRANCH   9  11
HETATM   11  C17   D T9000     -13.728   4.870  -2.570  1.00 43.03     0.029 A 
HETATM   12  C13   D T9000     -14.374   4.095  -1.513  1.00 43.22     0.057 A 
HETATM   13 CL     D T9000     -14.934   2.459  -1.728  1.00 44.26    -0.083 Cl
HETATM   14  C3    D T9000     -14.574   4.672  -0.225  1.00 43.32     0.013 A 
HETATM   15  C2    D T9000     -14.154   5.997   0.058  1.00 42.25     0.031 A 
HETATM   16  C12   D T9000     -13.522   6.788  -0.940  1.00 45.15     0.150 A 
HETATM   17  F     D T9000     -13.143   8.038  -0.624  1.00 42.99    -0.203 F 
HETATM   18  C18   D T9000     -13.297   6.245  -2.260  1.00 44.96     0.084 A 
HETATM   19 CL2    D T9000     -12.506   7.292  -3.431  1.00 59.14    -0.080 Cl
ENDBRANCH   9  11
ENDBRANCH   8   9
ENDBRANCH   1   8
BRANCH   7  20
HETATM   20  C16   D T9000     -12.494   0.558  -8.004  1.00 36.37     0.041 A 
HETATM   21  C6    D T9000     -13.922   0.250  -7.901  1.00 37.83     0.122 A 
HETATM   22  N24   D T9000     -14.208  -0.700  -8.724  1.00 39.52    -0.168 NA
HETATM   23  N26   D T9000     -13.150  -1.061  -9.361  1.00 39.89    -0.252 N 
HETATM   24  C7    D T9000     -12.012  -0.321  -8.975  1.00 38.44     0.097 A 
BRANCH  23  25
HETATM   25  C20   D T9000     -13.183  -2.143 -10.381  1.00 45.76     0.110 C 
HETATM   26  C8    D T9000     -11.908  -2.106 -11.252  1.00 48.47     0.063 C 
HETATM   27  C10   D T9000     -11.966  -3.242 -12.302  1.00 51.46     0.292 C 
HETATM   28  N25   D T9000     -13.205  -3.183 -13.131  1.00 52.65     0.339 N 
HETATM   29  C11   D T9000     -14.450  -3.174 -12.310  1.00 50.34     0.292 C 
HETATM   30  C9    D T9000     -14.452  -2.034 -11.265  1.00 49.34     0.063 C 
ENDBRANCH  23  25
ENDBRANCH   7  20
TORSDOF 5
ENDMDL
MODEL 8
REMARK VINA RESULT:    -7.985      4.451      9.611
REMARK INTER + INTRA:         -11.229
REMARK INTER:                 -11.375
REMARK INTRA:                   0.146
REMARK UNBOUND:                -0.911
REMARK  5 active torsions:
REMARK  status: ('A' for Active; 'I' for Inactive)
REMARK    1  A    between atoms: C17_7  and  C21_10 
REMARK    2  A    between atoms: C21_10  and  O27_12 
REMARK    3  A    between atoms: O27_12  and  C15_13 
REMARK    4  A    between atoms: C14_19  and  C16_20 
REMARK    5  A    between atoms: N26_23  and  C20_25 
ROOT
HETATM    1  C15   D T9000     -12.163   5.438  -3.157  1.00 32.23     0.125 A 
HETATM    2  C4    D T9000     -13.357   5.165  -2.396  1.00 32.87     0.029 A 
HETATM    3  C19   D T9000     -11.500   6.678  -2.861  1.00 30.98     0.173 A 
HETATM    4  N22   D T9000     -10.323   7.009  -3.561  1.00 26.96    -0.078 NA
HETATM    5  N23   D T9000     -11.928   7.571  -1.932  1.00 30.39    -0.228 NA
HETATM    6  C5    D T9000     -13.063   7.283  -1.230  1.00 33.14     0.100 A 
HETATM    7  C14   D T9000     -13.832   6.093  -1.413  1.00 34.48     0.024 A 
ENDROOT
BRANCH   1   8
HETATM    8  O27   D T9000     -11.603   4.594  -4.128  1.00 33.85    -0.326 OA
BRANCH   8   9
HETATM    9  C21   D T9000     -12.339   3.657  -4.989  1.00 39.13     0.145 C 
HETATM   10  C1    D T9000     -13.062   2.686  -4.038  1.00 37.31     0.038 C 
BRANCH   9  11
HETATM   11  C17   D T9000     -11.441   2.890  -6.021  1.00 43.03     0.029 A 
HETATM   12  C13   D T9000     -12.071   2.098  -7.075  1.00 43.22     0.057 A 
HETATM   13 CL     D T9000     -13.798   1.953  -7.266  1.00 44.26    -0.083 Cl
HETATM   14  C3    D T9000     -11.266   1.393  -8.018  1.00 43.32     0.013 A 
HETATM   15  C2    D T9000      -9.850   1.444  -7.955  1.00 42.25     0.031 A 
HETATM   16  C12   D T9000      -9.194   2.201  -6.946  1.00 45.15     0.150 A 
HETATM   17  F     D T9000      -7.850   2.217  -6.928  1.00 42.99    -0.203 F 
HETATM   18  C18   D T9000      -9.968   2.932  -5.970  1.00 44.96     0.084 A 
HETATM   19 CL2    D T9000      -9.075   3.843  -4.760  1.00 59.14    -0.080 Cl
ENDBRANCH   9  11
ENDBRANCH   8   9
ENDBRANCH   1   8
BRANCH   7  20
HETATM   20  C16   D T9000     -15.095   5.804  -0.611  1.00 36.37     0.041 A 
HETATM   21  C6    D T9000     -16.249   6.685  -0.413  1.00 37.83     0.122 A 
HETATM   22  N24   D T9000     -17.115   6.083   0.327  1.00 39.52    -0.168 NA
HETATM   23  N26   D T9000     -16.683   4.913   0.645  1.00 39.89    -0.252 N 
HETATM   24  C7    D T9000     -15.411   4.644   0.098  1.00 38.44     0.097 A 
BRANCH  23  25
HETATM   25  C20   D T9000     -17.480   3.990   1.496  1.00 45.76     0.110 C 
HETATM   26  C8    D T9000     -18.863   3.725   0.862  1.00 48.47     0.063 C 
HETATM   27  C10   D T9000     -19.670   2.761   1.765  1.00 51.46     0.292 C 
HETATM   28  N25   D T9000     -19.790   3.264   3.164  1.00 52.65     0.339 N 
HETATM   29  C11   D T9000     -18.468   3.568   3.784  1.00 50.34     0.292 C 
HETATM   30  C9    D T9000     -17.637   4.554   2.933  1.00 49.34     0.063 C 
ENDBRANCH  23  25
ENDBRANCH   7  20
TORSDOF 5
ENDMDL
MODEL 9
REMARK VINA RESULT:    -7.968      4.503      9.245
REMARK INTER + INTRA:         -11.207
REMARK INTER:                 -11.154
REMARK INTRA:                  -0.053
REMARK UNBOUND:                -0.911
REMARK  5 active torsions:
REMARK  status: ('A' for Active; 'I' for Inactive)
REMARK    1  A    between atoms: C17_7  and  C21_10 
REMARK    2  A    between atoms: C21_10  and  O27_12 
REMARK    3  A    between atoms: O27_12  and  C15_13 
REMARK    4  A    between atoms: C14_19  and  C16_20 
REMARK    5  A    between atoms: N26_23  and  C20_25 
ROOT
HETATM    1  C15   D T9000     -11.643   3.946  -4.977  1.00 32.23     0.125 A 
HETATM    2  C4    D T9000     -12.485   4.544  -3.971  1.00 32.87     0.029 A 
HETATM    3  C19   D T9000     -10.264   4.348  -4.961  1.00 30.98     0.173 A 
HETATM    4  N22   D T9000      -9.380   3.800  -5.912  1.00 26.96    -0.078 NA
HETATM    5  N23   D T9000      -9.736   5.232  -4.076  1.00 30.39    -0.228 NA
HETATM    6  C5    D T9000     -10.560   5.783  -3.138  1.00 33.14     0.100 A 
HETATM    7  C14   D T9000     -11.953   5.484  -3.029  1.00 34.48     0.024 A 
ENDROOT
BRANCH   1   8
HETATM    8  O27   D T9000     -12.056   3.007  -5.934  1.00 33.85    -0.326 OA
BRANCH   8   9
HETATM    9  C21   D T9000     -13.231   2.129  -5.835  1.00 39.13     0.145 C 
HETATM   10  C1    D T9000     -13.134   1.446  -4.458  1.00 37.31     0.038 C 
BRANCH   9  11
HETATM   11  C17   D T9000     -13.346   1.075  -6.992  1.00 43.03     0.029 A 
HETATM   12  C13   D T9000     -14.595   0.338  -7.172  1.00 43.22     0.057 A 
HETATM   13 CL     D T9000     -15.997   0.563  -6.162  1.00 44.26    -0.083 Cl
HETATM   14  C3    D T9000     -14.712  -0.624  -8.218  1.00 43.32     0.013 A 
HETATM   15  C2    D T9000     -13.632  -0.884  -9.099  1.00 42.25     0.031 A 
HETATM   16  C12   D T9000     -12.399  -0.190  -8.961  1.00 45.15     0.150 A 
HETATM   17  F     D T9000     -11.404  -0.472  -9.820  1.00 42.99    -0.203 F 
HETATM   18  C18   D T9000     -12.234   0.794  -7.917  1.00 44.96     0.084 A 
HETATM   19 CL2    D T9000     -10.676   1.604  -7.821  1.00 59.14    -0.080 Cl
ENDBRANCH   9  11
ENDBRANCH   8   9
ENDBRANCH   1   8
BRANCH   7  20
HETATM   20  C16   D T9000     -12.845   6.117  -1.967  1.00 36.37     0.041 A 
HETATM   21  C6    D T9000     -12.778   7.483  -1.444  1.00 37.83     0.122 A 
HETATM   22  N24   D T9000     -13.700   7.639  -0.558  1.00 39.52    -0.168 NA
HETATM   23  N26   D T9000     -14.372   6.549  -0.427  1.00 39.89    -0.252 N 
HETATM   24  C7    D T9000     -13.906   5.526  -1.278  1.00 38.44     0.097 A 
BRANCH  23  25
HETATM   25  C20   D T9000     -15.505   6.440   0.531  1.00 45.76     0.110 C 
HETATM   26  C8    D T9000     -15.653   4.987   1.032  1.00 48.47     0.063 C 
HETATM   27  C10   D T9000     -16.835   4.901   2.028  1.00 51.46     0.292 C 
HETATM   28  N25   D T9000     -18.106   5.417   1.442  1.00 52.65     0.339 N 
HETATM   29  C11   D T9000     -17.977   6.804   0.911  1.00 50.34     0.292 C 
HETATM   30  C9    D T9000     -16.827   6.933  -0.114  1.00 49.34     0.063 C 
ENDBRANCH  23  25
ENDBRANCH   7  20
TORSDOF 5
ENDMDL
