MODEL 1
REMARK VINA RESULT:    -8.920      0.000      0.000
REMARK INTER + INTRA:         -12.156
REMARK INTER:                 -11.527
REMARK INTRA:                  -0.629
REMARK UNBOUND:                -0.629
REMARK  5 active torsions:
REMARK  status: ('A' for Active; 'I' for Inactive)
REMARK    1  A    between atoms: C17_7  and  C21_10 
REMARK    2  A    between atoms: C21_10  and  O27_12 
REMARK    3  A    between atoms: O27_12  and  C15_13 
REMARK    4  A    between atoms: C14_19  and  C16_20 
REMARK    5  A    between atoms: N26_23  and  C20_25 
ROOT
HETATM    1  C15   D T9000       5.037  12.409   2.245  1.00 32.23     0.125 A 
HETATM    2  C4    D T9000       6.413  12.169   2.606  1.00 32.87     0.029 A 
HETATM    3  C19   D T9000       4.065  11.557   2.873  1.00 30.98     0.173 A 
HETATM    4  N22   D T9000       2.701  11.739   2.573  1.00 26.96    -0.078 NA
HETATM    5  N23   D T9000       4.370  10.574   3.758  1.00 30.39    -0.228 NA
HETATM    6  C5    D T9000       5.680  10.370   4.078  1.00 33.14     0.100 A 
HETATM    7  C14   D T9000       6.760  11.135   3.534  1.00 34.48     0.024 A 
ENDROOT
BRANCH   1   8
HETATM    8  O27   D T9000       4.588  13.403   1.362  1.00 33.85    -0.326 OA
BRANCH   8   9
HETATM    9  C21   D T9000       4.039  13.183   0.017  1.00 39.13     0.145 C 
HETATM   10  C1    D T9000       5.064  12.298  -0.718  1.00 37.31     0.038 C 
BRANCH   9  11
HETATM   11  C17   D T9000       3.740  14.501  -0.781  1.00 43.03     0.029 A 
HETATM   12  C13   D T9000       2.376  14.779  -1.225  1.00 43.22     0.057 A 
HETATM   13 CL     D T9000       1.029  13.718  -0.915  1.00 44.26    -0.083 Cl
HETATM   14  C3    D T9000       2.092  15.973  -1.954  1.00 43.32     0.013 A 
HETATM   15  C2    D T9000       3.115  16.905  -2.259  1.00 42.25     0.031 A 
HETATM   16  C12   D T9000       4.456  16.675  -1.848  1.00 45.15     0.150 A 
HETATM   17  F     D T9000       5.390  17.589  -2.163  1.00 42.99    -0.203 F 
HETATM   18  C18   D T9000       4.792  15.482  -1.108  1.00 44.96     0.084 A 
HETATM   19 CL2    D T9000       6.474  15.279  -0.636  1.00 59.14    -0.080 Cl
ENDBRANCH   9  11
ENDBRANCH   8   9
ENDBRANCH   1   8
BRANCH   7  20
HETATM   20  C16   D T9000       8.214  10.880   3.914  1.00 36.37     0.041 A 
HETATM   21  C6    D T9000       9.360  11.767   3.704  1.00 37.83     0.122 A 
HETATM   22  N24   D T9000      10.422  11.197   4.160  1.00 39.52    -0.168 NA
HETATM   23  N26   D T9000      10.126  10.044   4.647  1.00 39.89    -0.252 N 
HETATM   24  C7    D T9000       8.750   9.753   4.537  1.00 38.44     0.097 A 
BRANCH  23  25
HETATM   25  C20   D T9000      11.160   9.161   5.248  1.00 45.76     0.110 C 
HETATM   26  C8    D T9000      11.385   9.523   6.733  1.00 48.47     0.063 C 
HETATM   27  C10   D T9000      12.463   8.589   7.335  1.00 51.46     0.292 C 
HETATM   28  N25   D T9000      13.737   8.620   6.558  1.00 52.65     0.339 N 
HETATM   29  C11   D T9000      13.539   8.315   5.111  1.00 50.34     0.292 C 
HETATM   30  C9    D T9000      12.491   9.245   4.457  1.00 49.34     0.063 C 
ENDBRANCH  23  25
ENDBRANCH   7  20
TORSDOF 5
ENDMDL
MODEL 2
REMARK VINA RESULT:    -8.735      2.006      2.926
REMARK INTER + INTRA:         -11.918
REMARK INTER:                 -11.355
REMARK INTRA:                  -0.562
REMARK UNBOUND:                -0.629
REMARK  5 active torsions:
REMARK  status: ('A' for Active; 'I' for Inactive)
REMARK    1  A    between atoms: C17_7  and  C21_10 
REMARK    2  A    between atoms: C21_10  and  O27_12 
REMARK    3  A    between atoms: O27_12  and  C15_13 
REMARK    4  A    between atoms: C14_19  and  C16_20 
REMARK    5  A    between atoms: N26_23  and  C20_25 
ROOT
HETATM    1  C15   D T9000       3.499  12.853   0.421  1.00 32.23     0.125 A 
HETATM    2  C4    D T9000       4.882  12.778   0.828  1.00 32.87     0.029 A 
HETATM    3  C19   D T9000       2.536  12.386   1.379  1.00 30.98     0.173 A 
HETATM    4  N22   D T9000       1.167  12.436   1.052  1.00 26.96    -0.078 NA
HETATM    5  N23   D T9000       2.853  11.897   2.605  1.00 30.39    -0.228 NA
HETATM    6  C5    D T9000       4.169  11.837   2.960  1.00 33.14     0.100 A 
HETATM    7  C14   D T9000       5.242  12.262   2.115  1.00 34.48     0.024 A 
ENDROOT
BRANCH   1   8
HETATM    8  O27   D T9000       3.038  13.355  -0.806  1.00 33.85    -0.326 OA
BRANCH   8   9
HETATM    9  C21   D T9000       2.698  14.754  -1.097  1.00 39.13     0.145 C 
HETATM   10  C1    D T9000       1.219  14.750  -1.525  1.00 37.31     0.038 C 
BRANCH   9  11
HETATM   11  C17   D T9000       3.610  15.426  -2.183  1.00 43.03     0.029 A 
HETATM   12  C13   D T9000       3.588  16.879  -2.343  1.00 43.22     0.057 A 
HETATM   13 CL     D T9000       2.593  17.936  -1.378  1.00 44.26    -0.083 Cl
HETATM   14  C3    D T9000       4.410  17.502  -3.329  1.00 43.32     0.013 A 
HETATM   15  C2    D T9000       5.257  16.734  -4.166  1.00 42.25     0.031 A 
HETATM   16  C12   D T9000       5.310  15.319  -4.047  1.00 45.15     0.150 A 
HETATM   17  F     D T9000       6.129  14.636  -4.866  1.00 42.99    -0.203 F 
HETATM   18  C18   D T9000       4.497  14.644  -3.063  1.00 44.96     0.084 A 
HETATM   19 CL2    D T9000       4.628  12.892  -2.982  1.00 59.14    -0.080 Cl
ENDBRANCH   9  11
ENDBRANCH   8   9
ENDBRANCH   1   8
BRANCH   7  20
HETATM   20  C16   D T9000       6.702  12.181   2.544  1.00 36.37     0.041 A 
HETATM   21  C6    D T9000       7.821  12.992   2.059  1.00 37.83     0.122 A 
HETATM   22  N24   D T9000       8.899  12.624   2.662  1.00 39.52    -0.168 NA
HETATM   23  N26   D T9000       8.637  11.672   3.488  1.00 39.89    -0.252 N 
HETATM   24  C7    D T9000       7.270  11.321   3.484  1.00 38.44     0.097 A 
BRANCH  23  25
HETATM   25  C20   D T9000       9.696  11.051   4.326  1.00 45.76     0.110 C 
HETATM   26  C8    D T9000      10.890  10.610   3.452  1.00 48.47     0.063 C 
HETATM   27  C10   D T9000      11.979   9.971   4.348  1.00 51.46     0.292 C 
HETATM   28  N25   D T9000      11.446   8.844   5.168  1.00 52.65     0.339 N 
HETATM   29  C11   D T9000      10.265   9.235   5.990  1.00 50.34     0.292 C 
HETATM   30  C9    D T9000       9.136   9.851   5.132  1.00 49.34     0.063 C 
ENDBRANCH  23  25
ENDBRANCH   7  20
TORSDOF 5
ENDMDL
MODEL 3
REMARK VINA RESULT:    -8.726      6.004     10.299
REMARK INTER + INTRA:         -11.906
REMARK INTER:                 -11.181
REMARK INTRA:                  -0.725
REMARK UNBOUND:                -0.629
REMARK  5 active torsions:
REMARK  status: ('A' for Active; 'I' for Inactive)
REMARK    1  A    between atoms: C17_7  and  C21_10 
REMARK    2  A    between atoms: C21_10  and  O27_12 
REMARK    3  A    between atoms: O27_12  and  C15_13 
REMARK    4  A    between atoms: C14_19  and  C16_20 
REMARK    5  A    between atoms: N26_23  and  C20_25 
ROOT
HETATM    1  C15   D T9000       3.915  15.228  -2.310  1.00 32.23     0.125 A 
HETATM    2  C4    D T9000       4.804  15.682  -3.352  1.00 32.87     0.029 A 
HETATM    3  C19   D T9000       2.844  16.122  -1.965  1.00 30.98     0.173 A 
HETATM    4  N22   D T9000       1.934  15.742  -0.960  1.00 26.96    -0.078 NA
HETATM    5  N23   D T9000       2.637  17.327  -2.552  1.00 30.39    -0.228 NA
HETATM    6  C5    D T9000       3.495  17.729  -3.533  1.00 33.14     0.100 A 
HETATM    7  C14   D T9000       4.608  16.952  -3.984  1.00 34.48     0.024 A 
ENDROOT
BRANCH   1   8
HETATM    8  O27   D T9000       4.007  13.999  -1.638  1.00 33.85    -0.326 OA
BRANCH   8   9
HETATM    9  C21   D T9000       5.170  13.508  -0.886  1.00 39.13     0.145 C 
HETATM   10  C1    D T9000       5.832  12.442  -1.779  1.00 37.31     0.038 C 
BRANCH   9  11
HETATM   11  C17   D T9000       4.824  12.935   0.534  1.00 43.03     0.029 A 
HETATM   12  C13   D T9000       5.833  12.970   1.589  1.00 43.22     0.057 A 
HETATM   13 CL     D T9000       7.432  13.628   1.368  1.00 44.26    -0.083 Cl
HETATM   14  C3    D T9000       5.532  12.450   2.883  1.00 43.32     0.013 A 
HETATM   15  C2    D T9000       4.260  11.893   3.170  1.00 42.25     0.031 A 
HETATM   16  C12   D T9000       3.249  11.837   2.174  1.00 45.15     0.150 A 
HETATM   17  F     D T9000       2.060  11.298   2.496  1.00 42.99    -0.203 F 
HETATM   18  C18   D T9000       3.507  12.352   0.850  1.00 44.96     0.084 A 
HETATM   19 CL2    D T9000       2.198  12.245  -0.320  1.00 59.14    -0.080 Cl
ENDBRANCH   9  11
ENDBRANCH   8   9
ENDBRANCH   1   8
BRANCH   7  20
HETATM   20  C16   D T9000       5.548  17.431  -5.084  1.00 36.37     0.041 A 
HETATM   21  C6    D T9000       5.446  18.661  -5.873  1.00 37.83     0.122 A 
HETATM   22  N24   D T9000       6.428  18.709  -6.705  1.00 39.52    -0.168 NA
HETATM   23  N26   D T9000       7.171  17.668  -6.568  1.00 39.89    -0.252 N 
HETATM   24  C7    D T9000       6.694  16.798  -5.565  1.00 38.44     0.097 A 
BRANCH  23  25
HETATM   25  C20   D T9000       8.385  17.459  -7.400  1.00 45.76     0.110 C 
HETATM   26  C8    D T9000       8.752  15.960  -7.457  1.00 48.47     0.063 C 
HETATM   27  C10   D T9000      10.015  15.769  -8.331  1.00 51.46     0.292 C 
HETATM   28  N25   D T9000      11.160  16.602  -7.859  1.00 52.65     0.339 N 
HETATM   29  C11   D T9000      10.818  18.050  -7.756  1.00 50.34     0.292 C 
HETATM   30  C9    D T9000       9.577  18.293  -6.865  1.00 49.34     0.063 C 
ENDBRANCH  23  25
ENDBRANCH   7  20
TORSDOF 5
ENDMDL
MODEL 4
REMARK VINA RESULT:    -8.562      1.798      2.782
REMARK INTER + INTRA:         -11.693
REMARK INTER:                 -11.252
REMARK INTRA:                  -0.441
REMARK UNBOUND:                -0.629
REMARK  5 active torsions:
REMARK  status: ('A' for Active; 'I' for Inactive)
REMARK    1  A    between atoms: C17_7  and  C21_10 
REMARK    2  A    between atoms: C21_10  and  O27_12 
REMARK    3  A    between atoms: O27_12  and  C15_13 
REMARK    4  A    between atoms: C14_19  and  C16_20 
REMARK    5  A    between atoms: N26_23  and  C20_25 
ROOT
HETATM    1  C15   D T9000       4.362  12.280   2.223  1.00 32.23     0.125 A 
HETATM    2  C4    D T9000       5.766  12.236   2.550  1.00 32.87     0.029 A 
HETATM    3  C19   D T9000       3.542  11.271   2.836  1.00 30.98     0.173 A 
HETATM    4  N22   D T9000       2.160  11.257   2.567  1.00 26.96    -0.078 NA
HETATM    5  N23   D T9000       4.010  10.314   3.676  1.00 30.39    -0.228 NA
HETATM    6  C5    D T9000       5.343  10.297   3.965  1.00 33.14     0.100 A 
HETATM    7  C14   D T9000       6.285  11.233   3.432  1.00 34.48     0.024 A 
ENDROOT
BRANCH   1   8
HETATM    8  O27   D T9000       3.749  13.226   1.387  1.00 33.85    -0.326 OA
BRANCH   8   9
HETATM    9  C21   D T9000       3.625  13.139  -0.074  1.00 39.13     0.145 C 
HETATM   10  C1    D T9000       4.672  12.104  -0.527  1.00 37.31     0.038 C 
BRANCH   9  11
HETATM   11  C17   D T9000       3.809  14.507  -0.820  1.00 43.03     0.029 A 
HETATM   12  C13   D T9000       5.134  15.119  -0.885  1.00 43.22     0.057 A 
HETATM   13 CL     D T9000       6.557  14.406  -0.173  1.00 44.26    -0.083 Cl
HETATM   14  C3    D T9000       5.314  16.365  -1.557  1.00 43.32     0.013 A 
HETATM   15  C2    D T9000       4.223  17.029  -2.171  1.00 42.25     0.031 A 
HETATM   16  C12   D T9000       2.916  16.471  -2.132  1.00 45.15     0.150 A 
HETATM   17  F     D T9000       1.914  17.141  -2.729  1.00 42.99    -0.203 F 
HETATM   18  C18   D T9000       2.686  15.213  -1.464  1.00 44.96     0.084 A 
HETATM   19 CL2    D T9000       1.039  14.594  -1.467  1.00 59.14    -0.080 Cl
ENDBRANCH   9  11
ENDBRANCH   8   9
ENDBRANCH   1   8
BRANCH   7  20
HETATM   20  C16   D T9000       7.769  11.185   3.775  1.00 36.37     0.041 A 
HETATM   21  C6    D T9000       8.480  10.146   4.523  1.00 37.83     0.122 A 
HETATM   22  N24   D T9000       9.725  10.466   4.607  1.00 39.52    -0.168 NA
HETATM   23  N26   D T9000       9.932  11.586   4.009  1.00 39.89    -0.252 N 
HETATM   24  C7    D T9000       8.752  12.121   3.451  1.00 38.44     0.097 A 
BRANCH  23  25
HETATM   25  C20   D T9000      11.284  12.199   3.945  1.00 45.76     0.110 C 
HETATM   26  C8    D T9000      12.354  11.122   3.662  1.00 48.47     0.063 C 
HETATM   27  C10   D T9000      13.752  11.785   3.597  1.00 51.46     0.292 C 
HETATM   28  N25   D T9000      14.064  12.567   4.830  1.00 52.65     0.339 N 
HETATM   29  C11   D T9000      13.024  13.586   5.148  1.00 50.34     0.292 C 
HETATM   30  C9    D T9000      11.612  12.964   5.254  1.00 49.34     0.063 C 
ENDBRANCH  23  25
ENDBRANCH   7  20
TORSDOF 5
ENDMDL
MODEL 5
REMARK VINA RESULT:    -8.467      2.480      4.440
REMARK INTER + INTRA:         -11.571
REMARK INTER:                 -11.244
REMARK INTRA:                  -0.327
REMARK UNBOUND:                -0.629
REMARK  5 active torsions:
REMARK  status: ('A' for Active; 'I' for Inactive)
REMARK    1  A    between atoms: C17_7  and  C21_10 
REMARK    2  A    between atoms: C21_10  and  O27_12 
REMARK    3  A    between atoms: O27_12  and  C15_13 
REMARK    4  A    between atoms: C14_19  and  C16_20 
REMARK    5  A    between atoms: N26_23  and  C20_25 
ROOT
HETATM    1  C15   D T9000       3.409  13.972  -1.036  1.00 32.23     0.125 A 
HETATM    2  C4    D T9000       4.362  13.388  -0.123  1.00 32.87     0.029 A 
HETATM    3  C19   D T9000       2.040  13.973  -0.599  1.00 30.98     0.173 A 
HETATM    4  N22   D T9000       1.057  14.532  -1.437  1.00 26.96    -0.078 NA
HETATM    5  N23   D T9000       1.617  13.471   0.589  1.00 30.39    -0.228 NA
HETATM    6  C5    D T9000       2.541  12.925   1.430  1.00 33.14     0.100 A 
HETATM    7  C14   D T9000       3.939  12.848   1.135  1.00 34.48     0.024 A 
ENDROOT
BRANCH   1   8
HETATM    8  O27   D T9000       3.718  14.541  -2.281  1.00 33.85    -0.326 OA
BRANCH   8   9
HETATM    9  C21   D T9000       4.807  15.489  -2.554  1.00 39.13     0.145 C 
HETATM   10  C1    D T9000       5.293  15.982  -1.178  1.00 37.31     0.038 C 
BRANCH   9  11
HETATM   11  C17   D T9000       4.402  16.685  -3.485  1.00 43.03     0.029 A 
HETATM   12  C13   D T9000       5.037  16.826  -4.793  1.00 43.22     0.057 A 
HETATM   13 CL     D T9000       6.240  15.721  -5.401  1.00 44.26    -0.083 Cl
HETATM   14  C3    D T9000       4.680  17.912  -5.648  1.00 43.32     0.013 A 
HETATM   15  C2    D T9000       3.711  18.867  -5.251  1.00 42.25     0.031 A 
HETATM   16  C12   D T9000       3.068  18.770  -3.987  1.00 45.15     0.150 A 
HETATM   17  F     D T9000       2.157  19.702  -3.657  1.00 42.99    -0.203 F 
HETATM   18  C18   D T9000       3.397  17.689  -3.089  1.00 44.96     0.084 A 
HETATM   19 CL2    D T9000       2.551  17.643  -1.547  1.00 59.14    -0.080 Cl
ENDBRANCH   9  11
ENDBRANCH   8   9
ENDBRANCH   1   8
BRANCH   7  20
HETATM   20  C16   D T9000       4.946  12.231   2.099  1.00 36.37     0.041 A 
HETATM   21  C6    D T9000       4.666  11.382   3.259  1.00 37.83     0.122 A 
HETATM   22  N24   D T9000       5.779  11.061   3.823  1.00 39.52    -0.168 NA
HETATM   23  N26   D T9000       6.763  11.589   3.183  1.00 39.89    -0.252 N 
HETATM   24  C7    D T9000       6.336  12.350   2.075  1.00 38.44     0.097 A 
BRANCH  23  25
HETATM   25  C20   D T9000       8.172  11.383   3.610  1.00 45.76     0.110 C 
HETATM   26  C8    D T9000       9.061  11.034   2.396  1.00 48.47     0.063 C 
HETATM   27  C10   D T9000      10.521  10.828   2.866  1.00 51.46     0.292 C 
HETATM   28  N25   D T9000      10.629   9.802   3.945  1.00 52.65     0.339 N 
HETATM   29  C11   D T9000       9.748  10.096   5.112  1.00 50.34     0.292 C 
HETATM   30  C9    D T9000       8.270  10.279   4.695  1.00 49.34     0.063 C 
ENDBRANCH  23  25
ENDBRANCH   7  20
TORSDOF 5
ENDMDL
MODEL 6
REMARK VINA RESULT:    -8.307      5.977      9.446
REMARK INTER + INTRA:         -11.364
REMARK INTER:                 -11.185
REMARK INTRA:                  -0.180
REMARK UNBOUND:                -0.629
REMARK  5 active torsions:
REMARK  status: ('A' for Active; 'I' for Inactive)
REMARK    1  A    between atoms: C17_7  and  C21_10 
REMARK    2  A    between atoms: C21_10  and  O27_12 
REMARK    3  A    between atoms: O27_12  and  C15_13 
REMARK    4  A    between atoms: C14_19  and  C16_20 
REMARK    5  A    between atoms: N26_23  and  C20_25 
ROOT
HETATM    1  C15   D T9000       5.581  13.833  -1.328  1.00 32.23     0.125 A 
HETATM    2  C4    D T9000       6.582  14.250  -2.280  1.00 32.87     0.029 A 
HETATM    3  C19   D T9000       4.230  14.221  -1.626  1.00 30.98     0.173 A 
HETATM    4  N22   D T9000       3.200  13.844  -0.743  1.00 26.96    -0.078 NA
HETATM    5  N23   D T9000       3.865  14.934  -2.722  1.00 30.39    -0.228 NA
HETATM    6  C5    D T9000       4.834  15.315  -3.603  1.00 33.14     0.100 A 
HETATM    7  C14   D T9000       6.221  15.007  -3.442  1.00 34.48     0.024 A 
ENDROOT
BRANCH   1   8
HETATM    8  O27   D T9000       5.823  13.078  -0.170  1.00 33.85    -0.326 OA
BRANCH   8   9
HETATM    9  C21   D T9000       5.545  13.496   1.211  1.00 39.13     0.145 C 
HETATM   10  C1    D T9000       6.454  14.712   1.475  1.00 37.31     0.038 C 
BRANCH   9  11
HETATM   11  C17   D T9000       5.764  12.370   2.282  1.00 43.03     0.029 A 
HETATM   12  C13   D T9000       7.123  11.994   2.663  1.00 43.22     0.057 A 
HETATM   13 CL     D T9000       8.550  12.738   1.993  1.00 44.26    -0.083 Cl
HETATM   14  C3    D T9000       7.335  10.970   3.634  1.00 43.32     0.013 A 
HETATM   15  C2    D T9000       6.243  10.302   4.243  1.00 42.25     0.031 A 
HETATM   16  C12   D T9000       4.904  10.633   3.901  1.00 45.15     0.150 A 
HETATM   17  F     D T9000       3.904   9.969   4.505  1.00 42.99    -0.203 F 
HETATM   18  C18   D T9000       4.640  11.664   2.925  1.00 44.96     0.084 A 
HETATM   19 CL2    D T9000       2.955  12.012   2.564  1.00 59.14    -0.080 Cl
ENDBRANCH   9  11
ENDBRANCH   8   9
ENDBRANCH   1   8
BRANCH   7  20
HETATM   20  C16   D T9000       7.279  15.448  -4.448  1.00 36.37     0.041 A 
HETATM   21  C6    D T9000       7.076  16.212  -5.680  1.00 37.83     0.122 A 
HETATM   22  N24   D T9000       8.213  16.385  -6.259  1.00 39.52    -0.168 NA
HETATM   23  N26   D T9000       9.147  15.833  -5.567  1.00 39.89    -0.252 N 
HETATM   24  C7    D T9000       8.653  15.213  -4.400  1.00 38.44     0.097 A 
BRANCH  23  25
HETATM   25  C20   D T9000      10.569  15.879  -5.997  1.00 45.76     0.110 C 
HETATM   26  C8    D T9000      10.673  15.772  -7.535  1.00 48.47     0.063 C 
HETATM   27  C10   D T9000      12.162  15.825  -7.957  1.00 51.46     0.292 C 
HETATM   28  N25   D T9000      12.981  14.782  -7.273  1.00 52.65     0.339 N 
HETATM   29  C11   D T9000      12.864  14.838  -5.787  1.00 50.34     0.292 C 
HETATM   30  C9    D T9000      11.393  14.757  -5.315  1.00 49.34     0.063 C 
ENDBRANCH  23  25
ENDBRANCH   7  20
TORSDOF 5
ENDMDL
MODEL 7
REMARK VINA RESULT:    -8.304      6.007      9.626
REMARK INTER + INTRA:         -11.360
REMARK INTER:                 -10.864
REMARK INTRA:                  -0.497
REMARK UNBOUND:                -0.629
REMARK  5 active torsions:
REMARK  status: ('A' for Active; 'I' for Inactive)
REMARK    1  A    between atoms: C17_7  and  C21_10 
REMARK    2  A    between atoms: C21_10  and  O27_12 
REMARK    3  A    between atoms: O27_12  and  C15_13 
REMARK    4  A    between atoms: C14_19  and  C16_20 
REMARK    5  A    between atoms: N26_23  and  C20_25 
ROOT
HETATM    1  C15   D T9000       5.789  13.220  -1.302  1.00 32.23     0.125 A 
HETATM    2  C4    D T9000       6.703  13.696  -2.313  1.00 32.87     0.029 A 
HETATM    3  C19   D T9000       4.397  13.487  -1.537  1.00 30.98     0.173 A 
HETATM    4  N22   D T9000       3.449  13.046  -0.595  1.00 26.96    -0.078 NA
HETATM    5  N23   D T9000       3.918  14.141  -2.626  1.00 30.39    -0.228 NA
HETATM    6  C5    D T9000       4.806  14.580  -3.563  1.00 33.14     0.100 A 
HETATM    7  C14   D T9000       6.222  14.393  -3.469  1.00 34.48     0.024 A 
ENDROOT
BRANCH   1   8
HETATM    8  O27   D T9000       6.152  12.516  -0.144  1.00 33.85    -0.326 OA
BRANCH   8   9
HETATM    9  C21   D T9000       6.037  13.002   1.238  1.00 39.13     0.145 C 
HETATM   10  C1    D T9000       6.560  14.451   1.221  1.00 37.31     0.038 C 
BRANCH   9  11
HETATM   11  C17   D T9000       6.798  12.127   2.295  1.00 43.03     0.029 A 
HETATM   12  C13   D T9000       6.036  11.380   3.293  1.00 43.22     0.057 A 
HETATM   13 CL     D T9000       4.295  11.395   3.382  1.00 44.26    -0.083 Cl
HETATM   14  C3    D T9000       6.716  10.583   4.261  1.00 43.32     0.013 A 
HETATM   15  C2    D T9000       8.131  10.499   4.277  1.00 42.25     0.031 A 
HETATM   16  C12   D T9000       8.912  11.210   3.326  1.00 45.15     0.150 A 
HETATM   17  F     D T9000      10.251  11.098   3.383  1.00 42.99    -0.203 F 
HETATM   18  C18   D T9000       8.268  12.028   2.327  1.00 44.96     0.084 A 
HETATM   19 CL2    D T9000       9.311  12.870   1.188  1.00 59.14    -0.080 Cl
ENDBRANCH   9  11
ENDBRANCH   8   9
ENDBRANCH   1   8
BRANCH   7  20
HETATM   20  C16   D T9000       7.186  14.896  -4.536  1.00 36.37     0.041 A 
HETATM   21  C6    D T9000       6.892  15.186  -5.941  1.00 37.83     0.122 A 
HETATM   22  N24   D T9000       7.968  15.590  -6.521  1.00 39.52    -0.168 NA
HETATM   23  N26   D T9000       8.942  15.606  -5.679  1.00 39.89    -0.252 N 
HETATM   24  C7    D T9000       8.544  15.183  -4.394  1.00 38.44     0.097 A 
BRANCH  23  25
HETATM   25  C20   D T9000      10.309  16.035  -6.074  1.00 45.76     0.110 C 
HETATM   26  C8    D T9000      10.545  17.513  -5.692  1.00 48.47     0.063 C 
HETATM   27  C10   D T9000      11.975  17.934  -6.110  1.00 51.46     0.292 C 
HETATM   28  N25   D T9000      12.235  17.688  -7.559  1.00 52.65     0.339 N 
HETATM   29  C11   D T9000      11.974  16.276  -7.962  1.00 50.34     0.292 C 
HETATM   30  C9    D T9000      10.544  15.819  -7.592  1.00 49.34     0.063 C 
ENDBRANCH  23  25
ENDBRANCH   7  20
TORSDOF 5
ENDMDL
MODEL 8
REMARK VINA RESULT:    -8.303      5.961      9.153
REMARK INTER + INTRA:         -11.359
REMARK INTER:                 -10.591
REMARK INTRA:                  -0.768
REMARK UNBOUND:                -0.629
REMARK  5 active torsions:
REMARK  status: ('A' for Active; 'I' for Inactive)
REMARK    1  A    between atoms: C17_7  and  C21_10 
REMARK    2  A    between atoms: C21_10  and  O27_12 
REMARK    3  A    between atoms: O27_12  and  C15_13 
REMARK    4  A    between atoms: C14_19  and  C16_20 
REMARK    5  A    between atoms: N26_23  and  C20_25 
ROOT
HETATM    1  C15   D T9000       5.388  15.049  -1.410  1.00 32.23     0.125 A 
HETATM    2  C4    D T9000       6.587  15.382  -2.139  1.00 32.87     0.029 A 
HETATM    3  C19   D T9000       4.163  15.584  -1.937  1.00 30.98     0.173 A 
HETATM    4  N22   D T9000       2.952  15.294  -1.279  1.00 26.96    -0.078 NA
HETATM    5  N23   D T9000       4.084  16.359  -3.048  1.00 30.39    -0.228 NA
HETATM    6  C5    D T9000       5.236  16.658  -3.715  1.00 33.14     0.100 A 
HETATM    7  C14   D T9000       6.530  16.202  -3.312  1.00 34.48     0.024 A 
ENDROOT
BRANCH   1   8
HETATM    8  O27   D T9000       5.330  14.243  -0.262  1.00 33.85    -0.326 OA
BRANCH   8   9
HETATM    9  C21   D T9000       5.977  12.936  -0.087  1.00 39.13     0.145 C 
HETATM   10  C1    D T9000       5.424  12.037  -1.209  1.00 37.31     0.038 C 
BRANCH   9  11
HETATM   11  C17   D T9000       5.759  12.292   1.327  1.00 43.03     0.029 A 
HETATM   12  C13   D T9000       4.412  12.236   1.892  1.00 43.22     0.057 A 
HETATM   13 CL     D T9000       3.001  12.848   1.073  1.00 44.26    -0.083 Cl
HETATM   14  C3    D T9000       4.201  11.656   3.178  1.00 43.32     0.013 A 
HETATM   15  C2    D T9000       5.281  11.127   3.929  1.00 42.25     0.031 A 
HETATM   16  C12   D T9000       6.607  11.161   3.420  1.00 45.15     0.150 A 
HETATM   17  F     D T9000       7.597  10.648   4.171  1.00 42.99    -0.203 F 
HETATM   18  C18   D T9000       6.870  11.738   2.123  1.00 44.96     0.084 A 
HETATM   19 CL2    D T9000       8.539  11.736   1.569  1.00 59.14    -0.080 Cl
ENDBRANCH   9  11
ENDBRANCH   8   9
ENDBRANCH   1   8
BRANCH   7  20
HETATM   20  C16   D T9000       7.798  16.555  -4.082  1.00 36.37     0.041 A 
HETATM   21  C6    D T9000       8.130  17.832  -4.718  1.00 37.83     0.122 A 
HETATM   22  N24   D T9000       9.289  17.736  -5.271  1.00 39.52    -0.168 NA
HETATM   23  N26   D T9000       9.771  16.558  -5.081  1.00 39.89    -0.252 N 
HETATM   24  C7    D T9000       8.898  15.736  -4.338  1.00 38.44     0.097 A 
BRANCH  23  25
HETATM   25  C20   D T9000      11.104  16.165  -5.608  1.00 45.76     0.110 C 
HETATM   26  C8    D T9000      11.061  16.033  -7.147  1.00 48.47     0.063 C 
HETATM   27  C10   D T9000      12.459  15.626  -7.670  1.00 51.46     0.292 C 
HETATM   28  N25   D T9000      12.967  14.382  -7.021  1.00 52.65     0.339 N 
HETATM   29  C11   D T9000      12.979  14.470  -5.533  1.00 50.34     0.292 C 
HETATM   30  C9    D T9000      11.591  14.844  -4.960  1.00 49.34     0.063 C 
ENDBRANCH  23  25
ENDBRANCH   7  20
TORSDOF 5
ENDMDL
MODEL 9
REMARK VINA RESULT:    -8.283      2.329      2.992
REMARK INTER + INTRA:         -11.333
REMARK INTER:                 -10.454
REMARK INTRA:                  -0.879
REMARK UNBOUND:                -0.629
REMARK  5 active torsions:
REMARK  status: ('A' for Active; 'I' for Inactive)
REMARK    1  A    between atoms: C17_7  and  C21_10 
REMARK    2  A    between atoms: C21_10  and  O27_12 
REMARK    3  A    between atoms: O27_12  and  C15_13 
REMARK    4  A    between atoms: C14_19  and  C16_20 
REMARK    5  A    between atoms: N26_23  and  C20_25 
ROOT
HETATM    1  C15   D T9000       7.028  13.224   1.188  1.00 32.23     0.125 A 
HETATM    2  C4    D T9000       7.429  12.261   2.186  1.00 32.87     0.029 A 
HETATM    3  C19   D T9000       8.090  13.975   0.578  1.00 30.98     0.173 A 
HETATM    4  N22   D T9000       7.773  14.928  -0.409  1.00 26.96    -0.078 NA
HETATM    5  N23   D T9000       9.404  13.827   0.884  1.00 30.39    -0.228 NA
HETATM    6  C5    D T9000       9.751  12.910   1.833  1.00 33.14     0.100 A 
HETATM    7  C14   D T9000       8.809  12.090   2.530  1.00 34.48     0.024 A 
ENDROOT
BRANCH   1   8
HETATM    8  O27   D T9000       5.710  13.460   0.767  1.00 33.85    -0.326 OA
BRANCH   8   9
HETATM    9  C21   D T9000       4.838  12.502   0.075  1.00 39.13     0.145 C 
HETATM   10  C1    D T9000       5.605  12.066  -1.188  1.00 37.31     0.038 C 
BRANCH   9  11
HETATM   11  C17   D T9000       3.416  13.064  -0.280  1.00 43.03     0.029 A 
HETATM   12  C13   D T9000       2.225  12.353   0.179  1.00 43.22     0.057 A 
HETATM   13 CL     D T9000       2.285  10.887   1.120  1.00 44.26    -0.083 Cl
HETATM   14  C3    D T9000       0.928  12.852  -0.140  1.00 43.32     0.013 A 
HETATM   15  C2    D T9000       0.766  14.038  -0.900  1.00 42.25     0.031 A 
HETATM   16  C12   D T9000       1.896  14.762  -1.368  1.00 45.15     0.150 A 
HETATM   17  F     D T9000       1.690  15.880  -2.086  1.00 42.99    -0.203 F 
HETATM   18  C18   D T9000       3.229  14.295  -1.070  1.00 44.96     0.084 A 
HETATM   19 CL2    D T9000       4.570  15.254  -1.685  1.00 59.14    -0.080 Cl
ENDBRANCH   9  11
ENDBRANCH   8   9
ENDBRANCH   1   8
BRANCH   7  20
HETATM   20  C16   D T9000       9.232  11.074   3.585  1.00 36.37     0.041 A 
HETATM   21  C6    D T9000       8.364  10.253   4.432  1.00 37.83     0.122 A 
HETATM   22  N24   D T9000       9.097   9.520   5.198  1.00 39.52    -0.168 NA
HETATM   23  N26   D T9000      10.342   9.749   4.965  1.00 39.89    -0.252 N 
HETATM   24  C7    D T9000      10.528  10.720   3.959  1.00 38.44     0.097 A 
BRANCH  23  25
HETATM   25  C20   D T9000      11.418   9.039   5.704  1.00 45.76     0.110 C 
HETATM   26  C8    D T9000      12.015   9.950   6.800  1.00 48.47     0.063 C 
HETATM   27  C10   D T9000      13.130   9.186   7.556  1.00 51.46     0.292 C 
HETATM   28  N25   D T9000      14.182   8.664   6.635  1.00 52.65     0.339 N 
HETATM   29  C11   D T9000      13.625   7.815   5.543  1.00 50.34     0.292 C 
HETATM   30  C9    D T9000      12.526   8.548   4.737  1.00 49.34     0.063 C 
ENDBRANCH  23  25
ENDBRANCH   7  20
TORSDOF 5
ENDMDL
