MODEL 1
REMARK VINA RESULT:    -8.404      0.000      0.000
REMARK INTER + INTRA:         -11.756
REMARK INTER:                 -10.861
REMARK INTRA:                  -0.895
REMARK UNBOUND:                -0.895
REMARK  5 active torsions:
REMARK  status: ('A' for Active; 'I' for Inactive)
REMARK    1  A    between atoms: C17_7  and  C21_10 
REMARK    2  A    between atoms: C21_10  and  O27_12 
REMARK    3  A    between atoms: O27_12  and  C15_13 
REMARK    4  A    between atoms: C14_19  and  C16_20 
REMARK    5  A    between atoms: N26_23  and  C20_25 
ROOT
HETATM    1  C15   D T9000      -3.741   2.478  13.280  1.00 32.23     0.125 A 
HETATM    2  C4    D T9000      -2.753   1.657  13.934  1.00 32.87     0.029 A 
HETATM    3  C19   D T9000      -5.079   1.955  13.261  1.00 30.98     0.173 A 
HETATM    4  N22   D T9000      -6.098   2.706  12.643  1.00 26.96    -0.078 NA
HETATM    5  N23   D T9000      -5.443   0.769  13.810  1.00 30.39    -0.228 NA
HETATM    6  C5    D T9000      -4.484   0.014  14.421  1.00 33.14     0.100 A 
HETATM    7  C14   D T9000      -3.111   0.399  14.519  1.00 34.48     0.024 A 
ENDROOT
BRANCH   1   8
HETATM    8  O27   D T9000      -3.502   3.730  12.692  1.00 33.85    -0.326 OA
BRANCH   8   9
HETATM    9  C21   D T9000      -2.324   4.581  12.914  1.00 39.13     0.145 C 
HETATM   10  C1    D T9000      -2.838   6.032  12.875  1.00 37.31     0.038 C 
BRANCH   9  11
HETATM   11  C17   D T9000      -1.161   4.354  11.886  1.00 43.03     0.029 A 
HETATM   12  C13   D T9000      -1.353   4.730  10.488  1.00 43.22     0.057 A 
HETATM   13 CL     D T9000      -2.827   5.434   9.875  1.00 44.26    -0.083 Cl
HETATM   14  C3    D T9000      -0.305   4.526   9.542  1.00 43.32     0.013 A 
HETATM   15  C2    D T9000       0.934   3.961   9.935  1.00 42.25     0.031 A 
HETATM   16  C12   D T9000       1.167   3.580  11.284  1.00 45.15     0.150 A 
HETATM   17  F     D T9000       2.358   3.047  11.606  1.00 42.99    -0.203 F 
HETATM   18  C18   D T9000       0.134   3.767  12.277  1.00 44.96     0.084 A 
HETATM   19 CL2    D T9000       0.507   3.271  13.922  1.00 59.14    -0.080 Cl
ENDBRANCH   9  11
ENDBRANCH   8   9
ENDBRANCH   1   8
BRANCH   7  20
HETATM   20  C16   D T9000      -2.066  -0.468  15.210  1.00 36.37     0.041 A 
HETATM   21  C6    D T9000      -0.621  -0.490  14.968  1.00 37.83     0.122 A 
HETATM   22  N24   D T9000      -0.077  -1.357  15.749  1.00 39.52    -0.168 NA
HETATM   23  N26   D T9000      -0.977  -1.916  16.480  1.00 39.89    -0.252 N 
HETATM   24  C7    D T9000      -2.270  -1.419  16.211  1.00 38.44     0.097 A 
BRANCH  23  25
HETATM   25  C20   D T9000      -0.634  -2.960  17.481  1.00 45.76     0.110 C 
HETATM   26  C8    D T9000       0.721  -3.617  17.135  1.00 48.47     0.063 C 
HETATM   27  C10   D T9000       1.057  -4.697  18.192  1.00 51.46     0.292 C 
HETATM   28  N25   D T9000      -0.031  -5.709  18.331  1.00 52.65     0.339 N 
HETATM   29  C11   D T9000      -1.358  -5.096  18.623  1.00 50.34     0.292 C 
HETATM   30  C9    D T9000      -1.752  -4.031  17.574  1.00 49.34     0.063 C 
ENDBRANCH  23  25
ENDBRANCH   7  20
TORSDOF 5
ENDMDL
MODEL 2
REMARK VINA RESULT:    -8.266      2.038      2.805
REMARK INTER + INTRA:         -11.577
REMARK INTER:                 -10.726
REMARK INTRA:                  -0.851
REMARK UNBOUND:                -0.895
REMARK  5 active torsions:
REMARK  status: ('A' for Active; 'I' for Inactive)
REMARK    1  A    between atoms: C17_7  and  C21_10 
REMARK    2  A    between atoms: C21_10  and  O27_12 
REMARK    3  A    between atoms: O27_12  and  C15_13 
REMARK    4  A    between atoms: C14_19  and  C16_20 
REMARK    5  A    between atoms: N26_23  and  C20_25 
ROOT
HETATM    1  C15   D T9000      -2.002   1.956  14.301  1.00 32.23     0.125 A 
HETATM    2  C4    D T9000      -1.462   0.771  14.919  1.00 32.87     0.029 A 
HETATM    3  C19   D T9000      -3.433   1.998  14.169  1.00 30.98     0.173 A 
HETATM    4  N22   D T9000      -4.032   3.129  13.578  1.00 26.96    -0.078 NA
HETATM    5  N23   D T9000      -4.267   1.012  14.583  1.00 30.39    -0.228 NA
HETATM    6  C5    D T9000      -3.725  -0.097  15.163  1.00 33.14     0.100 A 
HETATM    7  C14   D T9000      -2.322  -0.286  15.362  1.00 34.48     0.024 A 
ENDROOT
BRANCH   1   8
HETATM    8  O27   D T9000      -1.254   3.053  13.848  1.00 33.85    -0.326 OA
BRANCH   8   9
HETATM    9  C21   D T9000       0.151   3.024  13.417  1.00 39.13     0.145 C 
HETATM   10  C1    D T9000       0.958   3.657  14.567  1.00 37.31     0.038 C 
BRANCH   9  11
HETATM   11  C17   D T9000       0.422   3.753  12.055  1.00 43.03     0.029 A 
HETATM   12  C13   D T9000       1.237   3.094  11.036  1.00 43.22     0.057 A 
HETATM   13 CL     D T9000       1.939   1.511  11.242  1.00 44.26    -0.083 Cl
HETATM   14  C3    D T9000       1.494   3.747   9.794  1.00 43.32     0.013 A 
HETATM   15  C2    D T9000       0.969   5.036   9.523  1.00 42.25     0.031 A 
HETATM   16  C12   D T9000       0.172   5.715  10.483  1.00 45.15     0.150 A 
HETATM   17  F     D T9000      -0.301   6.936  10.180  1.00 42.99    -0.203 F 
HETATM   18  C18   D T9000      -0.114   5.093  11.756  1.00 44.96     0.084 A 
HETATM   19 CL2    D T9000      -1.110   6.002  12.884  1.00 59.14    -0.080 Cl
ENDBRANCH   9  11
ENDBRANCH   8   9
ENDBRANCH   1   8
BRANCH   7  20
HETATM   20  C16   D T9000      -1.750  -1.539  16.015  1.00 36.37     0.041 A 
HETATM   21  C6    D T9000      -0.356  -1.989  16.014  1.00 37.83     0.122 A 
HETATM   22  N24   D T9000      -0.271  -3.093  16.672  1.00 39.52    -0.168 NA
HETATM   23  N26   D T9000      -1.432  -3.435  17.109  1.00 39.89    -0.252 N 
HETATM   24  C7    D T9000      -2.434  -2.512  16.743  1.00 38.44     0.097 A 
BRANCH  23  25
HETATM   25  C20   D T9000      -1.633  -4.673  17.907  1.00 45.76     0.110 C 
HETATM   26  C8    D T9000      -3.139  -4.925  18.145  1.00 48.47     0.063 C 
HETATM   27  C10   D T9000      -3.322  -6.220  18.974  1.00 51.46     0.292 C 
HETATM   28  N25   D T9000      -2.557  -6.183  20.255  1.00 52.65     0.339 N 
HETATM   29  C11   D T9000      -1.107  -5.898  20.055  1.00 50.34     0.292 C 
HETATM   30  C9    D T9000      -0.874  -4.594  19.257  1.00 49.34     0.063 C 
ENDBRANCH  23  25
ENDBRANCH   7  20
TORSDOF 5
ENDMDL
MODEL 3
REMARK VINA RESULT:    -8.053      1.928      2.459
REMARK INTER + INTRA:         -11.302
REMARK INTER:                 -10.559
REMARK INTRA:                  -0.743
REMARK UNBOUND:                -0.895
REMARK  5 active torsions:
REMARK  status: ('A' for Active; 'I' for Inactive)
REMARK    1  A    between atoms: C17_7  and  C21_10 
REMARK    2  A    between atoms: C21_10  and  O27_12 
REMARK    3  A    between atoms: O27_12  and  C15_13 
REMARK    4  A    between atoms: C14_19  and  C16_20 
REMARK    5  A    between atoms: N26_23  and  C20_25 
ROOT
HETATM    1  C15   D T9000      -1.937   1.913  14.220  1.00 32.23     0.125 A 
HETATM    2  C4    D T9000      -1.373   0.735  14.831  1.00 32.87     0.029 A 
HETATM    3  C19   D T9000      -3.372   1.976  14.186  1.00 30.98     0.173 A 
HETATM    4  N22   D T9000      -3.993   3.101  13.608  1.00 26.96    -0.078 NA
HETATM    5  N23   D T9000      -4.191   1.016  14.684  1.00 30.39    -0.228 NA
HETATM    6  C5    D T9000      -3.626  -0.087  15.256  1.00 33.14     0.100 A 
HETATM    7  C14   D T9000      -2.216  -0.295  15.362  1.00 34.48     0.024 A 
ENDROOT
BRANCH   1   8
HETATM    8  O27   D T9000      -1.205   2.984  13.685  1.00 33.85    -0.326 OA
BRANCH   8   9
HETATM    9  C21   D T9000       0.237   2.992  13.402  1.00 39.13     0.145 C 
HETATM   10  C1    D T9000       0.897   3.716  14.591  1.00 37.31     0.038 C 
BRANCH   9  11
HETATM   11  C17   D T9000       0.622   3.660  12.036  1.00 43.03     0.029 A 
HETATM   12  C13   D T9000       0.077   4.973  11.698  1.00 43.22     0.057 A 
HETATM   13 CL     D T9000      -0.997   5.866  12.743  1.00 44.26    -0.083 Cl
HETATM   14  C3    D T9000       0.416   5.590  10.458  1.00 43.32     0.013 A 
HETATM   15  C2    D T9000       1.282   4.951   9.535  1.00 42.25     0.031 A 
HETATM   16  C12   D T9000       1.836   3.674   9.821  1.00 45.15     0.150 A 
HETATM   17  F     D T9000       2.651   3.109   8.913  1.00 42.99    -0.203 F 
HETATM   18  C18   D T9000       1.520   3.010  11.064  1.00 44.96     0.084 A 
HETATM   19 CL2    D T9000       2.251   1.434  11.338  1.00 59.14    -0.080 Cl
ENDBRANCH   9  11
ENDBRANCH   8   9
ENDBRANCH   1   8
BRANCH   7  20
HETATM   20  C16   D T9000      -1.619  -1.539  16.008  1.00 36.37     0.041 A 
HETATM   21  C6    D T9000      -0.229  -1.995  15.951  1.00 37.83     0.122 A 
HETATM   22  N24   D T9000      -0.118  -3.089  16.622  1.00 39.52    -0.168 NA
HETATM   23  N26   D T9000      -1.259  -3.419  17.118  1.00 39.89    -0.252 N 
HETATM   24  C7    D T9000      -2.273  -2.498  16.783  1.00 38.44     0.097 A 
BRANCH  23  25
HETATM   25  C20   D T9000      -1.428  -4.643  17.944  1.00 45.76     0.110 C 
HETATM   26  C8    D T9000      -2.923  -5.012  18.065  1.00 48.47     0.063 C 
HETATM   27  C10   D T9000      -3.072  -6.291  18.926  1.00 51.46     0.292 C 
HETATM   28  N25   D T9000      -2.426  -6.149  20.264  1.00 52.65     0.339 N 
HETATM   29  C11   D T9000      -0.991  -5.750  20.174  1.00 50.34     0.292 C 
HETATM   30  C9    D T9000      -0.796  -4.458  19.348  1.00 49.34     0.063 C 
ENDBRANCH  23  25
ENDBRANCH   7  20
TORSDOF 5
ENDMDL
MODEL 4
REMARK VINA RESULT:    -7.990      2.073      2.953
REMARK INTER + INTRA:         -11.220
REMARK INTER:                 -10.360
REMARK INTRA:                  -0.860
REMARK UNBOUND:                -0.895
REMARK  5 active torsions:
REMARK  status: ('A' for Active; 'I' for Inactive)
REMARK    1  A    between atoms: C17_7  and  C21_10 
REMARK    2  A    between atoms: C21_10  and  O27_12 
REMARK    3  A    between atoms: O27_12  and  C15_13 
REMARK    4  A    between atoms: C14_19  and  C16_20 
REMARK    5  A    between atoms: N26_23  and  C20_25 
ROOT
HETATM    1  C15   D T9000      -1.797   1.795  14.416  1.00 32.23     0.125 A 
HETATM    2  C4    D T9000      -1.245   0.627  15.058  1.00 32.87     0.029 A 
HETATM    3  C19   D T9000      -3.223   1.798  14.239  1.00 30.98     0.173 A 
HETATM    4  N22   D T9000      -3.832   2.910  13.624  1.00 26.96    -0.078 NA
HETATM    5  N23   D T9000      -4.044   0.793  14.633  1.00 30.39    -0.228 NA
HETATM    6  C5    D T9000      -3.491  -0.299  15.237  1.00 33.14     0.100 A 
HETATM    7  C14   D T9000      -2.090  -0.450  15.480  1.00 34.48     0.024 A 
ENDROOT
BRANCH   1   8
HETATM    8  O27   D T9000      -1.063   2.909  13.980  1.00 33.85    -0.326 OA
BRANCH   8   9
HETATM    9  C21   D T9000       0.299   2.887  13.429  1.00 39.13     0.145 C 
HETATM   10  C1    D T9000       1.203   3.501  14.514  1.00 37.31     0.038 C 
BRANCH   9  11
HETATM   11  C17   D T9000       0.452   3.638  12.060  1.00 43.03     0.029 A 
HETATM   12  C13   D T9000       1.219   3.018  10.981  1.00 43.22     0.057 A 
HETATM   13 CL     D T9000       1.989   1.460  11.122  1.00 44.26    -0.083 Cl
HETATM   14  C3    D T9000       1.369   3.691   9.733  1.00 43.32     0.013 A 
HETATM   15  C2    D T9000       0.782   4.963   9.512  1.00 42.25     0.031 A 
HETATM   16  C12   D T9000       0.028   5.604  10.532  1.00 45.15     0.150 A 
HETATM   17  F     D T9000      -0.508   6.810  10.275  1.00 42.99    -0.203 F 
HETATM   18  C18   D T9000      -0.150   4.960  11.813  1.00 44.96     0.084 A 
HETATM   19 CL2    D T9000      -1.100   5.822  13.016  1.00 59.14    -0.080 Cl
ENDBRANCH   9  11
ENDBRANCH   8   9
ENDBRANCH   1   8
BRANCH   7  20
HETATM   20  C16   D T9000      -1.506  -1.683  16.158  1.00 36.37     0.041 A 
HETATM   21  C6    D T9000      -2.234  -2.762  16.829  1.00 37.83     0.122 A 
HETATM   22  N24   D T9000      -1.389  -3.625  17.277  1.00 39.52    -0.168 NA
HETATM   23  N26   D T9000      -0.190  -3.255  16.989  1.00 39.89    -0.252 N 
HETATM   24  C7    D T9000      -0.162  -2.036  16.281  1.00 38.44     0.097 A 
BRANCH  23  25
HETATM   25  C20   D T9000       0.993  -4.065  17.383  1.00 45.76     0.110 C 
HETATM   26  C8    D T9000       2.244  -3.168  17.513  1.00 48.47     0.063 C 
HETATM   27  C10   D T9000       3.459  -4.033  17.927  1.00 51.46     0.292 C 
HETATM   28  N25   D T9000       3.689  -5.170  16.989  1.00 52.65     0.339 N 
HETATM   29  C11   D T9000       2.480  -6.027  16.812  1.00 50.34     0.292 C 
HETATM   30  C9    D T9000       1.246  -5.210  16.368  1.00 49.34     0.063 C 
ENDBRANCH  23  25
ENDBRANCH   7  20
TORSDOF 5
ENDMDL
MODEL 5
REMARK VINA RESULT:    -7.926      4.914      7.196
REMARK INTER + INTRA:         -11.137
REMARK INTER:                 -10.727
REMARK INTRA:                  -0.410
REMARK UNBOUND:                -0.895
REMARK  5 active torsions:
REMARK  status: ('A' for Active; 'I' for Inactive)
REMARK    1  A    between atoms: C17_7  and  C21_10 
REMARK    2  A    between atoms: C21_10  and  O27_12 
REMARK    3  A    between atoms: O27_12  and  C15_13 
REMARK    4  A    between atoms: C14_19  and  C16_20 
REMARK    5  A    between atoms: N26_23  and  C20_25 
ROOT
HETATM    1  C15   D T9000       0.306   4.027  11.821  1.00 32.23     0.125 A 
HETATM    2  C4    D T9000       1.196   2.904  11.978  1.00 32.87     0.029 A 
HETATM    3  C19   D T9000       0.517   4.835  10.651  1.00 30.98     0.173 A 
HETATM    4  N22   D T9000      -0.320   5.947  10.429  1.00 26.96    -0.078 NA
HETATM    5  N23   D T9000       1.478   4.600   9.724  1.00 30.39    -0.228 NA
HETATM    6  C5    D T9000       2.305   3.530   9.902  1.00 33.14     0.100 A 
HETATM    7  C14   D T9000       2.222   2.636  11.015  1.00 34.48     0.024 A 
ENDROOT
BRANCH   1   8
HETATM    8  O27   D T9000      -0.739   4.369  12.693  1.00 33.85    -0.326 OA
BRANCH   8   9
HETATM    9  C21   D T9000      -2.173   4.362  12.372  1.00 39.13     0.145 C 
HETATM   10  C1    D T9000      -2.742   5.670  12.954  1.00 37.31     0.038 C 
BRANCH   9  11
HETATM   11  C17   D T9000      -2.948   3.109  12.910  1.00 43.03     0.029 A 
HETATM   12  C13   D T9000      -4.221   2.733  12.300  1.00 43.22     0.057 A 
HETATM   13 CL     D T9000      -4.949   3.609  10.979  1.00 44.26    -0.083 Cl
HETATM   14  C3    D T9000      -4.937   1.598  12.781  1.00 43.32     0.013 A 
HETATM   15  C2    D T9000      -4.434   0.815  13.850  1.00 42.25     0.031 A 
HETATM   16  C12   D T9000      -3.200   1.141  14.474  1.00 45.15     0.150 A 
HETATM   17  F     D T9000      -2.766   0.369  15.485  1.00 42.99    -0.203 F 
HETATM   18  C18   D T9000      -2.440   2.284  14.021  1.00 44.96     0.084 A 
HETATM   19 CL2    D T9000      -0.923   2.614  14.847  1.00 59.14    -0.080 Cl
ENDBRANCH   9  11
ENDBRANCH   8   9
ENDBRANCH   1   8
BRANCH   7  20
HETATM   20  C16   D T9000       3.162   1.449  11.183  1.00 36.37     0.041 A 
HETATM   21  C6    D T9000       3.312   0.587  12.357  1.00 37.83     0.122 A 
HETATM   22  N24   D T9000       4.208  -0.305  12.113  1.00 39.52    -0.168 NA
HETATM   23  N26   D T9000       4.674  -0.145  10.924  1.00 39.89    -0.252 N 
HETATM   24  C7    D T9000       4.073   0.942  10.255  1.00 38.44     0.097 A 
BRANCH  23  25
HETATM   25  C20   D T9000       5.725  -1.038  10.370  1.00 45.76     0.110 C 
HETATM   26  C8    D T9000       5.966  -2.240  11.311  1.00 48.47     0.063 C 
HETATM   27  C10   D T9000       7.061  -3.155  10.711  1.00 51.46     0.292 C 
HETATM   28  N25   D T9000       8.324  -2.413  10.426  1.00 52.65     0.339 N 
HETATM   29  C11   D T9000       8.110  -1.222   9.553  1.00 50.34     0.292 C 
HETATM   30  C9    D T9000       7.046  -0.261  10.128  1.00 49.34     0.063 C 
ENDBRANCH  23  25
ENDBRANCH   7  20
TORSDOF 5
ENDMDL
MODEL 6
REMARK VINA RESULT:    -7.451      5.202     10.809
REMARK INTER + INTRA:         -10.523
REMARK INTER:                  -9.730
REMARK INTRA:                  -0.793
REMARK UNBOUND:                -0.895
REMARK  5 active torsions:
REMARK  status: ('A' for Active; 'I' for Inactive)
REMARK    1  A    between atoms: C17_7  and  C21_10 
REMARK    2  A    between atoms: C21_10  and  O27_12 
REMARK    3  A    between atoms: O27_12  and  C15_13 
REMARK    4  A    between atoms: C14_19  and  C16_20 
REMARK    5  A    between atoms: N26_23  and  C20_25 
ROOT
HETATM    1  C15   D T9000      -1.862  -3.331  17.362  1.00 32.23     0.125 A 
HETATM    2  C4    D T9000      -2.566  -2.205  16.800  1.00 32.87     0.029 A 
HETATM    3  C19   D T9000      -0.527  -3.542  16.876  1.00 30.98     0.173 A 
HETATM    4  N22   D T9000       0.223  -4.621  17.385  1.00 26.96    -0.078 NA
HETATM    5  N23   D T9000       0.080  -2.761  15.948  1.00 30.39    -0.228 NA
HETATM    6  C5    D T9000      -0.613  -1.704  15.434  1.00 33.14     0.100 A 
HETATM    7  C14   D T9000      -1.949  -1.367  15.816  1.00 34.48     0.024 A 
ENDROOT
BRANCH   1   8
HETATM    8  O27   D T9000      -2.366  -4.203  18.340  1.00 33.85    -0.326 OA
BRANCH   8   9
HETATM    9  C21   D T9000      -3.196  -5.391  18.096  1.00 39.13     0.145 C 
HETATM   10  C1    D T9000      -4.645  -4.880  17.986  1.00 37.31     0.038 C 
BRANCH   9  11
HETATM   11  C17   D T9000      -3.061  -6.507  19.190  1.00 43.03     0.029 A 
HETATM   12  C13   D T9000      -2.758  -7.878  18.787  1.00 43.22     0.057 A 
HETATM   13 CL     D T9000      -2.527  -8.363  17.128  1.00 44.26    -0.083 Cl
HETATM   14  C3    D T9000      -2.636  -8.902  19.772  1.00 43.32     0.013 A 
HETATM   15  C2    D T9000      -2.803  -8.616  21.150  1.00 42.25     0.031 A 
HETATM   16  C12   D T9000      -3.099  -7.297  21.589  1.00 45.15     0.150 A 
HETATM   17  F     D T9000      -3.250  -7.076  22.907  1.00 42.99    -0.203 F 
HETATM   18  C18   D T9000      -3.233  -6.227  20.628  1.00 44.96     0.084 A 
HETATM   19 CL2    D T9000      -3.597  -4.626  21.258  1.00 59.14    -0.080 Cl
ENDBRANCH   9  11
ENDBRANCH   8   9
ENDBRANCH   1   8
BRANCH   7  20
HETATM   20  C16   D T9000      -2.694  -0.178  15.223  1.00 36.37     0.041 A 
HETATM   21  C6    D T9000      -4.139   0.059  15.218  1.00 37.83     0.122 A 
HETATM   22  N24   D T9000      -4.381   1.174  14.620  1.00 39.52    -0.168 NA
HETATM   23  N26   D T9000      -3.278   1.709  14.227  1.00 39.89    -0.252 N 
HETATM   24  C7    D T9000      -2.154   0.926  14.562  1.00 38.44     0.097 A 
BRANCH  23  25
HETATM   25  C20   D T9000      -3.254   3.009  13.506  1.00 45.76     0.110 C 
HETATM   26  C8    D T9000      -4.045   2.909  12.182  1.00 48.47     0.063 C 
HETATM   27  C10   D T9000      -4.008   4.275  11.454  1.00 51.46     0.292 C 
HETATM   28  N25   D T9000      -2.614   4.759  11.232  1.00 52.65     0.339 N 
HETATM   29  C11   D T9000      -1.816   4.823  12.491  1.00 50.34     0.292 C 
HETATM   30  C9    D T9000      -1.798   3.471  13.239  1.00 49.34     0.063 C 
ENDBRANCH  23  25
ENDBRANCH   7  20
TORSDOF 5
ENDMDL
MODEL 7
REMARK VINA RESULT:    -7.341      2.102      2.721
REMARK INTER + INTRA:         -10.382
REMARK INTER:                  -9.612
REMARK INTRA:                  -0.769
REMARK UNBOUND:                -0.895
REMARK  5 active torsions:
REMARK  status: ('A' for Active; 'I' for Inactive)
REMARK    1  A    between atoms: C17_7  and  C21_10 
REMARK    2  A    between atoms: C21_10  and  O27_12 
REMARK    3  A    between atoms: O27_12  and  C15_13 
REMARK    4  A    between atoms: C14_19  and  C16_20 
REMARK    5  A    between atoms: N26_23  and  C20_25 
ROOT
HETATM    1  C15   D T9000      -1.697   1.472  14.250  1.00 32.23     0.125 A 
HETATM    2  C4    D T9000      -1.301   0.250  14.904  1.00 32.87     0.029 A 
HETATM    3  C19   D T9000      -3.088   1.816  14.352  1.00 30.98     0.173 A 
HETATM    4  N22   D T9000      -3.546   3.001  13.741  1.00 26.96    -0.078 NA
HETATM    5  N23   D T9000      -4.012   1.073  15.010  1.00 30.39    -0.228 NA
HETATM    6  C5    D T9000      -3.606  -0.080  15.618  1.00 33.14     0.100 A 
HETATM    7  C14   D T9000      -2.258  -0.555  15.603  1.00 34.48     0.024 A 
ENDROOT
BRANCH   1   8
HETATM    8  O27   D T9000      -0.840   2.340  13.555  1.00 33.85    -0.326 OA
BRANCH   8   9
HETATM    9  C21   D T9000       0.626   2.373  13.654  1.00 39.13     0.145 C 
HETATM   10  C1    D T9000       0.956   3.485  14.667  1.00 37.31     0.038 C 
BRANCH   9  11
HETATM   11  C17   D T9000       1.359   2.605  12.286  1.00 43.03     0.029 A 
HETATM   12  C13   D T9000       0.897   3.664  11.392  1.00 43.22     0.057 A 
HETATM   13 CL     D T9000      -0.445   4.715  11.760  1.00 44.26    -0.083 Cl
HETATM   14  C3    D T9000       1.553   3.884  10.145  1.00 43.32     0.013 A 
HETATM   15  C2    D T9000       2.657   3.087   9.749  1.00 42.25     0.031 A 
HETATM   16  C12   D T9000       3.141   2.045  10.585  1.00 45.15     0.150 A 
HETATM   17  F     D T9000       4.189   1.316  10.165  1.00 42.99    -0.203 F 
HETATM   18  C18   D T9000       2.507   1.786  11.858  1.00 44.96     0.084 A 
HETATM   19 CL2    D T9000       3.171   0.480  12.830  1.00 59.14    -0.080 Cl
ENDBRANCH   9  11
ENDBRANCH   8   9
ENDBRANCH   1   8
BRANCH   7  20
HETATM   20  C16   D T9000      -1.838  -1.847  16.294  1.00 36.37     0.041 A 
HETATM   21  C6    D T9000      -2.702  -2.826  16.956  1.00 37.83     0.122 A 
HETATM   22  N24   D T9000      -1.975  -3.783  17.420  1.00 39.52    -0.168 NA
HETATM   23  N26   D T9000      -0.736  -3.563  17.149  1.00 39.89    -0.252 N 
HETATM   24  C7    D T9000      -0.549  -2.360  16.438  1.00 38.44     0.097 A 
BRANCH  23  25
HETATM   25  C20   D T9000       0.334  -4.509  17.564  1.00 45.76     0.110 C 
HETATM   26  C8    D T9000       1.185  -4.931  16.346  1.00 48.47     0.063 C 
HETATM   27  C10   D T9000       2.293  -5.911  16.804  1.00 51.46     0.292 C 
HETATM   28  N25   D T9000       1.738  -7.092  17.528  1.00 52.65     0.339 N 
HETATM   29  C11   D T9000       0.876  -6.709  18.684  1.00 50.34     0.292 C 
HETATM   30  C9    D T9000      -0.266  -5.753  18.268  1.00 49.34     0.063 C 
ENDBRANCH  23  25
ENDBRANCH   7  20
TORSDOF 5
ENDMDL
MODEL 8
REMARK VINA RESULT:    -7.310      4.249      7.223
REMARK INTER + INTRA:         -10.341
REMARK INTER:                  -9.578
REMARK INTRA:                  -0.763
REMARK UNBOUND:                -0.895
REMARK  5 active torsions:
REMARK  status: ('A' for Active; 'I' for Inactive)
REMARK    1  A    between atoms: C17_7  and  C21_10 
REMARK    2  A    between atoms: C21_10  and  O27_12 
REMARK    3  A    between atoms: O27_12  and  C15_13 
REMARK    4  A    between atoms: C14_19  and  C16_20 
REMARK    5  A    between atoms: N26_23  and  C20_25 
ROOT
HETATM    1  C15   D T9000      -0.891  -2.924  16.947  1.00 32.23     0.125 A 
HETATM    2  C4    D T9000      -2.111  -3.567  17.366  1.00 32.87     0.029 A 
HETATM    3  C19   D T9000       0.326  -3.488  17.464  1.00 30.98     0.173 A 
HETATM    4  N22   D T9000       1.558  -2.914  17.093  1.00 26.96    -0.078 NA
HETATM    5  N23   D T9000       0.377  -4.557  18.297  1.00 30.39    -0.228 NA
HETATM    6  C5    D T9000      -0.795  -5.143  18.677  1.00 33.14     0.100 A 
HETATM    7  C14   D T9000      -2.084  -4.695  18.248  1.00 34.48     0.024 A 
ENDROOT
BRANCH   1   8
HETATM    8  O27   D T9000      -0.804  -1.827  16.076  1.00 33.85    -0.326 OA
BRANCH   8   9
HETATM    9  C21   D T9000      -1.748  -1.499  14.999  1.00 39.13     0.145 C 
HETATM   10  C1    D T9000      -1.319  -2.348  13.788  1.00 37.31     0.038 C 
BRANCH   9  11
HETATM   11  C17   D T9000      -1.811   0.026  14.639  1.00 43.03     0.029 A 
HETATM   12  C13   D T9000      -0.570   0.770  14.434  1.00 43.22     0.057 A 
HETATM   13 CL     D T9000       1.013   0.051  14.565  1.00 44.26    -0.083 Cl
HETATM   14  C3    D T9000      -0.613   2.158  14.109  1.00 43.32     0.013 A 
HETATM   15  C2    D T9000      -1.849   2.840  13.977  1.00 42.25     0.031 A 
HETATM   16  C12   D T9000      -3.082   2.158  14.167  1.00 45.15     0.150 A 
HETATM   17  F     D T9000      -4.227   2.849  14.032  1.00 42.99    -0.203 F 
HETATM   18  C18   D T9000      -3.087   0.752  14.498  1.00 44.96     0.084 A 
HETATM   19 CL2    D T9000      -4.656  -0.013  14.712  1.00 59.14    -0.080 Cl
ENDBRANCH   9  11
ENDBRANCH   8   9
ENDBRANCH   1   8
BRANCH   7  20
HETATM   20  C16   D T9000      -3.374  -5.374  18.691  1.00 36.37     0.041 A 
HETATM   21  C6    D T9000      -4.746  -4.902  18.490  1.00 37.83     0.122 A 
HETATM   22  N24   D T9000      -5.563  -5.752  19.008  1.00 39.52    -0.168 NA
HETATM   23  N26   D T9000      -4.908  -6.731  19.529  1.00 39.89    -0.252 N 
HETATM   24  C7    D T9000      -3.514  -6.580  19.378  1.00 38.44     0.097 A 
BRANCH  23  25
HETATM   25  C20   D T9000      -5.598  -7.864  20.198  1.00 45.76     0.110 C 
HETATM   26  C8    D T9000      -4.878  -9.196  19.886  1.00 48.47     0.063 C 
HETATM   27  C10   D T9000      -5.613 -10.359  20.597  1.00 51.46     0.292 C 
HETATM   28  N25   D T9000      -7.060 -10.415  20.239  1.00 52.65     0.339 N 
HETATM   29  C11   D T9000      -7.768  -9.126  20.491  1.00 50.34     0.292 C 
HETATM   30  C9    D T9000      -7.088  -7.938  19.774  1.00 49.34     0.063 C 
ENDBRANCH  23  25
ENDBRANCH   7  20
TORSDOF 5
ENDMDL
MODEL 9
REMARK VINA RESULT:    -7.305      4.015      7.476
REMARK INTER + INTRA:         -10.334
REMARK INTER:                  -9.837
REMARK INTRA:                  -0.497
REMARK UNBOUND:                -0.895
REMARK  5 active torsions:
REMARK  status: ('A' for Active; 'I' for Inactive)
REMARK    1  A    between atoms: C17_7  and  C21_10 
REMARK    2  A    between atoms: C21_10  and  O27_12 
REMARK    3  A    between atoms: O27_12  and  C15_13 
REMARK    4  A    between atoms: C14_19  and  C16_20 
REMARK    5  A    between atoms: N26_23  and  C20_25 
ROOT
HETATM    1  C15   D T9000       3.113   4.667  11.426  1.00 32.23     0.125 A 
HETATM    2  C4    D T9000       1.821   4.371  11.995  1.00 32.87     0.029 A 
HETATM    3  C19   D T9000       3.141   5.721  10.450  1.00 30.98     0.173 A 
HETATM    4  N22   D T9000       4.371   6.068   9.855  1.00 26.96    -0.078 NA
HETATM    5  N23   D T9000       2.052   6.424  10.052  1.00 30.39    -0.228 NA
HETATM    6  C5    D T9000       0.843   6.119  10.608  1.00 33.14     0.100 A 
HETATM    7  C14   D T9000       0.654   5.097  11.590  1.00 34.48     0.024 A 
ENDROOT
BRANCH   1   8
HETATM    8  O27   D T9000       4.317   4.031  11.763  1.00 33.85    -0.326 OA
BRANCH   8   9
HETATM    9  C21   D T9000       4.547   2.580  11.807  1.00 39.13     0.145 C 
HETATM   10  C1    D T9000       4.304   2.070  10.374  1.00 37.31     0.038 C 
BRANCH   9  11
HETATM   11  C17   D T9000       3.656   1.817  12.848  1.00 43.03     0.029 A 
HETATM   12  C13   D T9000       4.064   1.773  14.250  1.00 43.22     0.057 A 
HETATM   13 CL     D T9000       5.512   2.535  14.854  1.00 44.26    -0.083 Cl
HETATM   14  C3    D T9000       3.265   1.080  15.206  1.00 43.32     0.013 A 
HETATM   15  C2    D T9000       2.066   0.426  14.822  1.00 42.25     0.031 A 
HETATM   16  C12   D T9000       1.629   0.443  13.470  1.00 45.15     0.150 A 
HETATM   17  F     D T9000       0.487  -0.193  13.155  1.00 42.99    -0.203 F 
HETATM   18  C18   D T9000       2.408   1.132  12.466  1.00 44.96     0.084 A 
HETATM   19 CL2    D T9000       1.792   1.104  10.819  1.00 59.14    -0.080 Cl
ENDBRANCH   9  11
ENDBRANCH   8   9
ENDBRANCH   1   8
BRANCH   7  20
HETATM   20  C16   D T9000      -0.711   4.783  12.191  1.00 36.37     0.041 A 
HETATM   21  C6    D T9000      -1.855   5.686  12.328  1.00 37.83     0.122 A 
HETATM   22  N24   D T9000      -2.827   5.052  12.886  1.00 39.52    -0.168 NA
HETATM   23  N26   D T9000      -2.473   3.840  13.138  1.00 39.89    -0.252 N 
HETATM   24  C7    D T9000      -1.148   3.574  12.734  1.00 38.44     0.097 A 
BRANCH  23  25
HETATM   25  C20   D T9000      -3.401   2.873  13.782  1.00 45.76     0.110 C 
HETATM   26  C8    D T9000      -2.609   1.732  14.459  1.00 48.47     0.063 C 
HETATM   27  C10   D T9000      -3.596   0.742  15.125  1.00 51.46     0.292 C 
HETATM   28  N25   D T9000      -4.608   0.219  14.160  1.00 52.65     0.339 N 
HETATM   29  C11   D T9000      -5.356   1.304  13.462  1.00 50.34     0.292 C 
HETATM   30  C9    D T9000      -4.411   2.301  12.754  1.00 49.34     0.063 C 
ENDBRANCH  23  25
ENDBRANCH   7  20
TORSDOF 5
ENDMDL
