MODEL 1
REMARK VINA RESULT:    -8.351      0.000      0.000
REMARK INTER + INTRA:         -13.024
REMARK INTER:                 -11.768
REMARK INTRA:                  -1.255
REMARK UNBOUND:                -1.255
REMARK  7 active torsions:
REMARK  status: ('A' for Active; 'I' for Inactive)
REMARK    1  A    between atoms: C22_10  and  C19_16 
REMARK       I    between atoms: C22_10  and  N25_19 
REMARK    2  A    between atoms: C12_12  and  C18_15 
REMARK    3  A    between atoms: N25_19  and  C37_23 
REMARK    4  A    between atoms: C37_23  and  C38_24 
REMARK    5  A    between atoms: C38_24  and  N4_25 
REMARK    6  A    between atoms: N4_25  and  C39_26 
REMARK    7  A    between atoms: N4_25  and  C40_27 
ROOT
HETATM    1  C4    D T1294       9.044  12.692   2.255  1.00 32.29     0.052 C 
HETATM    2  C13   D T1294       5.888  10.998   3.428  1.00 33.66     0.002 A 
HETATM    3  C3    D T1294       4.832  10.046   4.010  1.00 26.27     0.033 C 
HETATM    4  C14   D T1294       7.688  12.201   2.623  1.00 36.57     0.064 A 
HETATM    5  C18   D T1294       5.499  12.199   2.755  1.00 31.41     0.077 A 
HETATM    6  C19   D T1294       7.280  10.971   3.301  1.00 39.79     0.069 A 
HETATM    7  N23   D T1294       6.588  12.861   2.347  1.00 32.77    -0.250 NA
ENDROOT
BRANCH   5   8
HETATM    8  C12   D T1294       4.009  12.614   2.499  1.00 29.19     0.024 C 
HETATM    9  C20   D T1294       3.335  12.675   1.275  1.00 28.62     0.061 A 
HETATM   10  C17   D T1294       1.973  13.004   1.174  1.00 28.15     0.025 A 
HETATM   11  C21   D T1294       3.754  12.435  -0.083  1.00 24.63     0.279 A 
HETATM   12  C7    D T1294       1.031  13.320   2.194  1.00 25.53     0.031 A 
HETATM   13  C16   D T1294       1.599  12.959  -0.229  1.00 25.62     0.085 A 
HETATM   14  C15   D T1294      -0.291  13.590   1.798  1.00 28.19     0.140 A 
HETATM   15  C5    D T1294      -0.732  13.543   0.386  1.00 25.66     0.031 A 
HETATM   16  F29   D T1294      -1.146  13.880   2.665  1.00 36.26    -0.204 F 
HETATM   17  C6    D T1294       0.155  13.279  -0.600  1.00 26.69     0.021 A 
HETATM   18  N24   D T1294       2.736  12.602  -1.021  1.00 23.74    -0.208 NA
HETATM   19  O27   D T1294       4.861  12.172  -0.394  1.00 23.40    -0.265 OA
ENDBRANCH   5   8
BRANCH   6  20
HETATM   20  C22   D T1294       8.252   9.974   3.704  1.00 51.05     0.280 C 
HETATM   21  N25   D T1294       8.699  10.122   4.951  1.00 55.83    -0.209 NA
HETATM   22  O28   D T1294       8.602   9.052   3.028  1.00 56.66    -0.265 OA
BRANCH  21  23
HETATM   23  C37   D T1294       9.617   9.282   5.568  1.00 58.65     0.101 C 
BRANCH  23  24
HETATM   24  C38   D T1294      10.584  10.246   6.235  1.00 62.48     0.153 C 
BRANCH  24  25
HETATM   25  N4    D T1294      11.937  10.547   5.628  1.00 67.11    -0.327 N 
BRANCH  25  26
HETATM   26  C39   D T1294      12.303  12.008   6.068  1.00 68.16     0.049 C 
HETATM   27  C42   D T1294      11.524  13.329   5.585  1.00 67.52     0.051 C 
ENDBRANCH  25  26
BRANCH  25  28
HETATM   28  C40   D T1294      12.264   9.920   4.136  1.00 67.42     0.049 C 
HETATM   29  C41   D T1294      12.034  10.533   2.732  1.00 66.32     0.051 C 
ENDBRANCH  25  28
ENDBRANCH  24  25
ENDBRANCH  23  24
ENDBRANCH  21  23
ENDBRANCH   6  20
TORSDOF 7
ENDMDL
MODEL 2
REMARK VINA RESULT:    -8.034      5.011      8.526
REMARK INTER + INTRA:         -12.577
REMARK INTER:                 -11.542
REMARK INTRA:                  -1.035
REMARK UNBOUND:                -1.255
REMARK  7 active torsions:
REMARK  status: ('A' for Active; 'I' for Inactive)
REMARK    1  A    between atoms: C22_10  and  C19_16 
REMARK       I    between atoms: C22_10  and  N25_19 
REMARK    2  A    between atoms: C12_12  and  C18_15 
REMARK    3  A    between atoms: N25_19  and  C37_23 
REMARK    4  A    between atoms: C37_23  and  C38_24 
REMARK    5  A    between atoms: C38_24  and  N4_25 
REMARK    6  A    between atoms: N4_25  and  C39_26 
REMARK    7  A    between atoms: N4_25  and  C40_27 
ROOT
HETATM    1  C4    D T1294       2.602  17.899  -2.663  1.00 32.29     0.052 C 
HETATM    2  C13   D T1294       4.613  14.740  -2.235  1.00 33.66     0.002 A 
HETATM    3  C3    D T1294       5.605  13.573  -2.357  1.00 26.27     0.033 C 
HETATM    4  C14   D T1294       3.251  16.604  -2.321  1.00 36.57     0.064 A 
HETATM    5  C18   D T1294       3.576  14.719  -1.249  1.00 31.41     0.077 A 
HETATM    6  C19   D T1294       4.377  15.916  -2.953  1.00 39.79     0.069 A 
HETATM    7  N23   D T1294       2.850  15.840  -1.332  1.00 32.77    -0.250 NA
ENDROOT
BRANCH   5   8
HETATM    8  C12   D T1294       3.322  13.519  -0.273  1.00 29.19     0.024 C 
HETATM    9  C20   D T1294       4.099  13.125   0.821  1.00 28.62     0.061 A 
HETATM   10  C17   D T1294       3.736  12.063   1.667  1.00 28.15     0.025 A 
HETATM   11  C21   D T1294       5.335  13.622   1.370  1.00 24.63     0.279 A 
HETATM   12  C7    D T1294       2.596  11.211   1.627  1.00 25.53     0.031 A 
HETATM   13  C16   D T1294       4.751  11.939   2.698  1.00 25.62     0.085 A 
HETATM   14  C15   D T1294       2.479  10.233   2.630  1.00 28.19     0.140 A 
HETATM   15  C5    D T1294       3.473  10.071   3.713  1.00 25.66     0.031 A 
HETATM   16  F29   D T1294       1.494   9.460   2.623  1.00 36.26    -0.204 F 
HETATM   17  C6    D T1294       4.579  10.847   3.749  1.00 26.69     0.021 A 
HETATM   18  N24   D T1294       5.765  12.928   2.500  1.00 23.74    -0.208 NA
HETATM   19  O27   D T1294       5.963  14.498   0.891  1.00 23.40    -0.265 OA
ENDBRANCH   5   8
BRANCH   6  20
HETATM   20  C22   D T1294       5.033  16.462  -4.125  1.00 51.05     0.280 C 
HETATM   21  N25   D T1294       5.287  15.561  -5.075  1.00 55.83    -0.209 NA
HETATM   22  O28   D T1294       5.288  17.618  -4.288  1.00 56.66    -0.265 OA
BRANCH  21  23
HETATM   23  C37   D T1294       5.889  15.844  -6.294  1.00 58.65     0.101 C 
BRANCH  23  24
HETATM   24  C38   D T1294       7.221  15.120  -6.205  1.00 62.48     0.153 C 
BRANCH  24  25
HETATM   25  N4    D T1294       8.408  15.742  -5.503  1.00 67.11    -0.327 N 
BRANCH  25  26
HETATM   26  C39   D T1294       9.563  15.811  -6.563  1.00 68.16     0.049 C 
HETATM   27  C42   D T1294       9.342  15.798  -8.155  1.00 67.52     0.051 C 
ENDBRANCH  25  26
BRANCH  25  28
HETATM   28  C40   D T1294       8.635  15.375  -3.909  1.00 67.42     0.049 C 
HETATM   29  C41   D T1294       8.425  16.254  -2.650  1.00 66.32     0.051 C 
ENDBRANCH  25  28
ENDBRANCH  24  25
ENDBRANCH  23  24
ENDBRANCH  21  23
ENDBRANCH   6  20
TORSDOF 7
ENDMDL
MODEL 3
REMARK VINA RESULT:    -7.799      2.465      4.033
REMARK INTER + INTRA:         -12.246
REMARK INTER:                 -11.356
REMARK INTRA:                  -0.891
REMARK UNBOUND:                -1.255
REMARK  7 active torsions:
REMARK  status: ('A' for Active; 'I' for Inactive)
REMARK    1  A    between atoms: C22_10  and  C19_16 
REMARK       I    between atoms: C22_10  and  N25_19 
REMARK    2  A    between atoms: C12_12  and  C18_15 
REMARK    3  A    between atoms: N25_19  and  C37_23 
REMARK    4  A    between atoms: C37_23  and  C38_24 
REMARK    5  A    between atoms: C38_24  and  N4_25 
REMARK    6  A    between atoms: N4_25  and  C39_26 
REMARK    7  A    between atoms: N4_25  and  C40_27 
ROOT
HETATM    1  C4    D T1294       5.093  11.023   4.019  1.00 32.29     0.052 C 
HETATM    2  C13   D T1294       4.208  12.618   0.720  1.00 33.66     0.002 A 
HETATM    3  C3    D T1294       4.198  13.364  -0.623  1.00 26.27     0.033 C 
HETATM    4  C14   D T1294       4.527  11.588   2.763  1.00 36.57     0.064 A 
HETATM    5  C18   D T1294       2.996  12.100   1.279  1.00 31.41     0.077 A 
HETATM    6  C19   D T1294       5.177  12.337   1.688  1.00 39.79     0.069 A 
HETATM    7  N23   D T1294       3.259  11.488   2.439  1.00 32.77    -0.250 NA
ENDROOT
BRANCH   5   8
HETATM    8  C12   D T1294       1.583  12.292   0.630  1.00 29.19     0.024 C 
HETATM    9  C20   D T1294       0.477  12.961   1.166  1.00 28.62     0.061 A 
HETATM   10  C17   D T1294      -0.727  13.124   0.462  1.00 28.15     0.025 A 
HETATM   11  C21   D T1294       0.255  13.624   2.426  1.00 24.63     0.279 A 
HETATM   12  C7    D T1294      -1.085  12.694  -0.848  1.00 25.53     0.031 A 
HETATM   13  C16   D T1294      -1.646  13.872   1.302  1.00 25.62     0.085 A 
HETATM   14  C15   D T1294      -2.372  13.021  -1.311  1.00 28.19     0.140 A 
HETATM   15  C5    D T1294      -3.343  13.794  -0.505  1.00 25.66     0.031 A 
HETATM   16  F29   D T1294      -2.727  12.653  -2.454  1.00 36.26    -0.204 F 
HETATM   17  C6    D T1294      -3.035  14.181   0.753  1.00 26.69     0.021 A 
HETATM   18  N24   D T1294      -1.017  14.181   2.549  1.00 23.74    -0.208 NA
HETATM   19  O27   D T1294       1.045  13.657   3.302  1.00 23.40    -0.265 OA
ENDBRANCH   5   8
BRANCH   6  20
HETATM   20  C22   D T1294       6.584  12.677   1.749  1.00 51.05     0.280 C 
HETATM   21  N25   D T1294       7.395  11.730   1.275  1.00 55.83    -0.209 NA
HETATM   22  O28   D T1294       7.017  13.725   2.129  1.00 56.66    -0.265 OA
BRANCH  21  23
HETATM   23  C37   D T1294       8.778  11.830   1.209  1.00 58.65     0.101 C 
BRANCH  23  24
HETATM   24  C38   D T1294       9.257  10.590   1.945  1.00 62.48     0.153 C 
BRANCH  24  25
HETATM   25  N4    D T1294       9.929  10.690   3.297  1.00 67.11    -0.327 N 
BRANCH  25  26
HETATM   26  C39   D T1294       9.072   9.819   4.282  1.00 68.16     0.049 C 
HETATM   27  C42   D T1294       9.655   9.063   5.575  1.00 67.52     0.051 C 
ENDBRANCH  25  26
BRANCH  25  28
HETATM   28  C40   D T1294      10.627  12.130   3.702  1.00 67.42     0.049 C 
HETATM   29  C41   D T1294      12.016  12.700   3.320  1.00 66.32     0.051 C 
ENDBRANCH  25  28
ENDBRANCH  24  25
ENDBRANCH  23  24
ENDBRANCH  21  23
ENDBRANCH   6  20
TORSDOF 7
ENDMDL
MODEL 4
REMARK VINA RESULT:    -7.771      5.573      8.546
REMARK INTER + INTRA:         -12.206
REMARK INTER:                 -11.176
REMARK INTRA:                  -1.030
REMARK UNBOUND:                -1.255
REMARK  7 active torsions:
REMARK  status: ('A' for Active; 'I' for Inactive)
REMARK    1  A    between atoms: C22_10  and  C19_16 
REMARK       I    between atoms: C22_10  and  N25_19 
REMARK    2  A    between atoms: C12_12  and  C18_15 
REMARK    3  A    between atoms: N25_19  and  C37_23 
REMARK    4  A    between atoms: C37_23  and  C38_24 
REMARK    5  A    between atoms: C38_24  and  N4_25 
REMARK    6  A    between atoms: N4_25  and  C39_26 
REMARK    7  A    between atoms: N4_25  and  C40_27 
ROOT
HETATM    1  C4    D T1294       3.078  17.815  -3.137  1.00 32.29     0.052 C 
HETATM    2  C13   D T1294       5.426  14.978  -2.330  1.00 33.66     0.002 A 
HETATM    3  C3    D T1294       6.516  13.895  -2.332  1.00 26.27     0.033 C 
HETATM    4  C14   D T1294       3.882  16.670  -2.625  1.00 36.57     0.064 A 
HETATM    5  C18   D T1294       4.488  15.071  -1.254  1.00 31.41     0.077 A 
HETATM    6  C19   D T1294       5.011  15.964  -3.230  1.00 39.79     0.069 A 
HETATM    7  N23   D T1294       3.649  16.090  -1.472  1.00 32.77    -0.250 NA
ENDROOT
BRANCH   5   8
HETATM    8  C12   D T1294       4.443  14.073  -0.046  1.00 29.19     0.024 C 
HETATM    9  C20   D T1294       3.441  13.146   0.263  1.00 28.62     0.061 A 
HETATM   10  C17   D T1294       3.539  12.255   1.344  1.00 28.15     0.025 A 
HETATM   11  C21   D T1294       2.175  12.836  -0.351  1.00 24.63     0.279 A 
HETATM   12  C7    D T1294       4.583  12.086   2.298  1.00 25.53     0.031 A 
HETATM   13  C16   D T1294       2.342  11.433   1.364  1.00 25.62     0.085 A 
HETATM   14  C15   D T1294       4.419  11.085   3.272  1.00 28.19     0.140 A 
HETATM   15  C5    D T1294       3.228  10.209   3.330  1.00 25.66     0.031 A 
HETATM   16  F29   D T1294       5.311  10.912   4.133  1.00 36.26    -0.204 F 
HETATM   17  C6    D T1294       2.211  10.376   2.455  1.00 26.69     0.021 A 
HETATM   18  N24   D T1294       1.479  11.812   0.287  1.00 23.74    -0.208 NA
HETATM   19  O27   D T1294       1.732  13.419  -1.277  1.00 23.40    -0.265 OA
ENDBRANCH   5   8
BRANCH   6  20
HETATM   20  C22   D T1294       5.503  16.316  -4.547  1.00 51.05     0.280 C 
HETATM   21  N25   D T1294       6.448  17.257  -4.543  1.00 55.83    -0.209 NA
HETATM   22  O28   D T1294       5.160  15.792  -5.566  1.00 56.66    -0.265 OA
BRANCH  21  23
HETATM   23  C37   D T1294       7.086  17.746  -5.675  1.00 58.65     0.101 C 
BRANCH  23  24
HETATM   24  C38   D T1294       8.497  17.199  -5.549  1.00 62.48     0.153 C 
BRANCH  24  25
HETATM   25  N4    D T1294       8.848  15.811  -6.039  1.00 67.11    -0.327 N 
BRANCH  25  26
HETATM   26  C39   D T1294       9.526  15.074  -4.830  1.00 68.16     0.049 C 
HETATM   27  C42   D T1294      11.107  15.065  -4.537  1.00 67.52     0.051 C 
ENDBRANCH  25  26
BRANCH  25  28
HETATM   28  C40   D T1294       9.332  15.652  -7.609  1.00 67.42     0.049 C 
HETATM   29  C41   D T1294      10.726  15.884  -8.244  1.00 66.32     0.051 C 
ENDBRANCH  25  28
ENDBRANCH  24  25
ENDBRANCH  23  24
ENDBRANCH  21  23
ENDBRANCH   6  20
TORSDOF 7
ENDMDL
MODEL 5
REMARK VINA RESULT:    -7.745      5.845      8.842
REMARK INTER + INTRA:         -12.170
REMARK INTER:                 -11.000
REMARK INTRA:                  -1.170
REMARK UNBOUND:                -1.255
REMARK  7 active torsions:
REMARK  status: ('A' for Active; 'I' for Inactive)
REMARK    1  A    between atoms: C22_10  and  C19_16 
REMARK       I    between atoms: C22_10  and  N25_19 
REMARK    2  A    between atoms: C12_12  and  C18_15 
REMARK    3  A    between atoms: N25_19  and  C37_23 
REMARK    4  A    between atoms: C37_23  and  C38_24 
REMARK    5  A    between atoms: C38_24  and  N4_25 
REMARK    6  A    between atoms: N4_25  and  C39_26 
REMARK    7  A    between atoms: N4_25  and  C40_27 
ROOT
HETATM    1  C4    D T1294       3.376  18.057  -3.418  1.00 32.29     0.052 C 
HETATM    2  C13   D T1294       5.433  14.978  -2.716  1.00 33.66     0.002 A 
HETATM    3  C3    D T1294       6.387  13.775  -2.771  1.00 26.27     0.033 C 
HETATM    4  C14   D T1294       4.077  16.834  -2.939  1.00 36.57     0.064 A 
HETATM    5  C18   D T1294       4.593  15.195  -1.578  1.00 31.41     0.077 A 
HETATM    6  C19   D T1294       5.069  15.993  -3.607  1.00 39.79     0.069 A 
HETATM    7  N23   D T1294       3.864  16.302  -1.759  1.00 32.77    -0.250 NA
ENDROOT
BRANCH   5   8
HETATM    8  C12   D T1294       4.522  14.226  -0.348  1.00 29.19     0.024 C 
HETATM    9  C20   D T1294       3.491  13.341  -0.012  1.00 28.62     0.061 A 
HETATM   10  C17   D T1294       3.566  12.472   1.088  1.00 28.15     0.025 A 
HETATM   11  C21   D T1294       2.212  13.060  -0.613  1.00 24.63     0.279 A 
HETATM   12  C7    D T1294       4.609  12.289   2.040  1.00 25.53     0.031 A 
HETATM   13  C16   D T1294       2.341  11.691   1.133  1.00 25.62     0.085 A 
HETATM   14  C15   D T1294       4.417  11.317   3.038  1.00 28.19     0.140 A 
HETATM   15  C5    D T1294       3.198  10.483   3.122  1.00 25.66     0.031 A 
HETATM   16  F29   D T1294       5.308  11.133   3.898  1.00 36.26    -0.204 F 
HETATM   17  C6    D T1294       2.182  10.665   2.249  1.00 26.69     0.021 A 
HETATM   18  N24   D T1294       1.485  12.075   0.053  1.00 23.74    -0.208 NA
HETATM   19  O27   D T1294       1.783  13.636  -1.549  1.00 23.40    -0.265 OA
ENDBRANCH   5   8
BRANCH   6  20
HETATM   20  C22   D T1294       5.501  16.265  -4.963  1.00 51.05     0.280 C 
HETATM   21  N25   D T1294       6.557  17.076  -5.046  1.00 55.83    -0.209 NA
HETATM   22  O28   D T1294       5.017  15.781  -5.943  1.00 56.66    -0.265 OA
BRANCH  21  23
HETATM   23  C37   D T1294       7.164  17.468  -6.232  1.00 58.65     0.101 C 
BRANCH  23  24
HETATM   24  C38   D T1294       8.534  17.948  -5.785  1.00 62.48     0.153 C 
BRANCH  24  25
HETATM   25  N4    D T1294       9.795  17.226  -6.206  1.00 67.11    -0.327 N 
BRANCH  25  26
HETATM   26  C39   D T1294       9.765  17.163  -7.774  1.00 68.16     0.049 C 
HETATM   27  C42   D T1294       9.671  15.805  -8.631  1.00 67.52     0.051 C 
ENDBRANCH  25  26
BRANCH  25  28
HETATM   28  C40   D T1294      10.336  16.001  -5.241  1.00 67.42     0.049 C 
HETATM   29  C41   D T1294       9.549  14.850  -4.566  1.00 66.32     0.051 C 
ENDBRANCH  25  28
ENDBRANCH  24  25
ENDBRANCH  23  24
ENDBRANCH  21  23
ENDBRANCH   6  20
TORSDOF 7
ENDMDL
MODEL 6
REMARK VINA RESULT:    -7.743      3.166      9.425
REMARK INTER + INTRA:         -12.167
REMARK INTER:                 -11.730
REMARK INTRA:                  -0.437
REMARK UNBOUND:                -1.255
REMARK  7 active torsions:
REMARK  status: ('A' for Active; 'I' for Inactive)
REMARK    1  A    between atoms: C22_10  and  C19_16 
REMARK       I    between atoms: C22_10  and  N25_19 
REMARK    2  A    between atoms: C12_12  and  C18_15 
REMARK    3  A    between atoms: N25_19  and  C37_23 
REMARK    4  A    between atoms: C37_23  and  C38_24 
REMARK    5  A    between atoms: C38_24  and  N4_25 
REMARK    6  A    between atoms: N4_25  and  C39_26 
REMARK    7  A    between atoms: N4_25  and  C40_27 
ROOT
HETATM    1  C4    D T1294       4.654  13.711   0.705  1.00 32.29     0.052 C 
HETATM    2  C13   D T1294       4.608  10.915   3.232  1.00 33.66     0.002 A 
HETATM    3  C3    D T1294       4.229   9.801   4.221  1.00 26.27     0.033 C 
HETATM    4  C14   D T1294       4.864  12.635   1.712  1.00 36.57     0.064 A 
HETATM    5  C18   D T1294       5.970  11.326   3.079  1.00 31.41     0.077 A 
HETATM    6  C19   D T1294       3.895  11.782   2.400  1.00 39.79     0.069 A 
HETATM    7  N23   D T1294       6.050  12.296   2.162  1.00 32.77    -0.250 NA
ENDROOT
BRANCH   5   8
HETATM    8  C12   D T1294       7.158  10.744   3.921  1.00 29.19     0.024 C 
HETATM    9  C20   D T1294       8.501  10.632   3.544  1.00 28.62     0.061 A 
HETATM   10  C17   D T1294       9.495  10.148   4.411  1.00 28.15     0.025 A 
HETATM   11  C21   D T1294       9.203  10.950   2.326  1.00 24.63     0.279 A 
HETATM   12  C7    D T1294       9.393   9.701   5.759  1.00 25.53     0.031 A 
HETATM   13  C16   D T1294      10.765  10.181   3.707  1.00 25.62     0.085 A 
HETATM   14  C15   D T1294      10.575   9.287   6.398  1.00 28.19     0.140 A 
HETATM   15  C5    D T1294      11.898   9.313   5.736  1.00 25.66     0.031 A 
HETATM   16  F29   D T1294      10.525   8.879   7.581  1.00 36.26    -0.204 F 
HETATM   17  C6    D T1294      12.010   9.702   4.446  1.00 26.69     0.021 A 
HETATM   18  N24   D T1294      10.570  10.686   2.383  1.00 23.74    -0.208 NA
HETATM   19  O27   D T1294       8.677  11.348   1.348  1.00 23.40    -0.265 OA
ENDBRANCH   5   8
BRANCH   6  20
HETATM   20  C22   D T1294       2.470  11.928   2.177  1.00 51.05     0.280 C 
HETATM   21  N25   D T1294       2.010  13.163   2.385  1.00 55.83    -0.209 NA
HETATM   22  O28   D T1294       1.749  11.059   1.785  1.00 56.66    -0.265 OA
BRANCH  21  23
HETATM   23  C37   D T1294       0.688  13.554   2.219  1.00 58.65     0.101 C 
BRANCH  23  24
HETATM   24  C38   D T1294       0.718  14.355   0.928  1.00 62.48     0.153 C 
BRANCH  24  25
HETATM   25  N4    D T1294       0.458  13.699  -0.410  1.00 67.11    -0.327 N 
BRANCH  25  26
HETATM   26  C39   D T1294       1.569  14.227  -1.384  1.00 68.16     0.049 C 
HETATM   27  C42   D T1294       2.192  15.708  -1.342  1.00 67.52     0.051 C 
ENDBRANCH  25  26
BRANCH  25  28
HETATM   28  C40   D T1294      -1.114  13.448  -0.848  1.00 67.42     0.049 C 
HETATM   29  C41   D T1294      -2.367  13.233   0.037  1.00 66.32     0.051 C 
ENDBRANCH  25  28
ENDBRANCH  24  25
ENDBRANCH  23  24
ENDBRANCH  21  23
ENDBRANCH   6  20
TORSDOF 7
ENDMDL
MODEL 7
REMARK VINA RESULT:    -7.659      5.963      9.145
REMARK INTER + INTRA:         -12.048
REMARK INTER:                 -10.764
REMARK INTRA:                  -1.284
REMARK UNBOUND:                -1.255
REMARK  7 active torsions:
REMARK  status: ('A' for Active; 'I' for Inactive)
REMARK    1  A    between atoms: C22_10  and  C19_16 
REMARK       I    between atoms: C22_10  and  N25_19 
REMARK    2  A    between atoms: C12_12  and  C18_15 
REMARK    3  A    between atoms: N25_19  and  C37_23 
REMARK    4  A    between atoms: C37_23  and  C38_24 
REMARK    5  A    between atoms: C38_24  and  N4_25 
REMARK    6  A    between atoms: N4_25  and  C39_26 
REMARK    7  A    between atoms: N4_25  and  C40_27 
ROOT
HETATM    1  C4    D T1294       3.459  18.411  -3.832  1.00 32.29     0.052 C 
HETATM    2  C13   D T1294       5.133  15.080  -3.271  1.00 33.66     0.002 A 
HETATM    3  C3    D T1294       5.954  13.786  -3.374  1.00 26.27     0.033 C 
HETATM    4  C14   D T1294       3.998  17.087  -3.415  1.00 36.57     0.064 A 
HETATM    5  C18   D T1294       4.262  15.309  -2.159  1.00 31.41     0.077 A 
HETATM    6  C19   D T1294       4.928  16.189  -4.098  1.00 39.79     0.069 A 
HETATM    7  N23   D T1294       3.667  16.500  -2.289  1.00 32.77    -0.250 NA
ENDROOT
BRANCH   5   8
HETATM    8  C12   D T1294       4.022  14.271  -1.009  1.00 29.19     0.024 C 
HETATM    9  C20   D T1294       4.842  14.008   0.093  1.00 28.62     0.061 A 
HETATM   10  C17   D T1294       4.491  13.093   1.099  1.00 28.15     0.025 A 
HETATM   11  C21   D T1294       6.120  14.531   0.505  1.00 24.63     0.279 A 
HETATM   12  C7    D T1294       3.324  12.289   1.237  1.00 25.53     0.031 A 
HETATM   13  C16   D T1294       5.554  13.079   2.089  1.00 25.62     0.085 A 
HETATM   14  C15   D T1294       3.230  11.470   2.376  1.00 28.19     0.140 A 
HETATM   15  C5    D T1294       4.274  11.426   3.423  1.00 25.66     0.031 A 
HETATM   16  F29   D T1294       2.223  10.741   2.527  1.00 36.26    -0.204 F 
HETATM   17  C6    D T1294       5.404  12.156   3.294  1.00 26.69     0.021 A 
HETATM   18  N24   D T1294       6.587  13.990   1.702  1.00 23.74    -0.208 NA
HETATM   19  O27   D T1294       6.749  15.305  -0.125  1.00 23.40    -0.265 OA
ENDBRANCH   5   8
BRANCH   6  20
HETATM   20  C22   D T1294       5.457  16.506  -5.410  1.00 51.05     0.280 C 
HETATM   21  N25   D T1294       6.539  17.286  -5.386  1.00 55.83    -0.209 NA
HETATM   22  O28   D T1294       5.027  16.080  -6.441  1.00 56.66    -0.265 OA
BRANCH  21  23
HETATM   23  C37   D T1294       7.236  17.709  -6.511  1.00 58.65     0.101 C 
BRANCH  23  24
HETATM   24  C38   D T1294       8.587  18.122  -5.953  1.00 62.48     0.153 C 
BRANCH  24  25
HETATM   25  N4    D T1294       9.845  17.350  -6.290  1.00 67.11    -0.327 N 
BRANCH  25  26
HETATM   26  C39   D T1294       9.879  17.222  -7.854  1.00 68.16     0.049 C 
HETATM   27  C42   D T1294       9.773  15.834  -8.659  1.00 67.52     0.051 C 
ENDBRANCH  25  26
BRANCH  25  28
HETATM   28  C40   D T1294      10.311  16.153  -5.254  1.00 67.42     0.049 C 
HETATM   29  C41   D T1294       9.454  15.093  -4.515  1.00 66.32     0.051 C 
ENDBRANCH  25  28
ENDBRANCH  24  25
ENDBRANCH  23  24
ENDBRANCH  21  23
ENDBRANCH   6  20
TORSDOF 7
ENDMDL
MODEL 8
REMARK VINA RESULT:    -7.646      3.086      9.469
REMARK INTER + INTRA:         -12.030
REMARK INTER:                 -11.203
REMARK INTRA:                  -0.828
REMARK UNBOUND:                -1.255
REMARK  7 active torsions:
REMARK  status: ('A' for Active; 'I' for Inactive)
REMARK    1  A    between atoms: C22_10  and  C19_16 
REMARK       I    between atoms: C22_10  and  N25_19 
REMARK    2  A    between atoms: C12_12  and  C18_15 
REMARK    3  A    between atoms: N25_19  and  C37_23 
REMARK    4  A    between atoms: C37_23  and  C38_24 
REMARK    5  A    between atoms: C38_24  and  N4_25 
REMARK    6  A    between atoms: N4_25  and  C39_26 
REMARK    7  A    between atoms: N4_25  and  C40_27 
ROOT
HETATM    1  C4    D T1294       6.484  13.203  -2.411  1.00 32.29     0.052 C 
HETATM    2  C13   D T1294       5.394  12.424   1.112  1.00 33.66     0.002 A 
HETATM    3  C3    D T1294       4.656  12.299   2.454  1.00 26.27     0.033 C 
HETATM    4  C14   D T1294       6.260  12.797  -0.996  1.00 36.57     0.064 A 
HETATM    5  C18   D T1294       6.719  11.909   0.956  1.00 31.41     0.077 A 
HETATM    6  C19   D T1294       5.118  13.035  -0.114  1.00 39.79     0.069 A 
HETATM    7  N23   D T1294       7.144  12.127  -0.294  1.00 32.77    -0.250 NA
ENDROOT
BRANCH   5   8
HETATM    8  C12   D T1294       7.543  11.247   2.114  1.00 29.19     0.024 C 
HETATM    9  C20   D T1294       8.826  11.587   2.555  1.00 28.62     0.061 A 
HETATM   10  C17   D T1294       9.443  10.961   3.651  1.00 28.15     0.025 A 
HETATM   11  C21   D T1294       9.786  12.565   2.107  1.00 24.63     0.279 A 
HETATM   12  C7    D T1294       8.960   9.929   4.504  1.00 25.53     0.031 A 
HETATM   13  C16   D T1294      10.751  11.564   3.840  1.00 25.62     0.085 A 
HETATM   14  C15   D T1294       9.798   9.505   5.551  1.00 28.19     0.140 A 
HETATM   15  C5    D T1294      11.132  10.093   5.800  1.00 25.66     0.031 A 
HETATM   16  F29   D T1294       9.412   8.593   6.317  1.00 36.26    -0.204 F 
HETATM   17  C6    D T1294      11.622  11.049   4.981  1.00 26.69     0.021 A 
HETATM   18  N24   D T1294      10.963  12.577   2.853  1.00 23.74    -0.208 NA
HETATM   19  O27   D T1294       9.627  13.261   1.167  1.00 23.40    -0.265 OA
ENDBRANCH   5   8
BRANCH   6  20
HETATM   20  C22   D T1294       3.970  13.802  -0.557  1.00 51.05     0.280 C 
HETATM   21  N25   D T1294       2.910  13.060  -0.878  1.00 55.83    -0.209 NA
HETATM   22  O28   D T1294       3.920  14.996  -0.589  1.00 56.66    -0.265 OA
BRANCH  21  23
HETATM   23  C37   D T1294       1.690  13.565  -1.308  1.00 58.65     0.101 C 
BRANCH  23  24
HETATM   24  C38   D T1294       0.677  12.791  -0.483  1.00 62.48     0.153 C 
BRANCH  24  25
HETATM   25  N4    D T1294      -0.481  13.490   0.196  1.00 67.11    -0.327 N 
BRANCH  25  26
HETATM   26  C39   D T1294      -0.121  13.560   1.722  1.00 68.16     0.049 C 
HETATM   27  C42   D T1294       1.169  12.869   2.388  1.00 67.52     0.051 C 
ENDBRANCH  25  26
BRANCH  25  28
HETATM   28  C40   D T1294      -1.999  13.199  -0.384  1.00 67.42     0.049 C 
HETATM   29  C41   D T1294      -2.459  12.262  -1.529  1.00 66.32     0.051 C 
ENDBRANCH  25  28
ENDBRANCH  24  25
ENDBRANCH  23  24
ENDBRANCH  21  23
ENDBRANCH   6  20
TORSDOF 7
ENDMDL
MODEL 9
REMARK VINA RESULT:    -7.514      3.962      5.357
REMARK INTER + INTRA:         -11.844
REMARK INTER:                 -10.936
REMARK INTRA:                  -0.909
REMARK UNBOUND:                -1.255
REMARK  7 active torsions:
REMARK  status: ('A' for Active; 'I' for Inactive)
REMARK    1  A    between atoms: C22_10  and  C19_16 
REMARK       I    between atoms: C22_10  and  N25_19 
REMARK    2  A    between atoms: C12_12  and  C18_15 
REMARK    3  A    between atoms: N25_19  and  C37_23 
REMARK    4  A    between atoms: C37_23  and  C38_24 
REMARK    5  A    between atoms: C38_24  and  N4_25 
REMARK    6  A    between atoms: N4_25  and  C39_26 
REMARK    7  A    between atoms: N4_25  and  C40_27 
ROOT
HETATM    1  C4    D T1294       2.258  10.911   1.520  1.00 32.29     0.052 C 
HETATM    2  C13   D T1294       4.928  13.498   0.895  1.00 33.66     0.002 A 
HETATM    3  C3    D T1294       6.167  14.405   0.938  1.00 26.27     0.033 C 
HETATM    4  C14   D T1294       3.176  12.006   1.103  1.00 36.57     0.064 A 
HETATM    5  C18   D T1294       3.888  13.723  -0.062  1.00 31.41     0.077 A 
HETATM    6  C19   D T1294       4.453  12.436   1.671  1.00 39.79     0.069 A 
HETATM    7  N23   D T1294       2.926  12.805   0.092  1.00 32.77    -0.250 NA
ENDROOT
BRANCH   5   8
HETATM    8  C12   D T1294       3.882  14.912  -1.082  1.00 29.19     0.024 C 
HETATM    9  C20   D T1294       4.605  15.022  -2.275  1.00 28.62     0.061 A 
HETATM   10  C17   D T1294       4.471  16.115  -3.146  1.00 28.15     0.025 A 
HETATM   11  C21   D T1294       5.568  14.162  -2.914  1.00 24.63     0.279 A 
HETATM   12  C7    D T1294       3.642  17.269  -3.045  1.00 25.53     0.031 A 
HETATM   13  C16   D T1294       5.348  15.899  -4.283  1.00 25.62     0.085 A 
HETATM   14  C15   D T1294       3.698  18.205  -4.093  1.00 28.19     0.140 A 
HETATM   15  C5    D T1294       4.561  18.029  -5.281  1.00 25.66     0.031 A 
HETATM   16  F29   D T1294       2.990  19.236  -4.035  1.00 36.26    -0.204 F 
HETATM   17  C6    D T1294       5.380  16.958  -5.380  1.00 26.69     0.021 A 
HETATM   18  N24   D T1294       6.046  14.660  -4.126  1.00 23.74    -0.208 NA
HETATM   19  O27   D T1294       5.965  13.154  -2.446  1.00 23.40    -0.265 OA
ENDBRANCH   5   8
BRANCH   6  20
HETATM   20  C22   D T1294       5.009  11.797   2.848  1.00 51.05     0.280 C 
HETATM   21  N25   D T1294       6.310  11.522   2.755  1.00 55.83    -0.209 NA
HETATM   22  O28   D T1294       4.402  11.572   3.853  1.00 56.66    -0.265 OA
BRANCH  21  23
HETATM   23  C37   D T1294       7.069  10.930   3.756  1.00 58.65     0.101 C 
BRANCH  23  24
HETATM   24  C38   D T1294       7.874   9.877   3.013  1.00 62.48     0.153 C 
BRANCH  24  25
HETATM   25  N4    D T1294       9.331  10.099   2.671  1.00 67.11    -0.327 N 
BRANCH  25  26
HETATM   26  C39   D T1294      10.116  10.044   4.029  1.00 68.16     0.049 C 
HETATM   27  C42   D T1294       9.748   9.075   5.258  1.00 67.52     0.051 C 
ENDBRANCH  25  26
BRANCH  25  28
HETATM   28  C40   D T1294       9.680  11.145   1.442  1.00 67.42     0.049 C 
HETATM   29  C41   D T1294       9.845  12.685   1.469  1.00 66.32     0.051 C 
ENDBRANCH  25  28
ENDBRANCH  24  25
ENDBRANCH  23  24
ENDBRANCH  21  23
ENDBRANCH   6  20
TORSDOF 7
ENDMDL
