MODEL 1
REMARK VINA RESULT:      -7.2      0.000      0.000
REMARK  7 active torsions:
REMARK  status: ('A' for Active; 'I' for Inactive)
REMARK    1  A    between atoms: C22_10  and  C19_16 
REMARK       I    between atoms: C22_10  and  N25_19 
REMARK    2  A    between atoms: C12_12  and  C18_15 
REMARK    3  A    between atoms: N25_19  and  C37_23 
REMARK    4  A    between atoms: C37_23  and  C38_24 
REMARK    5  A    between atoms: C38_24  and  N4_25 
REMARK    6  A    between atoms: N4_25  and  C39_26 
REMARK    7  A    between atoms: N4_25  and  C40_27 
ROOT
HETATM    1  C4    D T1294     -19.845  -9.793  35.321  1.00 32.29     0.052 C 
HETATM    2  C13   D T1294     -18.007  -7.175  37.316  1.00 33.66     0.002 A 
HETATM    3  C3    D T1294     -17.144  -6.001  37.802  1.00 26.27     0.033 C 
HETATM    4  C14   D T1294     -19.199  -8.869  36.294  1.00 36.57     0.064 A 
HETATM    5  C18   D T1294     -18.635  -8.058  38.252  1.00 31.41     0.077 A 
HETATM    6  C19   D T1294     -18.324  -7.720  36.068  1.00 39.79     0.069 A 
HETATM    7  N23   D T1294     -19.334  -8.990  37.594  1.00 32.77    -0.250 NA
ENDROOT
BRANCH   5   8
HETATM    8  C12   D T1294     -18.459  -7.954  39.805  1.00 29.19     0.024 C 
HETATM    9  C20   D T1294     -17.309  -8.216  40.557  1.00 28.62     0.061 A 
HETATM   10  C17   D T1294     -17.251  -8.027  41.947  1.00 28.15     0.025 A 
HETATM   11  C21   D T1294     -15.993  -8.680  40.198  1.00 24.63     0.279 A 
HETATM   12  C7    D T1294     -18.251  -7.560  42.849  1.00 25.53     0.031 A 
HETATM   13  C16   D T1294     -15.916  -8.378  42.398  1.00 25.62     0.085 A 
HETATM   14  C15   D T1294     -17.901  -7.447  44.206  1.00 28.19     0.140 A 
HETATM   15  C5    D T1294     -16.553  -7.777  44.719  1.00 25.66     0.031 A 
HETATM   16  F29   D T1294     -18.756  -7.050  45.031  1.00 36.26    -0.204 F 
HETATM   17  C6    D T1294     -15.601  -8.254  43.885  1.00 26.69     0.021 A 
HETATM   18  N24   D T1294     -15.126  -8.798  41.282  1.00 23.74    -0.208 NA
HETATM   19  O27   D T1294     -15.679  -8.986  39.102  1.00 23.40    -0.265 OA
ENDBRANCH   5   8
BRANCH   6  20
HETATM   20  C22   D T1294     -17.918  -7.332  34.731  1.00 51.05     0.280 C 
HETATM   21  N25   D T1294     -16.714  -7.780  34.377  1.00 55.83    -0.209 NA
HETATM   22  O28   D T1294     -18.598  -6.716  33.965  1.00 56.66    -0.265 OA
BRANCH  21  23
HETATM   23  C37   D T1294     -16.117  -7.556  33.143  1.00 58.65     0.101 C 
BRANCH  23  24
HETATM   24  C38   D T1294     -15.923  -8.956  32.586  1.00 62.48     0.153 C 
BRANCH  24  25
HETATM   25  N4    D T1294     -14.644  -9.352  31.882  1.00 67.11    -0.327 N 
BRANCH  25  26
HETATM   26  C39   D T1294     -15.048 -10.407  30.793  1.00 68.16     0.049 C 
HETATM   27  C42   D T1294     -16.403 -11.272  30.818  1.00 67.52     0.051 C 
ENDBRANCH  25  26
BRANCH  25  28
HETATM   28  C40   D T1294     -13.266  -9.437  32.787  1.00 67.42     0.049 C 
HETATM   29  C41   D T1294     -13.094  -9.502  34.326  1.00 66.32     0.051 C 
ENDBRANCH  25  28
ENDBRANCH  24  25
ENDBRANCH  23  24
ENDBRANCH  21  23
ENDBRANCH   6  20
TORSDOF 7
ENDMDL
MODEL 2
REMARK VINA RESULT:      -7.1      4.166      9.234
REMARK  7 active torsions:
REMARK  status: ('A' for Active; 'I' for Inactive)
REMARK    1  A    between atoms: C22_10  and  C19_16 
REMARK       I    between atoms: C22_10  and  N25_19 
REMARK    2  A    between atoms: C12_12  and  C18_15 
REMARK    3  A    between atoms: N25_19  and  C37_23 
REMARK    4  A    between atoms: C37_23  and  C38_24 
REMARK    5  A    between atoms: C38_24  and  N4_25 
REMARK    6  A    between atoms: N4_25  and  C39_26 
REMARK    7  A    between atoms: N4_25  and  C40_27 
ROOT
HETATM    1  C4    D T1294     -13.759  -9.771  41.604  1.00 32.29     0.052 C 
HETATM    2  C13   D T1294     -16.430  -7.123  41.342  1.00 33.66     0.002 A 
HETATM    3  C3    D T1294     -17.547  -6.099  41.592  1.00 26.27     0.033 C 
HETATM    4  C14   D T1294     -14.776  -8.734  41.273  1.00 36.57     0.064 A 
HETATM    5  C18   D T1294     -15.984  -7.409  40.012  1.00 31.41     0.077 A 
HETATM    6  C19   D T1294     -15.697  -8.003  42.143  1.00 39.79     0.069 A 
HETATM    7  N23   D T1294     -15.006  -8.321  40.049  1.00 32.77    -0.250 NA
ENDROOT
BRANCH   5   8
HETATM    8  C12   D T1294     -16.612  -6.774  38.724  1.00 29.19     0.024 C 
HETATM    9  C20   D T1294     -17.675  -7.263  37.957  1.00 28.62     0.061 A 
HETATM   10  C17   D T1294     -18.195  -6.571  36.852  1.00 28.15     0.025 A 
HETATM   11  C21   D T1294     -18.478  -8.456  38.052  1.00 24.63     0.279 A 
HETATM   12  C7    D T1294     -17.812  -5.318  36.294  1.00 25.53     0.031 A 
HETATM   13  C16   D T1294     -19.291  -7.351  36.303  1.00 25.62     0.085 A 
HETATM   14  C15   D T1294     -18.536  -4.851  35.183  1.00 28.19     0.140 A 
HETATM   15  C5    D T1294     -19.670  -5.596  34.592  1.00 25.66     0.031 A 
HETATM   16  F29   D T1294     -18.222  -3.758  34.660  1.00 36.26    -0.204 F 
HETATM   17  C6    D T1294     -20.026  -6.803  35.085  1.00 26.69     0.021 A 
HETATM   18  N24   D T1294     -19.459  -8.549  37.067  1.00 23.74    -0.208 NA
HETATM   19  O27   D T1294     -18.301  -9.308  38.849  1.00 23.40    -0.265 OA
ENDBRANCH   5   8
BRANCH   6  20
HETATM   20  C22   D T1294     -15.750  -8.257  43.569  1.00 51.05     0.280 C 
HETATM   21  N25   D T1294     -16.931  -8.701  43.999  1.00 55.83    -0.209 NA
HETATM   22  O28   D T1294     -14.824  -8.147  44.316  1.00 56.66    -0.265 OA
BRANCH  21  23
HETATM   23  C37   D T1294     -17.222  -9.032  45.316  1.00 58.65     0.101 C 
BRANCH  23  24
HETATM   24  C38   D T1294     -18.733  -8.899  45.389  1.00 62.48     0.153 C 
BRANCH  24  25
HETATM   25  N4    D T1294     -19.524  -8.287  44.253  1.00 67.11    -0.327 N 
BRANCH  25  26
HETATM   26  C39   D T1294     -19.807  -6.799  44.665  1.00 68.16     0.049 C 
HETATM   27  C42   D T1294     -21.137  -6.295  45.412  1.00 67.52     0.051 C 
ENDBRANCH  25  26
BRANCH  25  28
HETATM   28  C40   D T1294     -20.609  -9.252  43.467  1.00 67.42     0.049 C 
HETATM   29  C41   D T1294     -22.139  -9.083  43.292  1.00 66.32     0.051 C 
ENDBRANCH  25  28
ENDBRANCH  24  25
ENDBRANCH  23  24
ENDBRANCH  21  23
ENDBRANCH   6  20
TORSDOF 7
ENDMDL
MODEL 3
REMARK VINA RESULT:      -7.0      2.177      2.737
REMARK  7 active torsions:
REMARK  status: ('A' for Active; 'I' for Inactive)
REMARK    1  A    between atoms: C22_10  and  C19_16 
REMARK       I    between atoms: C22_10  and  N25_19 
REMARK    2  A    between atoms: C12_12  and  C18_15 
REMARK    3  A    between atoms: N25_19  and  C37_23 
REMARK    4  A    between atoms: C37_23  and  C38_24 
REMARK    5  A    between atoms: C38_24  and  N4_25 
REMARK    6  A    between atoms: N4_25  and  C39_26 
REMARK    7  A    between atoms: N4_25  and  C40_27 
ROOT
HETATM    1  C4    D T1294     -20.031  -4.499  37.172  1.00 32.29     0.052 C 
HETATM    2  C13   D T1294     -17.535  -7.102  38.270  1.00 33.66     0.002 A 
HETATM    3  C3    D T1294     -16.518  -8.249  38.365  1.00 26.27     0.033 C 
HETATM    4  C14   D T1294     -19.088  -5.453  37.820  1.00 36.57     0.064 A 
HETATM    5  C18   D T1294     -18.008  -6.444  39.450  1.00 31.41     0.077 A 
HETATM    6  C19   D T1294     -18.259  -6.505  37.234  1.00 39.79     0.069 A 
HETATM    7  N23   D T1294     -18.875  -5.481  39.114  1.00 32.77    -0.250 NA
ENDROOT
BRANCH   5   8
HETATM    8  C12   D T1294     -17.598  -6.857  40.905  1.00 29.19     0.024 C 
HETATM    9  C20   D T1294     -18.366  -7.547  41.850  1.00 28.62     0.061 A 
HETATM   10  C17   D T1294     -17.866  -7.918  43.108  1.00 28.15     0.025 A 
HETATM   11  C21   D T1294     -19.717  -8.046  41.832  1.00 24.63     0.279 A 
HETATM   12  C7    D T1294     -16.578  -7.711  43.679  1.00 25.53     0.031 A 
HETATM   13  C16   D T1294     -18.915  -8.626  43.821  1.00 25.62     0.085 A 
HETATM   14  C15   D T1294     -16.348  -8.219  44.969  1.00 28.19     0.140 A 
HETATM   15  C5    D T1294     -17.374  -8.960  45.736  1.00 25.66     0.031 A 
HETATM   16  F29   D T1294     -15.231  -8.047  45.508  1.00 36.26    -0.204 F 
HETATM   17  C6    D T1294     -18.614  -9.137  45.226  1.00 26.69     0.021 A 
HETATM   18  N24   D T1294     -20.088  -8.697  43.006  1.00 23.74    -0.208 NA
HETATM   19  O27   D T1294     -20.468  -7.882  40.936  1.00 23.40    -0.265 OA
ENDBRANCH   5   8
BRANCH   6  20
HETATM   20  C22   D T1294     -18.292  -6.789  35.812  1.00 51.05     0.280 C 
HETATM   21  N25   D T1294     -17.092  -6.803  35.233  1.00 55.83    -0.209 NA
HETATM   22  O28   D T1294     -19.280  -7.049  35.192  1.00 56.66    -0.265 OA
BRANCH  21  23
HETATM   23  C37   D T1294     -16.865  -7.069  33.889  1.00 58.65     0.101 C 
BRANCH  23  24
HETATM   24  C38   D T1294     -16.369  -8.505  33.892  1.00 62.48     0.153 C 
BRANCH  24  25
HETATM   25  N4    D T1294     -15.677  -9.100  32.685  1.00 67.11    -0.327 N 
BRANCH  25  26
HETATM   26  C39   D T1294     -16.727 -10.041  31.994  1.00 68.16     0.049 C 
HETATM   27  C42   D T1294     -16.358 -11.227  30.974  1.00 67.52     0.051 C 
ENDBRANCH  25  26
BRANCH  25  28
HETATM   28  C40   D T1294     -14.069  -9.448  32.818  1.00 67.42     0.049 C 
HETATM   29  C41   D T1294     -13.170  -9.509  34.079  1.00 66.32     0.051 C 
ENDBRANCH  25  28
ENDBRANCH  24  25
ENDBRANCH  23  24
ENDBRANCH  21  23
ENDBRANCH   6  20
TORSDOF 7
ENDMDL
MODEL 4
REMARK VINA RESULT:      -7.0      1.236      2.420
REMARK  7 active torsions:
REMARK  status: ('A' for Active; 'I' for Inactive)
REMARK    1  A    between atoms: C22_10  and  C19_16 
REMARK       I    between atoms: C22_10  and  N25_19 
REMARK    2  A    between atoms: C12_12  and  C18_15 
REMARK    3  A    between atoms: N25_19  and  C37_23 
REMARK    4  A    between atoms: C37_23  and  C38_24 
REMARK    5  A    between atoms: C38_24  and  N4_25 
REMARK    6  A    between atoms: N4_25  and  C39_26 
REMARK    7  A    between atoms: N4_25  and  C40_27 
ROOT
HETATM    1  C4    D T1294     -17.132  -4.518  35.955  1.00 32.29     0.052 C 
HETATM    2  C13   D T1294     -18.076  -7.751  37.648  1.00 33.66     0.002 A 
HETATM    3  C3    D T1294     -18.547  -9.170  38.001  1.00 26.27     0.033 C 
HETATM    4  C14   D T1294     -17.456  -5.686  36.820  1.00 36.57     0.064 A 
HETATM    5  C18   D T1294     -17.710  -6.825  38.677  1.00 31.41     0.077 A 
HETATM    6  C19   D T1294     -17.963  -7.011  36.467  1.00 39.79     0.069 A 
HETATM    7  N23   D T1294     -17.330  -5.666  38.126  1.00 32.77    -0.250 NA
ENDROOT
BRANCH   5   8
HETATM    8  C12   D T1294     -17.809  -7.136  40.209  1.00 29.19     0.024 C 
HETATM    9  C20   D T1294     -16.778  -7.513  41.076  1.00 28.62     0.061 A 
HETATM   10  C17   D T1294     -16.976  -7.706  42.453  1.00 28.15     0.025 A 
HETATM   11  C21   D T1294     -15.375  -7.769  40.871  1.00 24.63     0.279 A 
HETATM   12  C7    D T1294     -18.159  -7.573  43.234  1.00 25.53     0.031 A 
HETATM   13  C16   D T1294     -15.703  -8.073  43.047  1.00 25.62     0.085 A 
HETATM   14  C15   D T1294     -18.057  -7.810  44.616  1.00 28.19     0.140 A 
HETATM   15  C5    D T1294     -16.784  -8.172  45.277  1.00 25.66     0.031 A 
HETATM   16  F29   D T1294     -19.078  -7.712  45.334  1.00 36.26    -0.204 F 
HETATM   17  C6    D T1294     -15.657  -8.337  44.548  1.00 26.69     0.021 A 
HETATM   18  N24   D T1294     -14.693  -8.117  42.035  1.00 23.74    -0.208 NA
HETATM   19  O27   D T1294     -14.848  -7.742  39.814  1.00 23.40    -0.265 OA
ENDBRANCH   5   8
BRANCH   6  20
HETATM   20  C22   D T1294     -18.272  -7.360  35.095  1.00 51.05     0.280 C 
HETATM   21  N25   D T1294     -17.474  -8.296  34.579  1.00 55.83    -0.209 NA
HETATM   22  O28   D T1294     -19.186  -6.915  34.467  1.00 56.66    -0.265 OA
BRANCH  21  23
HETATM   23  C37   D T1294     -17.583  -8.808  33.293  1.00 58.65     0.101 C 
BRANCH  23  24
HETATM   24  C38   D T1294     -16.237  -8.483  32.668  1.00 62.48     0.153 C 
BRANCH  24  25
HETATM   25  N4    D T1294     -15.195  -9.557  32.444  1.00 67.11    -0.327 N 
BRANCH  25  26
HETATM   26  C39   D T1294     -13.839  -8.974  32.980  1.00 68.16     0.049 C 
HETATM   27  C42   D T1294     -13.070  -9.507  34.287  1.00 67.52     0.051 C 
ENDBRANCH  25  26
BRANCH  25  28
HETATM   28  C40   D T1294     -15.330 -10.485  31.086  1.00 67.42     0.049 C 
HETATM   29  C41   D T1294     -16.542 -11.294  30.556  1.00 66.32     0.051 C 
ENDBRANCH  25  28
ENDBRANCH  24  25
ENDBRANCH  23  24
ENDBRANCH  21  23
ENDBRANCH   6  20
TORSDOF 7
ENDMDL
MODEL 5
REMARK VINA RESULT:      -6.9      2.517      3.481
REMARK  7 active torsions:
REMARK  status: ('A' for Active; 'I' for Inactive)
REMARK    1  A    between atoms: C22_10  and  C19_16 
REMARK       I    between atoms: C22_10  and  N25_19 
REMARK    2  A    between atoms: C12_12  and  C18_15 
REMARK    3  A    between atoms: N25_19  and  C37_23 
REMARK    4  A    between atoms: C37_23  and  C38_24 
REMARK    5  A    between atoms: C38_24  and  N4_25 
REMARK    6  A    between atoms: N4_25  and  C39_26 
REMARK    7  A    between atoms: N4_25  and  C40_27 
ROOT
HETATM    1  C4    D T1294     -20.213  -4.533  37.236  1.00 32.29     0.052 C 
HETATM    2  C13   D T1294     -17.479  -6.919  38.258  1.00 33.66     0.002 A 
HETATM    3  C3    D T1294     -16.346  -7.955  38.317  1.00 26.27     0.033 C 
HETATM    4  C14   D T1294     -19.190  -5.420  37.856  1.00 36.57     0.064 A 
HETATM    5  C18   D T1294     -18.052  -6.392  39.459  1.00 31.41     0.077 A 
HETATM    6  C19   D T1294     -18.236  -6.339  37.236  1.00 39.79     0.069 A 
HETATM    7  N23   D T1294     -19.009  -5.508  39.152  1.00 32.77    -0.250 NA
ENDROOT
BRANCH   5   8
HETATM    8  C12   D T1294     -17.638  -6.849  40.899  1.00 29.19     0.024 C 
HETATM    9  C20   D T1294     -18.400  -7.577  41.820  1.00 28.62     0.061 A 
HETATM   10  C17   D T1294     -17.897  -7.987  43.065  1.00 28.15     0.025 A 
HETATM   11  C21   D T1294     -19.747  -8.088  41.785  1.00 24.63     0.279 A 
HETATM   12  C7    D T1294     -16.611  -7.786  43.643  1.00 25.53     0.031 A 
HETATM   13  C16   D T1294     -18.940  -8.727  43.754  1.00 25.62     0.085 A 
HETATM   14  C15   D T1294     -16.376  -8.335  44.916  1.00 28.19     0.140 A 
HETATM   15  C5    D T1294     -17.396  -9.111  45.657  1.00 25.66     0.031 A 
HETATM   16  F29   D T1294     -15.261  -8.172  45.461  1.00 36.26    -0.204 F 
HETATM   17  C6    D T1294     -18.634  -9.282  45.140  1.00 26.69     0.021 A 
HETATM   18  N24   D T1294     -20.112  -8.782  42.936  1.00 23.74    -0.208 NA
HETATM   19  O27   D T1294     -20.499  -7.901  40.895  1.00 23.40    -0.265 OA
ENDBRANCH   5   8
BRANCH   6  20
HETATM   20  C22   D T1294     -18.200  -6.534  35.799  1.00 51.05     0.280 C 
HETATM   21  N25   D T1294     -19.024  -7.485  35.359  1.00 55.83    -0.209 NA
HETATM   22  O28   D T1294     -17.548  -5.882  35.039  1.00 56.66    -0.265 OA
BRANCH  21  23
HETATM   23  C37   D T1294     -19.182  -7.841  34.026  1.00 58.65     0.101 C 
BRANCH  23  24
HETATM   24  C38   D T1294     -18.201  -8.988  33.849  1.00 62.48     0.153 C 
BRANCH  24  25
HETATM   25  N4    D T1294     -18.284  -9.915  32.656  1.00 67.11    -0.327 N 
BRANCH  25  26
HETATM   26  C39   D T1294     -16.809 -10.130  32.161  1.00 68.16     0.049 C 
HETATM   27  C42   D T1294     -16.336 -11.321  31.192  1.00 67.52     0.051 C 
ENDBRANCH  25  26
BRANCH  25  28
HETATM   28  C40   D T1294     -19.584  -9.757  31.650  1.00 67.42     0.049 C 
HETATM   29  C41   D T1294     -19.669  -9.913  30.111  1.00 66.32     0.051 C 
ENDBRANCH  25  28
ENDBRANCH  24  25
ENDBRANCH  23  24
ENDBRANCH  21  23
ENDBRANCH   6  20
TORSDOF 7
ENDMDL
MODEL 6
REMARK VINA RESULT:      -6.7      2.976      4.026
REMARK  7 active torsions:
REMARK  status: ('A' for Active; 'I' for Inactive)
REMARK    1  A    between atoms: C22_10  and  C19_16 
REMARK       I    between atoms: C22_10  and  N25_19 
REMARK    2  A    between atoms: C12_12  and  C18_15 
REMARK    3  A    between atoms: N25_19  and  C37_23 
REMARK    4  A    between atoms: C37_23  and  C38_24 
REMARK    5  A    between atoms: C38_24  and  N4_25 
REMARK    6  A    between atoms: N4_25  and  C39_26 
REMARK    7  A    between atoms: N4_25  and  C40_27 
ROOT
HETATM    1  C4    D T1294     -21.541  -4.459  37.911  1.00 32.29     0.052 C 
HETATM    2  C13   D T1294     -18.183  -6.092  38.426  1.00 33.66     0.002 A 
HETATM    3  C3    D T1294     -16.808  -6.759  38.274  1.00 26.27     0.033 C 
HETATM    4  C14   D T1294     -20.267  -5.100  38.339  1.00 36.57     0.064 A 
HETATM    5  C18   D T1294     -18.781  -5.937  39.718  1.00 31.41     0.077 A 
HETATM    6  C19   D T1294     -19.150  -5.606  37.542  1.00 39.79     0.069 A 
HETATM    7  N23   D T1294     -19.966  -5.326  39.596  1.00 32.77    -0.250 NA
ENDROOT
BRANCH   5   8
HETATM    8  C12   D T1294     -18.143  -6.468  41.047  1.00 29.19     0.024 C 
HETATM    9  C20   D T1294     -18.690  -7.380  41.955  1.00 28.62     0.061 A 
HETATM   10  C17   D T1294     -17.994  -7.832  43.088  1.00 28.15     0.025 A 
HETATM   11  C21   D T1294     -19.955  -8.069  42.006  1.00 24.63     0.279 A 
HETATM   12  C7    D T1294     -16.685  -7.510  43.546  1.00 25.53     0.031 A 
HETATM   13  C16   D T1294     -18.844  -8.774  43.796  1.00 25.62     0.085 A 
HETATM   14  C15   D T1294     -16.231  -8.141  44.718  1.00 28.19     0.140 A 
HETATM   15  C5    D T1294     -17.048  -9.119  45.471  1.00 25.66     0.031 A 
HETATM   16  F29   D T1294     -15.089  -7.876  45.157  1.00 36.26    -0.204 F 
HETATM   17  C6    D T1294     -18.306  -9.412  45.072  1.00 26.69     0.021 A 
HETATM   18  N24   D T1294     -20.088  -8.914  43.105  1.00 23.74    -0.208 NA
HETATM   19  O27   D T1294     -20.826  -7.904  41.226  1.00 23.40    -0.265 OA
ENDBRANCH   5   8
BRANCH   6  20
HETATM   20  C22   D T1294     -19.177  -5.565  36.093  1.00 51.05     0.280 C 
HETATM   21  N25   D T1294     -20.039  -6.419  35.541  1.00 55.83    -0.209 NA
HETATM   22  O28   D T1294     -18.542  -4.807  35.421  1.00 56.66    -0.265 OA
BRANCH  21  23
HETATM   23  C37   D T1294     -20.258  -6.551  34.176  1.00 58.65     0.101 C 
BRANCH  23  24
HETATM   24  C38   D T1294     -20.674  -8.004  34.024  1.00 62.48     0.153 C 
BRANCH  24  25
HETATM   25  N4    D T1294     -19.676  -9.129  34.193  1.00 67.11    -0.327 N 
BRANCH  25  26
HETATM   26  C39   D T1294     -20.171  -9.979  35.417  1.00 68.16     0.049 C 
HETATM   27  C42   D T1294     -19.827  -9.654  36.953  1.00 67.52     0.051 C 
ENDBRANCH  25  26
BRANCH  25  28
HETATM   28  C40   D T1294     -18.089  -8.800  33.876  1.00 67.42     0.049 C 
HETATM   29  C41   D T1294     -16.976  -8.287  34.824  1.00 66.32     0.051 C 
ENDBRANCH  25  28
ENDBRANCH  24  25
ENDBRANCH  23  24
ENDBRANCH  21  23
ENDBRANCH   6  20
TORSDOF 7
ENDMDL
MODEL 7
REMARK VINA RESULT:      -6.7      3.077      4.446
REMARK  7 active torsions:
REMARK  status: ('A' for Active; 'I' for Inactive)
REMARK    1  A    between atoms: C22_10  and  C19_16 
REMARK       I    between atoms: C22_10  and  N25_19 
REMARK    2  A    between atoms: C12_12  and  C18_15 
REMARK    3  A    between atoms: N25_19  and  C37_23 
REMARK    4  A    between atoms: C37_23  and  C38_24 
REMARK    5  A    between atoms: C38_24  and  N4_25 
REMARK    6  A    between atoms: N4_25  and  C39_26 
REMARK    7  A    between atoms: N4_25  and  C40_27 
ROOT
HETATM    1  C4    D T1294     -23.547  -4.335  38.612  1.00 32.29     0.052 C 
HETATM    2  C13   D T1294     -20.918  -7.035  38.693  1.00 33.66     0.002 A 
HETATM    3  C3    D T1294     -19.924  -8.162  38.372  1.00 26.27     0.033 C 
HETATM    4  C14   D T1294     -22.503  -5.365  38.871  1.00 36.57     0.064 A 
HETATM    5  C18   D T1294     -21.112  -6.592  40.040  1.00 31.41     0.077 A 
HETATM    6  C19   D T1294     -21.840  -6.289  37.952  1.00 39.79     0.069 A 
HETATM    7  N23   D T1294     -22.014  -5.604  40.065  1.00 32.77    -0.250 NA
ENDROOT
BRANCH   5   8
HETATM    8  C12   D T1294     -20.402  -7.232  41.282  1.00 29.19     0.024 C 
HETATM    9  C20   D T1294     -19.091  -7.021  41.723  1.00 28.62     0.061 A 
HETATM   10  C17   D T1294     -18.581  -7.606  42.893  1.00 28.15     0.025 A 
HETATM   11  C21   D T1294     -18.002  -6.233  41.205  1.00 24.63     0.279 A 
HETATM   12  C7    D T1294     -19.212  -8.470  43.834  1.00 25.53     0.031 A 
HETATM   13  C16   D T1294     -17.207  -7.167  43.058  1.00 25.62     0.085 A 
HETATM   14  C15   D T1294     -18.455  -8.890  44.942  1.00 28.19     0.140 A 
HETATM   15  C5    D T1294     -17.057  -8.462  45.168  1.00 25.66     0.031 A 
HETATM   16  F29   D T1294     -18.972  -9.657  45.785  1.00 36.26    -0.204 F 
HETATM   17  C6    D T1294     -16.429  -7.670  44.269  1.00 26.69     0.021 A 
HETATM   18  N24   D T1294     -16.845  -6.300  41.979  1.00 23.74    -0.208 NA
HETATM   19  O27   D T1294     -18.052  -5.625  40.195  1.00 23.40    -0.265 OA
ENDBRANCH   5   8
BRANCH   6  20
HETATM   20  C22   D T1294     -22.186  -6.333  36.545  1.00 51.05     0.280 C 
HETATM   21  N25   D T1294     -21.315  -5.710  35.751  1.00 55.83    -0.209 NA
HETATM   22  O28   D T1294     -23.126  -6.916  36.093  1.00 56.66    -0.265 OA
BRANCH  21  23
HETATM   23  C37   D T1294     -21.419  -5.632  34.369  1.00 58.65     0.101 C 
BRANCH  23  24
HETATM   24  C38   D T1294     -20.066  -6.123  33.885  1.00 62.48     0.153 C 
BRANCH  24  25
HETATM   25  N4    D T1294     -19.467  -7.414  34.399  1.00 67.11    -0.327 N 
BRANCH  25  26
HETATM   26  C39   D T1294     -17.912  -7.272  34.242  1.00 68.16     0.049 C 
HETATM   27  C42   D T1294     -16.829  -8.151  35.042  1.00 67.52     0.051 C 
ENDBRANCH  25  26
BRANCH  25  28
HETATM   28  C40   D T1294     -20.302  -8.810  34.120  1.00 67.42     0.049 C 
HETATM   29  C41   D T1294     -20.856  -9.850  35.127  1.00 66.32     0.051 C 
ENDBRANCH  25  28
ENDBRANCH  24  25
ENDBRANCH  23  24
ENDBRANCH  21  23
ENDBRANCH   6  20
TORSDOF 7
ENDMDL
MODEL 8
REMARK VINA RESULT:      -6.6      3.859      9.653
REMARK  7 active torsions:
REMARK  status: ('A' for Active; 'I' for Inactive)
REMARK    1  A    between atoms: C22_10  and  C19_16 
REMARK       I    between atoms: C22_10  and  N25_19 
REMARK    2  A    between atoms: C12_12  and  C18_15 
REMARK    3  A    between atoms: N25_19  and  C37_23 
REMARK    4  A    between atoms: C37_23  and  C38_24 
REMARK    5  A    between atoms: C38_24  and  N4_25 
REMARK    6  A    between atoms: N4_25  and  C39_26 
REMARK    7  A    between atoms: N4_25  and  C40_27 
ROOT
HETATM    1  C4    D T1294     -21.052  -6.495  40.663  1.00 32.29     0.052 C 
HETATM    2  C13   D T1294     -17.833  -8.175  39.648  1.00 33.66     0.002 A 
HETATM    3  C3    D T1294     -16.469  -8.878  39.593  1.00 26.27     0.033 C 
HETATM    4  C14   D T1294     -19.845  -7.111  40.046  1.00 36.57     0.064 A 
HETATM    5  C18   D T1294     -18.482  -7.742  38.448  1.00 31.41     0.077 A 
HETATM    6  C19   D T1294     -18.676  -7.729  40.671  1.00 39.79     0.069 A 
HETATM    7  N23   D T1294     -19.653  -7.168  38.749  1.00 32.77    -0.250 NA
ENDROOT
BRANCH   5   8
HETATM    8  C12   D T1294     -17.858  -7.881  37.017  1.00 29.19     0.024 C 
HETATM    9  C20   D T1294     -18.337  -8.638  35.943  1.00 28.62     0.061 A 
HETATM   10  C17   D T1294     -17.724  -8.637  34.680  1.00 28.15     0.025 A 
HETATM   11  C21   D T1294     -19.466  -9.523  35.799  1.00 24.63     0.279 A 
HETATM   12  C7    D T1294     -16.576  -7.929  34.222  1.00 25.53     0.031 A 
HETATM   13  C16   D T1294     -18.484  -9.513  33.806  1.00 25.62     0.085 A 
HETATM   14  C15   D T1294     -16.197  -8.104  32.879  1.00 28.19     0.140 A 
HETATM   15  C5    D T1294     -16.942  -8.972  31.940  1.00 25.66     0.031 A 
HETATM   16  F29   D T1294     -15.188  -7.505  32.442  1.00 36.26    -0.204 F 
HETATM   17  C6    D T1294     -18.013  -9.679  32.365  1.00 26.69     0.021 A 
HETATM   18  N24   D T1294     -19.584 -10.076  34.526  1.00 23.74    -0.208 NA
HETATM   19  O27   D T1294     -20.199  -9.804  36.680  1.00 23.40    -0.265 OA
ENDBRANCH   5   8
BRANCH   6  20
HETATM   20  C22   D T1294     -18.533  -7.788  42.113  1.00 51.05     0.280 C 
HETATM   21  N25   D T1294     -18.951  -8.931  42.655  1.00 55.83    -0.209 NA
HETATM   22  O28   D T1294     -18.035  -6.932  42.783  1.00 56.66    -0.265 OA
BRANCH  21  23
HETATM   23  C37   D T1294     -18.899  -9.231  44.010  1.00 58.65     0.101 C 
BRANCH  23  24
HETATM   24  C38   D T1294     -20.320  -9.663  44.331  1.00 62.48     0.153 C 
BRANCH  24  25
HETATM   25  N4    D T1294     -21.226  -8.808  45.189  1.00 67.11    -0.327 N 
BRANCH  25  26
HETATM   26  C39   D T1294     -22.658  -9.443  45.087  1.00 68.16     0.049 C 
HETATM   27  C42   D T1294     -23.931  -8.725  44.418  1.00 67.52     0.051 C 
ENDBRANCH  25  26
BRANCH  25  28
HETATM   28  C40   D T1294     -20.936  -7.183  45.228  1.00 67.42     0.049 C 
HETATM   29  C41   D T1294     -21.296  -6.087  44.193  1.00 66.32     0.051 C 
ENDBRANCH  25  28
ENDBRANCH  24  25
ENDBRANCH  23  24
ENDBRANCH  21  23
ENDBRANCH   6  20
TORSDOF 7
ENDMDL
MODEL 9
REMARK VINA RESULT:      -6.5      3.057      4.462
REMARK  7 active torsions:
REMARK  status: ('A' for Active; 'I' for Inactive)
REMARK    1  A    between atoms: C22_10  and  C19_16 
REMARK       I    between atoms: C22_10  and  N25_19 
REMARK    2  A    between atoms: C12_12  and  C18_15 
REMARK    3  A    between atoms: N25_19  and  C37_23 
REMARK    4  A    between atoms: C37_23  and  C38_24 
REMARK    5  A    between atoms: C38_24  and  N4_25 
REMARK    6  A    between atoms: N4_25  and  C39_26 
REMARK    7  A    between atoms: N4_25  and  C40_27 
ROOT
HETATM    1  C4    D T1294     -19.675  -4.564  37.041  1.00 32.29     0.052 C 
HETATM    2  C13   D T1294     -17.170  -7.087  38.294  1.00 33.66     0.002 A 
HETATM    3  C3    D T1294     -16.119  -8.196  38.452  1.00 26.27     0.033 C 
HETATM    4  C14   D T1294     -18.749  -5.492  37.746  1.00 36.57     0.064 A 
HETATM    5  C18   D T1294     -17.760  -6.469  39.442  1.00 31.41     0.077 A 
HETATM    6  C19   D T1294     -17.835  -6.502  37.212  1.00 39.79     0.069 A 
HETATM    7  N23   D T1294     -18.635  -5.535  39.053  1.00 32.77    -0.250 NA
ENDROOT
BRANCH   5   8
HETATM    8  C12   D T1294     -17.448  -6.890  40.919  1.00 29.19     0.024 C 
HETATM    9  C20   D T1294     -18.284  -7.568  41.813  1.00 28.62     0.061 A 
HETATM   10  C17   D T1294     -17.871  -7.949  43.099  1.00 28.15     0.025 A 
HETATM   11  C21   D T1294     -19.641  -8.043  41.710  1.00 24.63     0.279 A 
HETATM   12  C7    D T1294     -16.617  -7.765  43.749  1.00 25.53     0.031 A 
HETATM   13  C16   D T1294     -18.974  -8.639  43.744  1.00 25.62     0.085 A 
HETATM   14  C15   D T1294     -16.476  -8.278  45.050  1.00 28.19     0.140 A 
HETATM   15  C5    D T1294     -17.560  -9.002  45.750  1.00 25.66     0.031 A 
HETATM   16  F29   D T1294     -15.391  -8.127  45.657  1.00 36.26    -0.204 F 
HETATM   17  C6    D T1294     -18.769  -9.157  45.163  1.00 26.69     0.021 A 
HETATM   18  N24   D T1294     -20.095  -8.689  42.858  1.00 23.74    -0.208 NA
HETATM   19  O27   D T1294     -20.332  -7.865  40.770  1.00 23.40    -0.265 OA
ENDBRANCH   5   8
BRANCH   6  20
HETATM   20  C22   D T1294     -17.747  -6.762  35.789  1.00 51.05     0.280 C 
HETATM   21  N25   D T1294     -18.466  -7.808  35.381  1.00 55.83    -0.209 NA
HETATM   22  O28   D T1294     -17.141  -6.088  35.009  1.00 56.66    -0.265 OA
BRANCH  21  23
HETATM   23  C37   D T1294     -18.557  -8.242  34.065  1.00 58.65     0.101 C 
BRANCH  23  24
HETATM   24  C38   D T1294     -20.026  -8.051  33.731  1.00 62.48     0.153 C 
BRANCH  24  25
HETATM   25  N4    D T1294     -21.114  -8.533  34.666  1.00 67.11    -0.327 N 
BRANCH  25  26
HETATM   26  C39   D T1294     -21.597  -9.917  34.105  1.00 68.16     0.049 C 
HETATM   27  C42   D T1294     -21.785 -10.255  32.545  1.00 67.52     0.051 C 
ENDBRANCH  25  26
BRANCH  25  28
HETATM   28  C40   D T1294     -22.119  -7.398  35.322  1.00 67.42     0.049 C 
HETATM   29  C41   D T1294     -23.650  -7.220  35.160  1.00 66.32     0.051 C 
ENDBRANCH  25  28
ENDBRANCH  24  25
ENDBRANCH  23  24
ENDBRANCH  21  23
ENDBRANCH   6  20
TORSDOF 7
ENDMDL
