MODEL 1
REMARK VINA RESULT:    -8.126      0.000      0.000
REMARK INTER + INTRA:         -12.351
REMARK INTER:                 -11.451
REMARK INTRA:                  -0.900
REMARK UNBOUND:                -0.900
REMARK  7 active torsions:
REMARK  status: ('A' for Active; 'I' for Inactive)
REMARK    1  A    between atoms: C22_10  and  C19_16 
REMARK       I    between atoms: C22_10  and  N25_19 
REMARK    2  A    between atoms: C12_12  and  C18_15 
REMARK    3  A    between atoms: N25_19  and  C37_23 
REMARK    4  A    between atoms: C37_23  and  C38_24 
REMARK    5  A    between atoms: C38_24  and  N4_25 
REMARK    6  A    between atoms: N4_25  and  C39_26 
REMARK    7  A    between atoms: N4_25  and  C40_27 
ROOT
HETATM    1  C4    D T1294      11.786   0.283  -2.085  1.00 32.29     0.052 C 
HETATM    2  C13   D T1294       9.094   2.901  -2.409  1.00 33.66     0.002 A 
HETATM    3  C3    D T1294       7.980   3.933  -2.181  1.00 26.27     0.033 C 
HETATM    4  C14   D T1294      10.753   1.294  -2.441  1.00 36.57     0.064 A 
HETATM    5  C18   D T1294       9.497   2.541  -3.735  1.00 31.41     0.077 A 
HETATM    6  C19   D T1294       9.858   2.071  -1.584  1.00 39.79     0.069 A 
HETATM    7  N23   D T1294      10.481   1.636  -3.678  1.00 32.77    -0.250 NA
ENDROOT
BRANCH   5   8
HETATM    8  C12   D T1294       8.823   3.099  -5.036  1.00 29.19     0.024 C 
HETATM    9  C20   D T1294       7.921   2.445  -5.882  1.00 28.62     0.061 A 
HETATM   10  C17   D T1294       7.332   3.072  -6.992  1.00 28.15     0.025 A 
HETATM   11  C21   D T1294       7.369   1.114  -5.879  1.00 24.63     0.279 A 
HETATM   12  C7    D T1294       7.486   4.401  -7.480  1.00 25.53     0.031 A 
HETATM   13  C16   D T1294       6.444   2.118  -7.633  1.00 25.62     0.085 A 
HETATM   14  C15   D T1294       6.743   4.767  -8.616  1.00 28.19     0.140 A 
HETATM   15  C5    D T1294       5.813   3.841  -9.301  1.00 25.66     0.031 A 
HETATM   16  F29   D T1294       6.858   5.923  -9.081  1.00 36.26    -0.204 F 
HETATM   17  C6    D T1294       5.680   2.565  -8.873  1.00 26.69     0.021 A 
HETATM   18  N24   D T1294       6.479   0.876  -6.923  1.00 23.74    -0.208 NA
HETATM   19  O27   D T1294       7.671   0.278  -5.103  1.00 23.40    -0.265 OA
ENDBRANCH   5   8
BRANCH   6  20
HETATM   20  C22   D T1294       9.853   1.898  -0.144  1.00 51.05     0.280 C 
HETATM   21  N25   D T1294       9.450   0.692   0.257  1.00 55.83    -0.209 NA
HETATM   22  O28   D T1294      10.226   2.717   0.641  1.00 56.66    -0.265 OA
BRANCH  21  23
HETATM   23  C37   D T1294       9.378   0.282   1.582  1.00 58.65     0.101 C 
BRANCH  23  24
HETATM   24  C38   D T1294      10.225  -0.979   1.607  1.00 62.48     0.153 C 
BRANCH  24  25
HETATM   25  N4    D T1294      11.217  -1.238   2.720  1.00 67.11    -0.327 N 
BRANCH  25  26
HETATM   26  C39   D T1294      11.340   0.106   3.521  1.00 68.16     0.049 C 
HETATM   27  C42   D T1294      12.592   1.109   3.437  1.00 67.52     0.051 C 
ENDBRANCH  25  26
BRANCH  25  28
HETATM   28  C40   D T1294      12.485  -2.244   2.398  1.00 67.42     0.049 C 
HETATM   29  C41   D T1294      12.519  -3.788   2.278  1.00 66.32     0.051 C 
ENDBRANCH  25  28
ENDBRANCH  24  25
ENDBRANCH  23  24
ENDBRANCH  21  23
ENDBRANCH   6  20
TORSDOF 7
ENDMDL
MODEL 2
REMARK VINA RESULT:    -8.079      1.802      2.764
REMARK INTER + INTRA:         -12.284
REMARK INTER:                 -11.287
REMARK INTRA:                  -0.997
REMARK UNBOUND:                -0.900
REMARK  7 active torsions:
REMARK  status: ('A' for Active; 'I' for Inactive)
REMARK    1  A    between atoms: C22_10  and  C19_16 
REMARK       I    between atoms: C22_10  and  N25_19 
REMARK    2  A    between atoms: C12_12  and  C18_15 
REMARK    3  A    between atoms: N25_19  and  C37_23 
REMARK    4  A    between atoms: C37_23  and  C38_24 
REMARK    5  A    between atoms: C38_24  and  N4_25 
REMARK    6  A    between atoms: N4_25  and  C39_26 
REMARK    7  A    between atoms: N4_25  and  C40_27 
ROOT
HETATM    1  C4    D T1294       8.650   3.539   0.231  1.00 32.29     0.052 C 
HETATM    2  C13   D T1294       9.853   2.353  -3.138  1.00 33.66     0.002 A 
HETATM    3  C3    D T1294      10.609   1.721  -4.316  1.00 26.27     0.033 C 
HETATM    4  C14   D T1294       8.951   3.195  -1.186  1.00 36.57     0.064 A 
HETATM    5  C18   D T1294       8.721   3.200  -3.367  1.00 31.41     0.077 A 
HETATM    6  C19   D T1294      10.032   2.390  -1.752  1.00 39.79     0.069 A 
HETATM    7  N23   D T1294       8.230   3.623  -2.195  1.00 32.77    -0.250 NA
ENDROOT
BRANCH   5   8
HETATM    8  C12   D T1294       8.200   3.599  -4.790  1.00 29.19     0.024 C 
HETATM    9  C20   D T1294       7.475   2.811  -5.689  1.00 28.62     0.061 A 
HETATM   10  C17   D T1294       7.005   3.300  -6.919  1.00 28.15     0.025 A 
HETATM   11  C21   D T1294       7.024   1.443  -5.644  1.00 24.63     0.279 A 
HETATM   12  C7    D T1294       7.132   4.595  -7.497  1.00 25.53     0.031 A 
HETATM   13  C16   D T1294       6.287   2.229  -7.588  1.00 25.62     0.085 A 
HETATM   14  C15   D T1294       6.533   4.811  -8.750  1.00 28.19     0.140 A 
HETATM   15  C5    D T1294       5.777   3.761  -9.470  1.00 25.66     0.031 A 
HETATM   16  F29   D T1294       6.631   5.933  -9.294  1.00 36.26    -0.204 F 
HETATM   17  C6    D T1294       5.675   2.516  -8.954  1.00 26.69     0.021 A 
HETATM   18  N24   D T1294       6.309   1.053  -6.774  1.00 23.74    -0.208 NA
HETATM   19  O27   D T1294       7.272   0.697  -4.764  1.00 23.40    -0.265 OA
ENDBRANCH   5   8
BRANCH   6  20
HETATM   20  C22   D T1294      11.056   1.803  -0.911  1.00 51.05     0.280 C 
HETATM   21  N25   D T1294      10.802   0.547  -0.542  1.00 55.83    -0.209 NA
HETATM   22  O28   D T1294      12.076   2.343  -0.602  1.00 56.66    -0.265 OA
BRANCH  21  23
HETATM   23  C37   D T1294      11.640  -0.232   0.246  1.00 58.65     0.101 C 
BRANCH  23  24
HETATM   24  C38   D T1294      12.176  -1.269  -0.726  1.00 62.48     0.153 C 
BRANCH  24  25
HETATM   25  N4    D T1294      12.091  -2.749  -0.422  1.00 67.11    -0.327 N 
BRANCH  25  26
HETATM   26  C39   D T1294      12.005  -3.480  -1.808  1.00 68.16     0.049 C 
HETATM   27  C42   D T1294      12.020  -5.075  -2.003  1.00 67.52     0.051 C 
ENDBRANCH  25  26
BRANCH  25  28
HETATM   28  C40   D T1294      11.248  -3.209   0.921  1.00 67.42     0.049 C 
HETATM   29  C41   D T1294      11.716  -3.319   2.394  1.00 66.32     0.051 C 
ENDBRANCH  25  28
ENDBRANCH  24  25
ENDBRANCH  23  24
ENDBRANCH  21  23
ENDBRANCH   6  20
TORSDOF 7
ENDMDL
MODEL 3
REMARK VINA RESULT:    -7.999      1.625      1.962
REMARK INTER + INTRA:         -12.172
REMARK INTER:                 -11.238
REMARK INTRA:                  -0.934
REMARK UNBOUND:                -0.900
REMARK  7 active torsions:
REMARK  status: ('A' for Active; 'I' for Inactive)
REMARK    1  A    between atoms: C22_10  and  C19_16 
REMARK       I    between atoms: C22_10  and  N25_19 
REMARK    2  A    between atoms: C12_12  and  C18_15 
REMARK    3  A    between atoms: N25_19  and  C37_23 
REMARK    4  A    between atoms: C37_23  and  C38_24 
REMARK    5  A    between atoms: C38_24  and  N4_25 
REMARK    6  A    between atoms: N4_25  and  C39_26 
REMARK    7  A    between atoms: N4_25  and  C40_27 
ROOT
HETATM    1  C4    D T1294      12.002   0.243  -2.407  1.00 32.29     0.052 C 
HETATM    2  C13   D T1294       8.795   2.208  -2.651  1.00 33.66     0.002 A 
HETATM    3  C3    D T1294       7.527   3.034  -2.391  1.00 26.27     0.033 C 
HETATM    4  C14   D T1294      10.740   0.964  -2.727  1.00 36.57     0.064 A 
HETATM    5  C18   D T1294       9.088   1.710  -3.961  1.00 31.41     0.077 A 
HETATM    6  C19   D T1294       9.821   1.692  -1.853  1.00 39.79     0.069 A 
HETATM    7  N23   D T1294      10.241   1.031  -3.939  1.00 32.77    -0.250 NA
ENDROOT
BRANCH   5   8
HETATM    8  C12   D T1294       8.146   1.900  -5.199  1.00 29.19     0.024 C 
HETATM    9  C20   D T1294       7.970   3.052  -5.974  1.00 28.62     0.061 A 
HETATM   10  C17   D T1294       7.140   3.085  -7.106  1.00 28.15     0.025 A 
HETATM   11  C21   D T1294       8.519   4.381  -5.885  1.00 24.63     0.279 A 
HETATM   12  C7    D T1294       6.352   2.053  -7.693  1.00 25.53     0.031 A 
HETATM   13  C16   D T1294       7.201   4.420  -7.674  1.00 25.62     0.085 A 
HETATM   14  C15   D T1294       5.627   2.370  -8.855  1.00 28.19     0.140 A 
HETATM   15  C5    D T1294       5.663   3.709  -9.485  1.00 25.66     0.031 A 
HETATM   16  F29   D T1294       4.916   1.493  -9.394  1.00 36.26    -0.204 F 
HETATM   17  C6    D T1294       6.377   4.710  -8.923  1.00 26.69     0.021 A 
HETATM   18  N24   D T1294       8.074   5.237  -6.890  1.00 23.74    -0.208 NA
HETATM   19  O27   D T1294       9.239   4.740  -5.021  1.00 23.40    -0.265 OA
ENDBRANCH   5   8
BRANCH   6  20
HETATM   20  C22   D T1294      10.042   1.770  -0.422  1.00 51.05     0.280 C 
HETATM   21  N25   D T1294       9.661   0.681   0.246  1.00 55.83    -0.209 NA
HETATM   22  O28   D T1294      10.568   2.685   0.136  1.00 56.66    -0.265 OA
BRANCH  21  23
HETATM   23  C37   D T1294       9.788   0.510   1.619  1.00 58.65     0.101 C 
BRANCH  23  24
HETATM   24  C38   D T1294      10.383  -0.882   1.748  1.00 62.48     0.153 C 
BRANCH  24  25
HETATM   25  N4    D T1294      11.366  -1.218   2.848  1.00 67.11    -0.327 N 
BRANCH  25  26
HETATM   26  C39   D T1294      11.657   0.126   3.605  1.00 68.16     0.049 C 
HETATM   27  C42   D T1294      13.004   0.987   3.452  1.00 67.52     0.051 C 
ENDBRANCH  25  26
BRANCH  25  28
HETATM   28  C40   D T1294      12.506  -2.369   2.531  1.00 67.42     0.049 C 
HETATM   29  C41   D T1294      12.334  -3.818   2.011  1.00 66.32     0.051 C 
ENDBRANCH  25  28
ENDBRANCH  24  25
ENDBRANCH  23  24
ENDBRANCH  21  23
ENDBRANCH   6  20
TORSDOF 7
ENDMDL
MODEL 4
REMARK VINA RESULT:    -7.710      2.236      3.090
REMARK INTER + INTRA:         -11.764
REMARK INTER:                 -10.797
REMARK INTRA:                  -0.967
REMARK UNBOUND:                -0.900
REMARK  7 active torsions:
REMARK  status: ('A' for Active; 'I' for Inactive)
REMARK    1  A    between atoms: C22_10  and  C19_16 
REMARK       I    between atoms: C22_10  and  N25_19 
REMARK    2  A    between atoms: C12_12  and  C18_15 
REMARK    3  A    between atoms: N25_19  and  C37_23 
REMARK    4  A    between atoms: C37_23  and  C38_24 
REMARK    5  A    between atoms: C38_24  and  N4_25 
REMARK    6  A    between atoms: N4_25  and  C39_26 
REMARK    7  A    between atoms: N4_25  and  C40_27 
ROOT
HETATM    1  C4    D T1294       8.600   3.871  -0.129  1.00 32.29     0.052 C 
HETATM    2  C13   D T1294       9.209   1.574  -3.055  1.00 33.66     0.002 A 
HETATM    3  C3    D T1294       9.746   0.537  -4.053  1.00 26.27     0.033 C 
HETATM    4  C14   D T1294       8.659   3.068  -1.382  1.00 36.57     0.064 A 
HETATM    5  C18   D T1294       8.084   2.395  -3.388  1.00 31.41     0.077 A 
HETATM    6  C19   D T1294       9.609   2.037  -1.797  1.00 39.79     0.069 A 
HETATM    7  N23   D T1294       7.801   3.209  -2.363  1.00 32.77    -0.250 NA
ENDROOT
BRANCH   5   8
HETATM    8  C12   D T1294       7.355   2.360  -4.775  1.00 29.19     0.024 C 
HETATM    9  C20   D T1294       7.417   3.311  -5.799  1.00 28.62     0.061 A 
HETATM   10  C17   D T1294       6.766   3.140  -7.032  1.00 28.15     0.025 A 
HETATM   11  C21   D T1294       8.087   4.581  -5.913  1.00 24.63     0.279 A 
HETATM   12  C7    D T1294       5.964   2.061  -7.501  1.00 25.53     0.031 A 
HETATM   13  C16   D T1294       7.051   4.300  -7.859  1.00 25.62     0.085 A 
HETATM   14  C15   D T1294       5.452   2.151  -8.807  1.00 28.19     0.140 A 
HETATM   15  C5    D T1294       5.721   3.302  -9.699  1.00 25.66     0.031 A 
HETATM   16  F29   D T1294       4.735   1.227  -9.253  1.00 36.26    -0.204 F 
HETATM   17  C6    D T1294       6.451   4.351  -9.259  1.00 26.69     0.021 A 
HETATM   18  N24   D T1294       7.885   5.212  -7.138  1.00 23.74    -0.208 NA
HETATM   19  O27   D T1294       8.709   5.077  -5.041  1.00 23.40    -0.265 OA
ENDBRANCH   5   8
BRANCH   6  20
HETATM   20  C22   D T1294      10.735   1.666  -0.963  1.00 51.05     0.280 C 
HETATM   21  N25   D T1294      10.411   0.891   0.073  1.00 55.83    -0.209 NA
HETATM   22  O28   D T1294      11.871   1.961  -1.182  1.00 56.66    -0.265 OA
BRANCH  21  23
HETATM   23  C37   D T1294      11.316   0.393   1.001  1.00 58.65     0.101 C 
BRANCH  23  24
HETATM   24  C38   D T1294      10.900  -1.061   1.154  1.00 62.48     0.153 C 
BRANCH  24  25
HETATM   25  N4    D T1294      11.809  -2.189   0.716  1.00 67.11    -0.327 N 
BRANCH  25  26
HETATM   26  C39   D T1294      12.467  -1.725  -0.632  1.00 68.16     0.049 C 
HETATM   27  C42   D T1294      12.228  -2.431  -2.055  1.00 67.52     0.051 C 
ENDBRANCH  25  26
BRANCH  25  28
HETATM   28  C40   D T1294      11.315  -3.734   1.023  1.00 67.42     0.049 C 
HETATM   29  C41   D T1294      12.056  -5.075   0.791  1.00 66.32     0.051 C 
ENDBRANCH  25  28
ENDBRANCH  24  25
ENDBRANCH  23  24
ENDBRANCH  21  23
ENDBRANCH   6  20
TORSDOF 7
ENDMDL
MODEL 5
REMARK VINA RESULT:    -7.706      3.019      4.564
REMARK INTER + INTRA:         -11.759
REMARK INTER:                 -10.511
REMARK INTRA:                  -1.248
REMARK UNBOUND:                -0.900
REMARK  7 active torsions:
REMARK  status: ('A' for Active; 'I' for Inactive)
REMARK    1  A    between atoms: C22_10  and  C19_16 
REMARK       I    between atoms: C22_10  and  N25_19 
REMARK    2  A    between atoms: C12_12  and  C18_15 
REMARK    3  A    between atoms: N25_19  and  C37_23 
REMARK    4  A    between atoms: C37_23  and  C38_24 
REMARK    5  A    between atoms: C38_24  and  N4_25 
REMARK    6  A    between atoms: N4_25  and  C39_26 
REMARK    7  A    between atoms: N4_25  and  C40_27 
ROOT
HETATM    1  C4    D T1294      11.763   0.597  -1.761  1.00 32.29     0.052 C 
HETATM    2  C13   D T1294       8.612   2.582  -2.338  1.00 33.66     0.002 A 
HETATM    3  C3    D T1294       7.348   3.448  -2.216  1.00 26.27     0.033 C 
HETATM    4  C14   D T1294      10.533   1.307  -2.206  1.00 36.57     0.064 A 
HETATM    5  C18   D T1294       8.958   1.966  -3.583  1.00 31.41     0.077 A 
HETATM    6  C19   D T1294       9.586   2.123  -1.447  1.00 39.79     0.069 A 
HETATM    7  N23   D T1294      10.096   1.274  -3.443  1.00 32.77    -0.250 NA
ENDROOT
BRANCH   5   8
HETATM    8  C12   D T1294       8.082   2.060  -4.879  1.00 29.19     0.024 C 
HETATM    9  C20   D T1294       7.964   3.143  -5.757  1.00 28.62     0.061 A 
HETATM   10  C17   D T1294       7.191   3.088  -6.928  1.00 28.15     0.025 A 
HETATM   11  C21   D T1294       8.530   4.467  -5.755  1.00 24.63     0.279 A 
HETATM   12  C7    D T1294       6.417   2.020  -7.464  1.00 25.53     0.031 A 
HETATM   13  C16   D T1294       7.303   4.369  -7.605  1.00 25.62     0.085 A 
HETATM   14  C15   D T1294       5.756   2.244  -8.685  1.00 28.19     0.140 A 
HETATM   15  C5    D T1294       5.845   3.523  -9.424  1.00 25.66     0.031 A 
HETATM   16  F29   D T1294       5.058   1.332  -9.183  1.00 36.26    -0.204 F 
HETATM   17  C6    D T1294       6.547   4.560  -8.914  1.00 26.69     0.021 A 
HETATM   18  N24   D T1294       8.150   5.240  -6.850  1.00 23.74    -0.208 NA
HETATM   19  O27   D T1294       9.212   4.891  -4.889  1.00 23.40    -0.265 OA
ENDBRANCH   5   8
BRANCH   6  20
HETATM   20  C22   D T1294       9.739   2.324  -0.019  1.00 51.05     0.280 C 
HETATM   21  N25   D T1294      10.172   3.540   0.315  1.00 55.83    -0.209 NA
HETATM   22  O28   D T1294       9.457   1.518   0.816  1.00 56.66    -0.265 OA
BRANCH  21  23
HETATM   23  C37   D T1294      10.378   3.977   1.617  1.00 58.65     0.101 C 
BRANCH  23  24
HETATM   24  C38   D T1294       9.496   5.210   1.718  1.00 62.48     0.153 C 
BRANCH  24  25
HETATM   25  N4    D T1294      10.050   6.596   1.472  1.00 67.11    -0.327 N 
BRANCH  25  26
HETATM   26  C39   D T1294       9.740   7.431   2.764  1.00 68.16     0.049 C 
HETATM   27  C42   D T1294       8.992   8.853   2.776  1.00 67.52     0.051 C 
ENDBRANCH  25  26
BRANCH  25  28
HETATM   28  C40   D T1294       9.957   7.196  -0.063  1.00 67.42     0.049 C 
HETATM   29  C41   D T1294       9.244   6.619  -1.311  1.00 66.32     0.051 C 
ENDBRANCH  25  28
ENDBRANCH  24  25
ENDBRANCH  23  24
ENDBRANCH  21  23
ENDBRANCH   6  20
TORSDOF 7
ENDMDL
MODEL 6
REMARK VINA RESULT:    -7.661      1.387      2.057
REMARK INTER + INTRA:         -11.695
REMARK INTER:                 -10.722
REMARK INTRA:                  -0.973
REMARK UNBOUND:                -0.900
REMARK  7 active torsions:
REMARK  status: ('A' for Active; 'I' for Inactive)
REMARK    1  A    between atoms: C22_10  and  C19_16 
REMARK       I    between atoms: C22_10  and  N25_19 
REMARK    2  A    between atoms: C12_12  and  C18_15 
REMARK    3  A    between atoms: N25_19  and  C37_23 
REMARK    4  A    between atoms: C37_23  and  C38_24 
REMARK    5  A    between atoms: C38_24  and  N4_25 
REMARK    6  A    between atoms: N4_25  and  C39_26 
REMARK    7  A    between atoms: N4_25  and  C40_27 
ROOT
HETATM    1  C4    D T1294      11.664   3.877  -1.417  1.00 32.29     0.052 C 
HETATM    2  C13   D T1294       8.173   2.760  -2.293  1.00 33.66     0.002 A 
HETATM    3  C3    D T1294       6.756   2.166  -2.316  1.00 26.27     0.033 C 
HETATM    4  C14   D T1294      10.329   3.522  -1.973  1.00 36.57     0.064 A 
HETATM    5  C18   D T1294       8.733   3.359  -3.467  1.00 31.41     0.077 A 
HETATM    6  C19   D T1294       9.207   2.818  -1.354  1.00 39.79     0.069 A 
HETATM    7  N23   D T1294       9.965   3.808  -3.200  1.00 32.77    -0.250 NA
ENDROOT
BRANCH   5   8
HETATM    8  C12   D T1294       8.006   3.411  -4.855  1.00 29.19     0.024 C 
HETATM    9  C20   D T1294       7.699   2.341  -5.702  1.00 28.62     0.061 A 
HETATM   10  C17   D T1294       6.985   2.503  -6.900  1.00 28.15     0.025 A 
HETATM   11  C21   D T1294       7.962   0.926  -5.622  1.00 24.63     0.279 A 
HETATM   12  C7    D T1294       6.444   3.681  -7.490  1.00 25.53     0.031 A 
HETATM   13  C16   D T1294       6.832   1.196  -7.516  1.00 25.62     0.085 A 
HETATM   14  C15   D T1294       5.745   3.539  -8.702  1.00 28.19     0.140 A 
HETATM   15  C5    D T1294       5.547   2.232  -9.367  1.00 25.66     0.031 A 
HETATM   16  F29   D T1294       5.263   4.552  -9.256  1.00 36.26    -0.204 F 
HETATM   17  C6    D T1294       6.082   1.108  -8.840  1.00 26.69     0.021 A 
HETATM   18  N24   D T1294       7.459   0.203  -6.701  1.00 23.74    -0.208 NA
HETATM   19  O27   D T1294       8.585   0.421  -4.757  1.00 23.40    -0.265 OA
ENDBRANCH   5   8
BRANCH   6  20
HETATM   20  C22   D T1294       9.291   2.303  -0.002  1.00 51.05     0.280 C 
HETATM   21  N25   D T1294       9.578   1.003   0.068  1.00 55.83    -0.209 NA
HETATM   22  O28   D T1294       9.178   2.965   0.987  1.00 56.66    -0.265 OA
BRANCH  21  23
HETATM   23  C37   D T1294       9.730   0.288   1.249  1.00 58.65     0.101 C 
BRANCH  23  24
HETATM   24  C38   D T1294      11.148  -0.247   1.158  1.00 62.48     0.153 C 
BRANCH  24  25
HETATM   25  N4    D T1294      11.421  -1.708   0.872  1.00 67.11    -0.327 N 
BRANCH  25  26
HETATM   26  C39   D T1294      11.962  -2.325   2.211  1.00 68.16     0.049 C 
HETATM   27  C42   D T1294      12.648  -3.772   2.338  1.00 67.52     0.051 C 
ENDBRANCH  25  26
BRANCH  25  28
HETATM   28  C40   D T1294      11.990  -2.103  -0.626  1.00 67.42     0.049 C 
HETATM   29  C41   D T1294      12.723  -1.224  -1.670  1.00 66.32     0.051 C 
ENDBRANCH  25  28
ENDBRANCH  24  25
ENDBRANCH  23  24
ENDBRANCH  21  23
ENDBRANCH   6  20
TORSDOF 7
ENDMDL
MODEL 7
REMARK VINA RESULT:    -7.564      3.333      4.801
REMARK INTER + INTRA:         -11.560
REMARK INTER:                 -10.438
REMARK INTRA:                  -1.122
REMARK UNBOUND:                -0.900
REMARK  7 active torsions:
REMARK  status: ('A' for Active; 'I' for Inactive)
REMARK    1  A    between atoms: C22_10  and  C19_16 
REMARK       I    between atoms: C22_10  and  N25_19 
REMARK    2  A    between atoms: C12_12  and  C18_15 
REMARK    3  A    between atoms: N25_19  and  C37_23 
REMARK    4  A    between atoms: C37_23  and  C38_24 
REMARK    5  A    between atoms: C38_24  and  N4_25 
REMARK    6  A    between atoms: N4_25  and  C39_26 
REMARK    7  A    between atoms: N4_25  and  C40_27 
ROOT
HETATM    1  C4    D T1294       8.713   3.116  -0.024  1.00 32.29     0.052 C 
HETATM    2  C13   D T1294       9.793   1.665  -3.331  1.00 33.66     0.002 A 
HETATM    3  C3    D T1294      10.559   1.073  -4.523  1.00 26.27     0.033 C 
HETATM    4  C14   D T1294       8.921   2.577  -1.396  1.00 36.57     0.064 A 
HETATM    5  C18   D T1294       8.405   2.000  -3.448  1.00 31.41     0.077 A 
HETATM    6  C19   D T1294      10.136   2.079  -2.040  1.00 39.79     0.069 A 
HETATM    7  N23   D T1294       7.959   2.489  -2.284  1.00 32.77    -0.250 NA
ENDROOT
BRANCH   5   8
HETATM    8  C12   D T1294       7.580   1.858  -4.773  1.00 29.19     0.024 C 
HETATM    9  C20   D T1294       7.412   2.809  -5.784  1.00 28.62     0.061 A 
HETATM   10  C17   D T1294       6.696   2.545  -6.963  1.00 28.15     0.025 A 
HETATM   11  C21   D T1294       7.870   4.168  -5.932  1.00 24.63     0.279 A 
HETATM   12  C7    D T1294       6.033   1.357  -7.383  1.00 25.53     0.031 A 
HETATM   13  C16   D T1294       6.733   3.737  -7.792  1.00 25.62     0.085 A 
HETATM   14  C15   D T1294       5.407   1.372  -8.642  1.00 28.19     0.140 A 
HETATM   15  C5    D T1294       5.425   2.552  -9.535  1.00 25.66     0.031 A 
HETATM   16  F29   D T1294       4.806   0.350  -9.042  1.00 36.26    -0.204 F 
HETATM   17  C6    D T1294       6.020   3.700  -9.139  1.00 26.69     0.021 A 
HETATM   18  N24   D T1294       7.475   4.763  -7.128  1.00 23.74    -0.208 NA
HETATM   19  O27   D T1294       8.478   4.751  -5.106  1.00 23.40    -0.265 OA
ENDBRANCH   5   8
BRANCH   6  20
HETATM   20  C22   D T1294      11.412   2.086  -1.353  1.00 51.05     0.280 C 
HETATM   21  N25   D T1294      11.854   3.305  -1.042  1.00 55.83    -0.209 NA
HETATM   22  O28   D T1294      12.015   1.109  -1.025  1.00 56.66    -0.265 OA
BRANCH  21  23
HETATM   23  C37   D T1294      13.039   3.569  -0.368  1.00 58.65     0.101 C 
BRANCH  23  24
HETATM   24  C38   D T1294      12.982   5.068  -0.127  1.00 62.48     0.153 C 
BRANCH  24  25
HETATM   25  N4    D T1294      11.660   5.795  -0.006  1.00 67.11    -0.327 N 
BRANCH  25  26
HETATM   26  C39   D T1294      11.607   6.814  -1.199  1.00 68.16     0.049 C 
HETATM   27  C42   D T1294      10.506   6.794  -2.369  1.00 67.52     0.051 C 
ENDBRANCH  25  26
BRANCH  25  28
HETATM   28  C40   D T1294      11.098   6.117   1.513  1.00 67.42     0.049 C 
HETATM   29  C41   D T1294       9.803   6.842   1.956  1.00 66.32     0.051 C 
ENDBRANCH  25  28
ENDBRANCH  24  25
ENDBRANCH  23  24
ENDBRANCH  21  23
ENDBRANCH   6  20
TORSDOF 7
ENDMDL
MODEL 8
REMARK VINA RESULT:    -7.494      2.286      3.911
REMARK INTER + INTRA:         -11.460
REMARK INTER:                 -10.289
REMARK INTRA:                  -1.171
REMARK UNBOUND:                -0.900
REMARK  7 active torsions:
REMARK  status: ('A' for Active; 'I' for Inactive)
REMARK    1  A    between atoms: C22_10  and  C19_16 
REMARK       I    between atoms: C22_10  and  N25_19 
REMARK    2  A    between atoms: C12_12  and  C18_15 
REMARK    3  A    between atoms: N25_19  and  C37_23 
REMARK    4  A    between atoms: C37_23  and  C38_24 
REMARK    5  A    between atoms: C38_24  and  N4_25 
REMARK    6  A    between atoms: N4_25  and  C39_26 
REMARK    7  A    between atoms: N4_25  and  C40_27 
ROOT
HETATM    1  C4    D T1294      11.660   0.456  -1.982  1.00 32.29     0.052 C 
HETATM    2  C13   D T1294       9.018   3.104  -2.438  1.00 33.66     0.002 A 
HETATM    3  C3    D T1294       7.932   4.177  -2.261  1.00 26.27     0.033 C 
HETATM    4  C14   D T1294      10.641   1.462  -2.388  1.00 36.57     0.064 A 
HETATM    5  C18   D T1294       9.378   2.636  -3.742  1.00 31.41     0.077 A 
HETATM    6  C19   D T1294       9.785   2.321  -1.570  1.00 39.79     0.069 A 
HETATM    7  N23   D T1294      10.343   1.715  -3.640  1.00 32.77    -0.250 NA
ENDROOT
BRANCH   5   8
HETATM    8  C12   D T1294       8.682   3.110  -5.064  1.00 29.19     0.024 C 
HETATM    9  C20   D T1294       7.851   2.367  -5.909  1.00 28.62     0.061 A 
HETATM   10  C17   D T1294       7.231   2.920  -7.041  1.00 28.15     0.025 A 
HETATM   11  C21   D T1294       7.411   0.995  -5.885  1.00 24.63     0.279 A 
HETATM   12  C7    D T1294       7.283   4.247  -7.556  1.00 25.53     0.031 A 
HETATM   13  C16   D T1294       6.435   1.882  -7.674  1.00 25.62     0.085 A 
HETATM   14  C15   D T1294       6.531   4.527  -8.710  1.00 28.19     0.140 A 
HETATM   15  C5    D T1294       5.693   3.513  -9.389  1.00 25.66     0.031 A 
HETATM   16  F29   D T1294       6.559   5.679  -9.199  1.00 36.26    -0.204 F 
HETATM   17  C6    D T1294       5.657   2.240  -8.935  1.00 26.69     0.021 A 
HETATM   18  N24   D T1294       6.560   0.663  -6.937  1.00 23.74    -0.208 NA
HETATM   19  O27   D T1294       7.767   0.203  -5.087  1.00 23.40    -0.265 OA
ENDBRANCH   5   8
BRANCH   6  20
HETATM   20  C22   D T1294       9.815   2.258  -0.122  1.00 51.05     0.280 C 
HETATM   21  N25   D T1294      10.628   3.151   0.443  1.00 55.83    -0.209 NA
HETATM   22  O28   D T1294       9.143   1.527   0.541  1.00 56.66    -0.265 OA
BRANCH  21  23
HETATM   23  C37   D T1294      10.812   3.298   1.812  1.00 58.65     0.101 C 
BRANCH  23  24
HETATM   24  C38   D T1294      10.821   4.805   2.007  1.00 62.48     0.153 C 
BRANCH  24  25
HETATM   25  N4    D T1294      10.770   5.750   0.827  1.00 67.11    -0.327 N 
BRANCH  25  26
HETATM   26  C39   D T1294      12.141   6.516   0.816  1.00 68.16     0.049 C 
HETATM   27  C42   D T1294      12.977   6.874  -0.508  1.00 67.52     0.051 C 
ENDBRANCH  25  26
BRANCH  25  28
HETATM   28  C40   D T1294       9.318   6.447   0.465  1.00 67.42     0.049 C 
HETATM   29  C41   D T1294       8.944   7.420  -0.681  1.00 66.32     0.051 C 
ENDBRANCH  25  28
ENDBRANCH  24  25
ENDBRANCH  23  24
ENDBRANCH  21  23
ENDBRANCH   6  20
TORSDOF 7
ENDMDL
MODEL 9
REMARK VINA RESULT:    -7.466      1.572      2.225
REMARK INTER + INTRA:         -11.421
REMARK INTER:                 -10.461
REMARK INTRA:                  -0.960
REMARK UNBOUND:                -0.900
REMARK  7 active torsions:
REMARK  status: ('A' for Active; 'I' for Inactive)
REMARK    1  A    between atoms: C22_10  and  C19_16 
REMARK       I    between atoms: C22_10  and  N25_19 
REMARK    2  A    between atoms: C12_12  and  C18_15 
REMARK    3  A    between atoms: N25_19  and  C37_23 
REMARK    4  A    between atoms: C37_23  and  C38_24 
REMARK    5  A    between atoms: C38_24  and  N4_25 
REMARK    6  A    between atoms: N4_25  and  C39_26 
REMARK    7  A    between atoms: N4_25  and  C40_27 
ROOT
HETATM    1  C4    D T1294       7.943   3.644  -0.249  1.00 32.29     0.052 C 
HETATM    2  C13   D T1294       9.459   3.110  -3.658  1.00 33.66     0.002 A 
HETATM    3  C3    D T1294      10.383   2.852  -4.857  1.00 26.27     0.033 C 
HETATM    4  C14   D T1294       8.332   3.483  -1.677  1.00 36.57     0.064 A 
HETATM    5  C18   D T1294       8.085   3.461  -3.856  1.00 31.41     0.077 A 
HETATM    6  C19   D T1294       9.631   3.173  -2.272  1.00 39.79     0.069 A 
HETATM    7  N23   D T1294       7.487   3.627  -2.670  1.00 32.77    -0.250 NA
ENDROOT
BRANCH   5   8
HETATM    8  C12   D T1294       7.429   3.668  -5.264  1.00 29.19     0.024 C 
HETATM    9  C20   D T1294       7.000   2.685  -6.163  1.00 28.62     0.061 A 
HETATM   10  C17   D T1294       6.366   2.993  -7.377  1.00 28.15     0.025 A 
HETATM   11  C21   D T1294       7.047   1.246  -6.130  1.00 24.63     0.279 A 
HETATM   12  C7    D T1294       6.028   4.258  -7.937  1.00 25.53     0.031 A 
HETATM   13  C16   D T1294       6.044   1.746  -8.049  1.00 25.62     0.085 A 
HETATM   14  C15   D T1294       5.365   4.265  -9.177  1.00 28.19     0.140 A 
HETATM   15  C5    D T1294       5.001   3.025  -9.900  1.00 25.66     0.031 A 
HETATM   16  F29   D T1294       5.061   5.357  -9.706  1.00 36.26    -0.204 F 
HETATM   17  C6    D T1294       5.343   1.817  -9.400  1.00 26.69     0.021 A 
HETATM   18  N24   D T1294       6.485   0.643  -7.253  1.00 23.74    -0.208 NA
HETATM   19  O27   D T1294       7.554   0.623  -5.265  1.00 23.40    -0.265 OA
ENDBRANCH   5   8
BRANCH   6  20
HETATM   20  C22   D T1294      10.815   3.004  -1.453  1.00 51.05     0.280 C 
HETATM   21  N25   D T1294      10.871   1.835  -0.814  1.00 55.83    -0.209 NA
HETATM   22  O28   D T1294      11.710   3.792  -1.377  1.00 56.66    -0.265 OA
BRANCH  21  23
HETATM   23  C37   D T1294      11.911   1.433   0.014  1.00 58.65     0.101 C 
BRANCH  23  24
HETATM   24  C38   D T1294      11.315   1.537   1.407  1.00 62.48     0.153 C 
BRANCH  24  25
HETATM   25  N4    D T1294      10.923   0.301   2.188  1.00 67.11    -0.327 N 
BRANCH  25  26
HETATM   26  C39   D T1294      11.833   0.282   3.467  1.00 68.16     0.049 C 
HETATM   27  C42   D T1294      13.389   0.682   3.487  1.00 67.52     0.051 C 
ENDBRANCH  25  26
BRANCH  25  28
HETATM   28  C40   D T1294      10.499  -1.045   1.331  1.00 67.42     0.049 C 
HETATM   29  C41   D T1294      10.098  -2.454   1.836  1.00 66.32     0.051 C 
ENDBRANCH  25  28
ENDBRANCH  24  25
ENDBRANCH  23  24
ENDBRANCH  21  23
ENDBRANCH   6  20
TORSDOF 7
ENDMDL
