MODEL 1
REMARK VINA RESULT:    -8.150      0.000      0.000
REMARK INTER + INTRA:         -12.323
REMARK INTER:                 -11.485
REMARK INTRA:                  -0.839
REMARK UNBOUND:                -0.839
REMARK  7 active torsions:
REMARK  status: ('A' for Active; 'I' for Inactive)
REMARK    1  A    between atoms: C22_10  and  C19_16 
REMARK       I    between atoms: C22_10  and  N25_19 
REMARK    2  A    between atoms: C12_12  and  C18_15 
REMARK    3  A    between atoms: N25_19  and  C37_23 
REMARK    4  A    between atoms: C37_23  and  C38_24 
REMARK    5  A    between atoms: C38_24  and  N4_25 
REMARK    6  A    between atoms: N4_25  and  C39_26 
REMARK    7  A    between atoms: N4_25  and  C40_27 
ROOT
HETATM    1  C4    D T1294      -0.384   4.189 -12.402  1.00 32.29     0.052 C 
HETATM    2  C13   D T1294      -0.154   1.397  -9.879  1.00 33.66     0.002 A 
HETATM    3  C3    D T1294       0.069   0.522  -8.638  1.00 26.27     0.033 C 
HETATM    4  C14   D T1294      -0.363   2.950 -11.578  1.00 36.57     0.064 A 
HETATM    5  C18   D T1294      -0.576   0.817 -11.117  1.00 31.41     0.077 A 
HETATM    6  C19   D T1294       0.031   2.749 -10.183  1.00 39.79     0.069 A 
HETATM    7  N23   D T1294      -0.710   1.773 -12.044  1.00 32.77    -0.250 NA
ENDROOT
BRANCH   5   8
HETATM    8  C12   D T1294      -0.784  -0.722 -11.335  1.00 29.19     0.024 C 
HETATM    9  C20   D T1294      -1.974  -1.391 -11.642  1.00 28.62     0.061 A 
HETATM   10  C17   D T1294      -2.028  -2.775 -11.878  1.00 28.15     0.025 A 
HETATM   11  C21   D T1294      -3.333  -0.940 -11.808  1.00 24.63     0.279 A 
HETATM   12  C7    D T1294      -0.984  -3.744 -11.873  1.00 25.53     0.031 A 
HETATM   13  C16   D T1294      -3.403  -3.130 -12.178  1.00 25.62     0.085 A 
HETATM   14  C15   D T1294      -1.330  -5.073 -12.171  1.00 28.19     0.140 A 
HETATM   15  C5    D T1294      -2.711  -5.491 -12.498  1.00 25.66     0.031 A 
HETATM   16  F29   D T1294      -0.442  -5.956 -12.166  1.00 36.26    -0.204 F 
HETATM   17  C6    D T1294      -3.721  -4.591 -12.475  1.00 26.69     0.021 A 
HETATM   18  N24   D T1294      -4.226  -1.961 -12.126  1.00 23.74    -0.208 NA
HETATM   19  O27   D T1294      -3.681   0.176 -11.643  1.00 23.40    -0.265 OA
ENDBRANCH   5   8
BRANCH   6  20
HETATM   20  C22   D T1294       0.528   3.845  -9.375  1.00 51.05     0.280 C 
HETATM   21  N25   D T1294       1.838   4.063  -9.498  1.00 55.83    -0.209 NA
HETATM   22  O28   D T1294      -0.151   4.550  -8.690  1.00 56.66    -0.265 OA
BRANCH  21  23
HETATM   23  C37   D T1294       2.540   5.064  -8.842  1.00 58.65     0.101 C 
BRANCH  23  24
HETATM   24  C38   D T1294       3.933   4.969  -9.441  1.00 62.48     0.153 C 
BRANCH  24  25
HETATM   25  N4    D T1294       5.168   5.005  -8.566  1.00 67.11    -0.327 N 
BRANCH  25  26
HETATM   26  C39   D T1294       4.695   5.509  -7.157  1.00 68.16     0.049 C 
HETATM   27  C42   D T1294       5.565   5.404  -5.810  1.00 67.52     0.051 C 
ENDBRANCH  25  26
BRANCH  25  28
HETATM   28  C40   D T1294       6.596   5.437  -9.274  1.00 67.42     0.049 C 
HETATM   29  C41   D T1294       7.748   4.547  -9.804  1.00 66.32     0.051 C 
ENDBRANCH  25  28
ENDBRANCH  24  25
ENDBRANCH  23  24
ENDBRANCH  21  23
ENDBRANCH   6  20
TORSDOF 7
ENDMDL
MODEL 2
REMARK VINA RESULT:    -7.520      5.298      9.146
REMARK INTER + INTRA:         -11.435
REMARK INTER:                 -10.129
REMARK INTRA:                  -1.306
REMARK UNBOUND:                -0.839
REMARK  7 active torsions:
REMARK  status: ('A' for Active; 'I' for Inactive)
REMARK    1  A    between atoms: C22_10  and  C19_16 
REMARK       I    between atoms: C22_10  and  N25_19 
REMARK    2  A    between atoms: C12_12  and  C18_15 
REMARK    3  A    between atoms: N25_19  and  C37_23 
REMARK    4  A    between atoms: C37_23  and  C38_24 
REMARK    5  A    between atoms: C38_24  and  N4_25 
REMARK    6  A    between atoms: N4_25  and  C39_26 
REMARK    7  A    between atoms: N4_25  and  C40_27 
ROOT
HETATM    1  C4    D T1294      -4.829   3.212 -13.421  1.00 32.29     0.052 C 
HETATM    2  C13   D T1294      -4.659   0.529 -10.778  1.00 33.66     0.002 A 
HETATM    3  C3    D T1294      -4.931  -0.463  -9.638  1.00 26.27     0.033 C 
HETATM    4  C14   D T1294      -4.540   2.132 -12.438  1.00 36.57     0.064 A 
HETATM    5  C18   D T1294      -3.353   0.642 -11.353  1.00 31.41     0.077 A 
HETATM    6  C19   D T1294      -5.404   1.513 -11.433  1.00 39.79     0.069 A 
HETATM    7  N23   D T1294      -3.364   1.559 -12.327  1.00 32.77    -0.250 NA
ENDROOT
BRANCH   5   8
HETATM    8  C12   D T1294      -2.104  -0.164 -10.852  1.00 29.19     0.024 C 
HETATM    9  C20   D T1294      -1.777  -1.496 -11.127  1.00 28.62     0.061 A 
HETATM   10  C17   D T1294      -0.591  -2.095 -10.671  1.00 28.15     0.025 A 
HETATM   11  C21   D T1294      -2.444  -2.531 -11.875  1.00 24.63     0.279 A 
HETATM   12  C7    D T1294       0.472  -1.547  -9.898  1.00 25.53     0.031 A 
HETATM   13  C16   D T1294      -0.565  -3.467 -11.146  1.00 25.62     0.085 A 
HETATM   14  C15   D T1294       1.562  -2.384  -9.604  1.00 28.19     0.140 A 
HETATM   15  C5    D T1294       1.649  -3.785 -10.073  1.00 25.66     0.031 A 
HETATM   16  F29   D T1294       2.511  -1.942  -8.917  1.00 36.26    -0.204 F 
HETATM   17  C6    D T1294       0.634  -4.334 -10.779  1.00 26.69     0.021 A 
HETATM   18  N24   D T1294      -1.748  -3.737 -11.904  1.00 23.74    -0.208 NA
HETATM   19  O27   D T1294      -3.505  -2.401 -12.378  1.00 23.40    -0.265 OA
ENDBRANCH   5   8
BRANCH   6  20
HETATM   20  C22   D T1294      -6.773   1.953 -11.241  1.00 51.05     0.280 C 
HETATM   21  N25   D T1294      -7.637   1.442 -12.118  1.00 55.83    -0.209 NA
HETATM   22  O28   D T1294      -7.142   2.663 -10.354  1.00 56.66    -0.265 OA
BRANCH  21  23
HETATM   23  C37   D T1294      -9.001   1.697 -12.126  1.00 58.65     0.101 C 
BRANCH  23  24
HETATM   24  C38   D T1294      -9.620   0.310 -12.144  1.00 62.48     0.153 C 
BRANCH  24  25
HETATM   25  N4    D T1294      -9.141  -0.752 -13.110  1.00 67.11    -0.327 N 
BRANCH  25  26
HETATM   26  C39   D T1294     -10.147  -0.738 -14.314  1.00 68.16     0.049 C 
HETATM   27  C42   D T1294     -11.260  -1.865 -14.588  1.00 67.52     0.051 C 
ENDBRANCH  25  26
BRANCH  25  28
HETATM   28  C40   D T1294      -8.477  -2.123 -12.473  1.00 67.42     0.049 C 
HETATM   29  C41   D T1294      -7.032  -2.388 -11.981  1.00 66.32     0.051 C 
ENDBRANCH  25  28
ENDBRANCH  24  25
ENDBRANCH  23  24
ENDBRANCH  21  23
ENDBRANCH   6  20
TORSDOF 7
ENDMDL
MODEL 3
REMARK VINA RESULT:    -7.518      3.017      9.623
REMARK INTER + INTRA:         -11.433
REMARK INTER:                 -10.441
REMARK INTRA:                  -0.992
REMARK UNBOUND:                -0.839
REMARK  7 active torsions:
REMARK  status: ('A' for Active; 'I' for Inactive)
REMARK    1  A    between atoms: C22_10  and  C19_16 
REMARK       I    between atoms: C22_10  and  N25_19 
REMARK    2  A    between atoms: C12_12  and  C18_15 
REMARK    3  A    between atoms: N25_19  and  C37_23 
REMARK    4  A    between atoms: C37_23  and  C38_24 
REMARK    5  A    between atoms: C38_24  and  N4_25 
REMARK    6  A    between atoms: N4_25  and  C39_26 
REMARK    7  A    between atoms: N4_25  and  C40_27 
ROOT
HETATM    1  C4    D T1294      -2.789   3.389 -12.800  1.00 32.29     0.052 C 
HETATM    2  C13   D T1294      -0.247   2.176 -10.294  1.00 33.66     0.002 A 
HETATM    3  C3    D T1294       0.524   1.451  -9.181  1.00 26.27     0.033 C 
HETATM    4  C14   D T1294      -1.653   3.083 -11.887  1.00 36.57     0.064 A 
HETATM    5  C18   D T1294       0.318   3.312 -10.956  1.00 31.41     0.077 A 
HETATM    6  C19   D T1294      -1.525   2.059 -10.851  1.00 39.79     0.069 A 
HETATM    7  N23   D T1294      -0.531   3.763 -11.886  1.00 32.77    -0.250 NA
ENDROOT
BRANCH   5   8
HETATM    8  C12   D T1294       1.704   3.942 -10.581  1.00 29.19     0.024 C 
HETATM    9  C20   D T1294       2.004   4.766  -9.491  1.00 28.62     0.061 A 
HETATM   10  C17   D T1294       3.304   5.222  -9.220  1.00 28.15     0.025 A 
HETATM   11  C21   D T1294       1.196   5.319  -8.433  1.00 24.63     0.279 A 
HETATM   12  C7    D T1294       4.523   4.977  -9.916  1.00 25.53     0.031 A 
HETATM   13  C16   D T1294       3.258   6.035  -8.018  1.00 25.62     0.085 A 
HETATM   14  C15   D T1294       5.696   5.553  -9.397  1.00 28.19     0.140 A 
HETATM   15  C5    D T1294       5.710   6.378  -8.168  1.00 25.66     0.031 A 
HETATM   16  F29   D T1294       6.785   5.370  -9.987  1.00 36.26    -0.204 F 
HETATM   17  C6    D T1294       4.559   6.650  -7.514  1.00 26.69     0.021 A 
HETATM   18  N24   D T1294       1.915   6.096  -7.528  1.00 23.74    -0.208 NA
HETATM   19  O27   D T1294       0.026   5.178  -8.356  1.00 23.40    -0.265 OA
ENDBRANCH   5   8
BRANCH   6  20
HETATM   20  C22   D T1294      -2.616   1.156 -10.542  1.00 51.05     0.280 C 
HETATM   21  N25   D T1294      -2.649   0.062 -11.303  1.00 55.83    -0.209 NA
HETATM   22  O28   D T1294      -3.402   1.315  -9.656  1.00 56.66    -0.265 OA
BRANCH  21  23
HETATM   23  C37   D T1294      -3.585  -0.956 -11.186  1.00 58.65     0.101 C 
BRANCH  23  24
HETATM   24  C38   D T1294      -3.169  -1.944 -12.262  1.00 62.48     0.153 C 
BRANCH  24  25
HETATM   25  N4    D T1294      -2.769  -3.362 -11.915  1.00 67.11    -0.327 N 
BRANCH  25  26
HETATM   26  C39   D T1294      -1.205  -3.359 -11.783  1.00 68.16     0.049 C 
HETATM   27  C42   D T1294      -0.184  -3.533 -13.012  1.00 67.52     0.051 C 
ENDBRANCH  25  26
BRANCH  25  28
HETATM   28  C40   D T1294      -3.639  -4.591 -12.593  1.00 67.42     0.049 C 
HETATM   29  C41   D T1294      -3.849  -4.950 -14.085  1.00 66.32     0.051 C 
ENDBRANCH  25  28
ENDBRANCH  24  25
ENDBRANCH  23  24
ENDBRANCH  21  23
ENDBRANCH   6  20
TORSDOF 7
ENDMDL
MODEL 4
REMARK VINA RESULT:    -7.446      3.150      9.736
REMARK INTER + INTRA:         -11.332
REMARK INTER:                 -10.254
REMARK INTRA:                  -1.078
REMARK UNBOUND:                -0.839
REMARK  7 active torsions:
REMARK  status: ('A' for Active; 'I' for Inactive)
REMARK    1  A    between atoms: C22_10  and  C19_16 
REMARK       I    between atoms: C22_10  and  N25_19 
REMARK    2  A    between atoms: C12_12  and  C18_15 
REMARK    3  A    between atoms: N25_19  and  C37_23 
REMARK    4  A    between atoms: C37_23  and  C38_24 
REMARK    5  A    between atoms: C38_24  and  N4_25 
REMARK    6  A    between atoms: N4_25  and  C39_26 
REMARK    7  A    between atoms: N4_25  and  C40_27 
ROOT
HETATM    1  C4    D T1294      -1.638   1.878  -8.580  1.00 32.29     0.052 C 
HETATM    2  C13   D T1294       0.044   3.996 -11.207  1.00 33.66     0.002 A 
HETATM    3  C3    D T1294       0.407   4.833 -12.442  1.00 26.27     0.033 C 
HETATM    4  C14   D T1294      -0.783   2.691  -9.489  1.00 36.57     0.064 A 
HETATM    5  C18   D T1294       1.035   3.669 -10.227  1.00 31.41     0.077 A 
HETATM    6  C19   D T1294      -1.104   3.331 -10.764  1.00 39.79     0.069 A 
HETATM    7  N23   D T1294       0.482   2.944  -9.248  1.00 32.77    -0.250 NA
ENDROOT
BRANCH   5   8
HETATM    8  C12   D T1294       2.547   4.067 -10.347  1.00 29.19     0.024 C 
HETATM    9  C20   D T1294       3.266   4.951  -9.536  1.00 28.62     0.061 A 
HETATM   10  C17   D T1294       4.642   5.183  -9.701  1.00 28.15     0.025 A 
HETATM   11  C21   D T1294       2.889   5.779  -8.419  1.00 24.63     0.279 A 
HETATM   12  C7    D T1294       5.558   4.623 -10.638  1.00 25.53     0.031 A 
HETATM   13  C16   D T1294       5.065   6.137  -8.692  1.00 25.62     0.085 A 
HETATM   14  C15   D T1294       6.902   5.027 -10.555  1.00 28.19     0.140 A 
HETATM   15  C5    D T1294       7.392   5.985  -9.539  1.00 25.66     0.031 A 
HETATM   16  F29   D T1294       7.735   4.566 -11.368  1.00 36.26    -0.204 F 
HETATM   17  C6    D T1294       6.532   6.552  -8.663  1.00 26.69     0.021 A 
HETATM   18  N24   D T1294       3.945   6.515  -7.886  1.00 23.74    -0.208 NA
HETATM   19  O27   D T1294       1.784   5.875  -8.014  1.00 23.40    -0.265 OA
ENDBRANCH   5   8
BRANCH   6  20
HETATM   20  C22   D T1294      -2.418   3.204 -11.364  1.00 51.05     0.280 C 
HETATM   21  N25   D T1294      -2.571   2.113 -12.115  1.00 55.83    -0.209 NA
HETATM   22  O28   D T1294      -3.327   3.957 -11.179  1.00 56.66    -0.265 OA
BRANCH  21  23
HETATM   23  C37   D T1294      -3.740   1.763 -12.775  1.00 58.65     0.101 C 
BRANCH  23  24
HETATM   24  C38   D T1294      -4.185   0.499 -12.059  1.00 62.48     0.153 C 
BRANCH  24  25
HETATM   25  N4    D T1294      -3.423  -0.800 -12.213  1.00 67.11    -0.327 N 
BRANCH  25  26
HETATM   26  C39   D T1294      -4.201  -1.641 -13.286  1.00 68.16     0.049 C 
HETATM   27  C42   D T1294      -4.410  -3.234 -13.222  1.00 67.52     0.051 C 
ENDBRANCH  25  26
BRANCH  25  28
HETATM   28  C40   D T1294      -2.721  -1.442 -10.863  1.00 67.42     0.049 C 
HETATM   29  C41   D T1294      -1.251  -1.366 -10.381  1.00 66.32     0.051 C 
ENDBRANCH  25  28
ENDBRANCH  24  25
ENDBRANCH  23  24
ENDBRANCH  21  23
ENDBRANCH   6  20
TORSDOF 7
ENDMDL
MODEL 5
REMARK VINA RESULT:    -7.404      5.642      8.326
REMARK INTER + INTRA:         -11.273
REMARK INTER:                  -9.877
REMARK INTRA:                  -1.396
REMARK UNBOUND:                -0.839
REMARK  7 active torsions:
REMARK  status: ('A' for Active; 'I' for Inactive)
REMARK    1  A    between atoms: C22_10  and  C19_16 
REMARK       I    between atoms: C22_10  and  N25_19 
REMARK    2  A    between atoms: C12_12  and  C18_15 
REMARK    3  A    between atoms: N25_19  and  C37_23 
REMARK    4  A    between atoms: C37_23  and  C38_24 
REMARK    5  A    between atoms: C38_24  and  N4_25 
REMARK    6  A    between atoms: N4_25  and  C39_26 
REMARK    7  A    between atoms: N4_25  and  C40_27 
ROOT
HETATM    1  C4    D T1294      -9.112  -1.618 -11.728  1.00 32.29     0.052 C 
HETATM    2  C13   D T1294      -5.754  -0.599 -13.108  1.00 33.66     0.002 A 
HETATM    3  C3    D T1294      -4.580   0.076 -13.830  1.00 26.27     0.033 C 
HETATM    4  C14   D T1294      -7.706  -1.405 -12.168  1.00 36.57     0.064 A 
HETATM    5  C18   D T1294      -5.562  -1.814 -12.376  1.00 31.41     0.077 A 
HETATM    6  C19   D T1294      -7.130  -0.364 -13.019  1.00 39.79     0.069 A 
HETATM    7  N23   D T1294      -6.720  -2.204 -11.831  1.00 32.77    -0.250 NA
ENDROOT
BRANCH   5   8
HETATM    8  C12   D T1294      -4.195  -2.579 -12.294  1.00 29.19     0.024 C 
HETATM    9  C20   D T1294      -3.073  -2.248 -11.526  1.00 28.62     0.061 A 
HETATM   10  C17   D T1294      -1.919  -3.049 -11.486  1.00 28.15     0.025 A 
HETATM   11  C21   D T1294      -2.785  -1.149 -10.641  1.00 24.63     0.279 A 
HETATM   12  C7    D T1294      -1.636  -4.279 -12.146  1.00 25.53     0.031 A 
HETATM   13  C16   D T1294      -0.966  -2.423 -10.587  1.00 25.62     0.085 A 
HETATM   14  C15   D T1294      -0.389  -4.878 -11.898  1.00 28.19     0.140 A 
HETATM   15  C5    D T1294       0.616  -4.294 -10.982  1.00 25.66     0.031 A 
HETATM   16  F29   D T1294      -0.098  -5.954 -12.468  1.00 36.26    -0.204 F 
HETATM   17  C6    D T1294       0.379  -3.110 -10.373  1.00 26.69     0.021 A 
HETATM   18  N24   D T1294      -1.521  -1.215 -10.060  1.00 23.74    -0.208 NA
HETATM   19  O27   D T1294      -3.520  -0.243 -10.455  1.00 23.40    -0.265 OA
ENDBRANCH   5   8
BRANCH   6  20
HETATM   20  C22   D T1294      -7.957   0.664 -13.619  1.00 51.05     0.280 C 
HETATM   21  N25   D T1294      -7.675   1.900 -13.206  1.00 55.83    -0.209 NA
HETATM   22  O28   D T1294      -8.789   0.469 -14.454  1.00 56.66    -0.265 OA
BRANCH  21  23
HETATM   23  C37   D T1294      -8.316   3.049 -13.649  1.00 58.65     0.101 C 
BRANCH  23  24
HETATM   24  C38   D T1294      -7.171   4.011 -13.916  1.00 62.48     0.153 C 
BRANCH  24  25
HETATM   25  N4    D T1294      -6.533   4.803 -12.795  1.00 67.11    -0.327 N 
BRANCH  25  26
HETATM   26  C39   D T1294      -5.071   4.253 -12.644  1.00 68.16     0.049 C 
HETATM   27  C42   D T1294      -4.637   3.076 -11.638  1.00 67.52     0.051 C 
ENDBRANCH  25  26
BRANCH  25  28
HETATM   28  C40   D T1294      -7.492   5.245 -11.526  1.00 67.42     0.049 C 
HETATM   29  C41   D T1294      -7.836   4.472 -10.228  1.00 66.32     0.051 C 
ENDBRANCH  25  28
ENDBRANCH  24  25
ENDBRANCH  23  24
ENDBRANCH  21  23
ENDBRANCH   6  20
TORSDOF 7
ENDMDL
MODEL 6
REMARK VINA RESULT:    -7.377      3.367      9.445
REMARK INTER + INTRA:         -11.235
REMARK INTER:                 -10.605
REMARK INTRA:                  -0.630
REMARK UNBOUND:                -0.839
REMARK  7 active torsions:
REMARK  status: ('A' for Active; 'I' for Inactive)
REMARK    1  A    between atoms: C22_10  and  C19_16 
REMARK       I    between atoms: C22_10  and  N25_19 
REMARK    2  A    between atoms: C12_12  and  C18_15 
REMARK    3  A    between atoms: N25_19  and  C37_23 
REMARK    4  A    between atoms: C37_23  and  C38_24 
REMARK    5  A    between atoms: C38_24  and  N4_25 
REMARK    6  A    between atoms: N4_25  and  C39_26 
REMARK    7  A    between atoms: N4_25  and  C40_27 
ROOT
HETATM    1  C4    D T1294      -0.738   3.262 -14.011  1.00 32.29     0.052 C 
HETATM    2  C13   D T1294      -0.065   2.454 -10.390  1.00 33.66     0.002 A 
HETATM    3  C3    D T1294      -0.083   1.913  -8.953  1.00 26.27     0.033 C 
HETATM    4  C14   D T1294      -0.305   3.102 -12.595  1.00 36.57     0.064 A 
HETATM    5  C18   D T1294       0.865   3.471 -10.778  1.00 31.41     0.077 A 
HETATM    6  C19   D T1294      -0.845   2.253 -11.533  1.00 39.79     0.069 A 
HETATM    7  N23   D T1294       0.694   3.772 -12.071  1.00 32.77    -0.250 NA
ENDROOT
BRANCH   5   8
HETATM    8  C12   D T1294       1.879   4.150  -9.793  1.00 29.19     0.024 C 
HETATM    9  C20   D T1294       3.205   4.517 -10.048  1.00 28.62     0.061 A 
HETATM   10  C17   D T1294       4.003   5.180  -9.101  1.00 28.15     0.025 A 
HETATM   11  C21   D T1294       4.054   4.371 -11.202  1.00 24.63     0.279 A 
HETATM   12  C7    D T1294       3.688   5.610  -7.779  1.00 25.53     0.031 A 
HETATM   13  C16   D T1294       5.305   5.419  -9.695  1.00 25.62     0.085 A 
HETATM   14  C15   D T1294       4.690   6.280  -7.058  1.00 28.19     0.140 A 
HETATM   15  C5    D T1294       6.031   6.564  -7.617  1.00 25.66     0.031 A 
HETATM   16  F29   D T1294       4.456   6.663  -5.889  1.00 36.26    -0.204 F 
HETATM   17  C6    D T1294       6.359   6.135  -8.856  1.00 26.69     0.021 A 
HETATM   18  N24   D T1294       5.332   4.897 -11.027  1.00 23.74    -0.208 NA
HETATM   19  O27   D T1294       3.730   3.815 -12.192  1.00 23.40    -0.265 OA
ENDBRANCH   5   8
BRANCH   6  20
HETATM   20  C22   D T1294      -2.005   1.412 -11.755  1.00 51.05     0.280 C 
HETATM   21  N25   D T1294      -1.765   0.107 -11.621  1.00 55.83    -0.209 NA
HETATM   22  O28   D T1294      -3.106   1.816 -11.984  1.00 56.66    -0.265 OA
BRANCH  21  23
HETATM   23  C37   D T1294      -2.717  -0.892 -11.766  1.00 58.65     0.101 C 
BRANCH  23  24
HETATM   24  C38   D T1294      -2.175  -2.023 -10.908  1.00 62.48     0.153 C 
BRANCH  24  25
HETATM   25  N4    D T1294      -0.830  -2.653 -11.198  1.00 67.11    -0.327 N 
BRANCH  25  26
HETATM   26  C39   D T1294      -1.115  -3.899 -12.109  1.00 68.16     0.049 C 
HETATM   27  C42   D T1294      -2.580  -4.396 -12.546  1.00 67.52     0.051 C 
ENDBRANCH  25  26
BRANCH  25  28
HETATM   28  C40   D T1294       0.305  -2.623  -9.999  1.00 67.42     0.049 C 
HETATM   29  C41   D T1294       1.764  -3.144 -10.003  1.00 66.32     0.051 C 
ENDBRANCH  25  28
ENDBRANCH  24  25
ENDBRANCH  23  24
ENDBRANCH  21  23
ENDBRANCH   6  20
TORSDOF 7
ENDMDL
MODEL 7
REMARK VINA RESULT:    -7.340      2.125      2.929
REMARK INTER + INTRA:         -11.182
REMARK INTER:                 -10.185
REMARK INTRA:                  -0.997
REMARK UNBOUND:                -0.839
REMARK  7 active torsions:
REMARK  status: ('A' for Active; 'I' for Inactive)
REMARK    1  A    between atoms: C22_10  and  C19_16 
REMARK       I    between atoms: C22_10  and  N25_19 
REMARK    2  A    between atoms: C12_12  and  C18_15 
REMARK    3  A    between atoms: N25_19  and  C37_23 
REMARK    4  A    between atoms: C37_23  and  C38_24 
REMARK    5  A    between atoms: C38_24  and  N4_25 
REMARK    6  A    between atoms: N4_25  and  C39_26 
REMARK    7  A    between atoms: N4_25  and  C40_27 
ROOT
HETATM    1  C4    D T1294      -2.457   3.246  -7.681  1.00 32.29     0.052 C 
HETATM    2  C13   D T1294      -1.265   1.845 -10.972  1.00 33.66     0.002 A 
HETATM    3  C3    D T1294      -0.604   1.591 -12.334  1.00 26.27     0.033 C 
HETATM    4  C14   D T1294      -2.127   2.515  -8.935  1.00 36.57     0.064 A 
HETATM    5  C18   D T1294      -2.208   0.914 -10.431  1.00 31.41     0.077 A 
HETATM    6  C19   D T1294      -1.250   2.891 -10.044  1.00 39.79     0.069 A 
HETATM    7  N23   D T1294      -2.639   1.346  -9.240  1.00 32.77    -0.250 NA
ENDROOT
BRANCH   5   8
HETATM    8  C12   D T1294      -2.686  -0.379 -11.177  1.00 29.19     0.024 C 
HETATM    9  C20   D T1294      -2.012  -1.599 -11.295  1.00 28.62     0.061 A 
HETATM   10  C17   D T1294      -2.570  -2.716 -11.939  1.00 28.15     0.025 A 
HETATM   11  C21   D T1294      -0.719  -2.048 -10.845  1.00 24.63     0.279 A 
HETATM   12  C7    D T1294      -3.842  -2.870 -12.564  1.00 25.53     0.031 A 
HETATM   13  C16   D T1294      -1.614  -3.805 -11.867  1.00 25.62     0.085 A 
HETATM   14  C15   D T1294      -4.147  -4.126 -13.115  1.00 28.19     0.140 A 
HETATM   15  C5    D T1294      -3.218  -5.276 -13.058  1.00 25.66     0.031 A 
HETATM   16  F29   D T1294      -5.250  -4.298 -13.682  1.00 36.26    -0.204 F 
HETATM   17  C6    D T1294      -1.994  -5.140 -12.500  1.00 26.69     0.021 A 
HETATM   18  N24   D T1294      -0.439  -3.371 -11.176  1.00 23.74    -0.208 NA
HETATM   19  O27   D T1294       0.062  -1.356 -10.291  1.00 23.40    -0.265 OA
ENDBRANCH   5   8
BRANCH   6  20
HETATM   20  C22   D T1294      -0.559   4.165 -10.061  1.00 51.05     0.280 C 
HETATM   21  N25   D T1294       0.766   4.068  -9.948  1.00 55.83    -0.209 NA
HETATM   22  O28   D T1294      -1.088   5.226 -10.218  1.00 56.66    -0.265 OA
BRANCH  21  23
HETATM   23  C37   D T1294       1.643   5.144  -9.958  1.00 58.65     0.101 C 
BRANCH  23  24
HETATM   24  C38   D T1294       2.317   5.061  -8.599  1.00 62.48     0.153 C 
BRANCH  24  25
HETATM   25  N4    D T1294       3.825   5.016  -8.472  1.00 67.11    -0.327 N 
BRANCH  25  26
HETATM   26  C39   D T1294       4.302   3.794  -9.332  1.00 68.16     0.049 C 
HETATM   27  C42   D T1294       5.016   3.910 -10.768  1.00 67.52     0.051 C 
ENDBRANCH  25  26
BRANCH  25  28
HETATM   28  C40   D T1294       4.484   5.439  -7.018  1.00 67.42     0.049 C 
HETATM   29  C41   D T1294       5.953   5.351  -6.534  1.00 66.32     0.051 C 
ENDBRANCH  25  28
ENDBRANCH  24  25
ENDBRANCH  23  24
ENDBRANCH  21  23
ENDBRANCH   6  20
TORSDOF 7
ENDMDL
MODEL 8
REMARK VINA RESULT:    -7.217      3.143      9.181
REMARK INTER + INTRA:         -11.009
REMARK INTER:                  -9.796
REMARK INTRA:                  -1.214
REMARK UNBOUND:                -0.839
REMARK  7 active torsions:
REMARK  status: ('A' for Active; 'I' for Inactive)
REMARK    1  A    between atoms: C22_10  and  C19_16 
REMARK       I    between atoms: C22_10  and  N25_19 
REMARK    2  A    between atoms: C12_12  and  C18_15 
REMARK    3  A    between atoms: N25_19  and  C37_23 
REMARK    4  A    between atoms: C37_23  and  C38_24 
REMARK    5  A    between atoms: C38_24  and  N4_25 
REMARK    6  A    between atoms: N4_25  and  C39_26 
REMARK    7  A    between atoms: N4_25  and  C40_27 
ROOT
HETATM    1  C4    D T1294      -3.076   5.320 -10.639  1.00 32.29     0.052 C 
HETATM    2  C13   D T1294      -0.310   2.991  -9.571  1.00 33.66     0.002 A 
HETATM    3  C3    D T1294       0.543   1.850  -8.996  1.00 26.27     0.033 C 
HETATM    4  C14   D T1294      -1.840   4.559 -10.304  1.00 36.57     0.064 A 
HETATM    5  C18   D T1294       0.307   4.137 -10.166  1.00 31.41     0.077 A 
HETATM    6  C19   D T1294      -1.677   3.281  -9.612  1.00 39.79     0.069 A 
HETATM    7  N23   D T1294      -0.634   4.985 -10.598  1.00 32.77    -0.250 NA
ENDROOT
BRANCH   5   8
HETATM    8  C12   D T1294       1.858   4.360 -10.233  1.00 29.19     0.024 C 
HETATM    9  C20   D T1294       2.665   5.037  -9.313  1.00 28.62     0.061 A 
HETATM   10  C17   D T1294       4.061   5.120  -9.447  1.00 28.15     0.025 A 
HETATM   11  C21   D T1294       2.373   5.752  -8.097  1.00 24.63     0.279 A 
HETATM   12  C7    D T1294       4.917   4.580 -10.449  1.00 25.53     0.031 A 
HETATM   13  C16   D T1294       4.580   5.875  -8.321  1.00 25.62     0.085 A 
HETATM   14  C15   D T1294       6.299   4.804 -10.314  1.00 28.19     0.140 A 
HETATM   15  C5    D T1294       6.885   5.554  -9.181  1.00 25.66     0.031 A 
HETATM   16  F29   D T1294       7.083   4.355 -11.181  1.00 36.26    -0.204 F 
HETATM   17  C6    D T1294       6.086   6.103  -8.238  1.00 26.69     0.021 A 
HETATM   18  N24   D T1294       3.501   6.278  -7.472  1.00 23.74    -0.208 NA
HETATM   19  O27   D T1294       1.281   5.928  -7.682  1.00 23.40    -0.265 OA
ENDBRANCH   5   8
BRANCH   6  20
HETATM   20  C22   D T1294      -2.818   2.553  -9.091  1.00 51.05     0.280 C 
HETATM   21  N25   D T1294      -3.384   1.726  -9.971  1.00 55.83    -0.209 NA
HETATM   22  O28   D T1294      -3.212   2.618  -7.965  1.00 56.66    -0.265 OA
BRANCH  21  23
HETATM   23  C37   D T1294      -4.474   0.910  -9.703  1.00 58.65     0.101 C 
BRANCH  23  24
HETATM   24  C38   D T1294      -3.999  -0.467 -10.132  1.00 62.48     0.153 C 
BRANCH  24  25
HETATM   25  N4    D T1294      -2.563  -0.709 -10.546  1.00 67.11    -0.327 N 
BRANCH  25  26
HETATM   26  C39   D T1294      -2.622  -1.526 -11.884  1.00 68.16     0.049 C 
HETATM   27  C42   D T1294      -1.587  -2.686 -12.294  1.00 67.52     0.051 C 
ENDBRANCH  25  26
BRANCH  25  28
HETATM   28  C40   D T1294      -1.454  -0.969  -9.350  1.00 67.42     0.049 C 
HETATM   29  C41   D T1294      -1.647  -1.013  -7.814  1.00 66.32     0.051 C 
ENDBRANCH  25  28
ENDBRANCH  24  25
ENDBRANCH  23  24
ENDBRANCH  21  23
ENDBRANCH   6  20
TORSDOF 7
ENDMDL
MODEL 9
REMARK VINA RESULT:    -7.119      3.171      9.519
REMARK INTER + INTRA:         -10.871
REMARK INTER:                  -9.637
REMARK INTRA:                  -1.234
REMARK UNBOUND:                -0.839
REMARK  7 active torsions:
REMARK  status: ('A' for Active; 'I' for Inactive)
REMARK    1  A    between atoms: C22_10  and  C19_16 
REMARK       I    between atoms: C22_10  and  N25_19 
REMARK    2  A    between atoms: C12_12  and  C18_15 
REMARK    3  A    between atoms: N25_19  and  C37_23 
REMARK    4  A    between atoms: C37_23  and  C38_24 
REMARK    5  A    between atoms: C38_24  and  N4_25 
REMARK    6  A    between atoms: N4_25  and  C39_26 
REMARK    7  A    between atoms: N4_25  and  C40_27 
ROOT
HETATM    1  C4    D T1294      -3.336   4.438 -11.413  1.00 32.29     0.052 C 
HETATM    2  C13   D T1294      -0.488   2.558  -9.810  1.00 33.66     0.002 A 
HETATM    3  C3    D T1294       0.404   1.596  -9.012  1.00 26.27     0.033 C 
HETATM    4  C14   D T1294      -2.075   3.855 -10.877  1.00 36.57     0.064 A 
HETATM    5  C18   D T1294       0.079   3.667 -10.515  1.00 31.41     0.077 A 
HETATM    6  C19   D T1294      -1.866   2.705  -9.997  1.00 39.79     0.069 A 
HETATM    7  N23   D T1294      -0.888   4.352 -11.136  1.00 32.77    -0.250 NA
ENDROOT
BRANCH   5   8
HETATM    8  C12   D T1294       1.605   4.030 -10.494  1.00 29.19     0.024 C 
HETATM    9  C20   D T1294       2.287   4.807  -9.551  1.00 28.62     0.061 A 
HETATM   10  C17   D T1294       3.676   5.013  -9.601  1.00 28.15     0.025 A 
HETATM   11  C21   D T1294       1.854   5.529  -8.383  1.00 24.63     0.279 A 
HETATM   12  C7    D T1294       4.640   4.523 -10.528  1.00 25.53     0.031 A 
HETATM   13  C16   D T1294       4.050   5.847  -8.474  1.00 25.62     0.085 A 
HETATM   14  C15   D T1294       5.984   4.877 -10.316  1.00 28.19     0.140 A 
HETATM   15  C5    D T1294       6.426   5.712  -9.177  1.00 25.66     0.031 A 
HETATM   16  F29   D T1294       6.860   4.475 -11.116  1.00 36.26    -0.204 F 
HETATM   17  C6    D T1294       5.521   6.214  -8.307  1.00 26.69     0.021 A 
HETATM   18  N24   D T1294       2.887   6.175  -7.709  1.00 23.74    -0.208 NA
HETATM   19  O27   D T1294       0.726   5.616  -8.043  1.00 23.40    -0.265 OA
ENDBRANCH   5   8
BRANCH   6  20
HETATM   20  C22   D T1294      -2.982   1.948  -9.467  1.00 51.05     0.280 C 
HETATM   21  N25   D T1294      -3.294   0.865 -10.180  1.00 55.83    -0.209 NA
HETATM   22  O28   D T1294      -3.560   2.205  -8.453  1.00 56.66    -0.265 OA
BRANCH  21  23
HETATM   23  C37   D T1294      -4.310  -0.026  -9.863  1.00 58.65     0.101 C 
BRANCH  23  24
HETATM   24  C38   D T1294      -5.303   0.153 -10.999  1.00 62.48     0.153 C 
BRANCH  24  25
HETATM   25  N4    D T1294      -5.157  -0.610 -12.298  1.00 67.11    -0.327 N 
BRANCH  25  26
HETATM   26  C39   D T1294      -4.623  -2.035 -11.913  1.00 68.16     0.049 C 
HETATM   27  C42   D T1294      -3.733  -2.968 -12.873  1.00 67.52     0.051 C 
ENDBRANCH  25  26
BRANCH  25  28
HETATM   28  C40   D T1294      -4.669   0.232 -13.631  1.00 67.42     0.049 C 
HETATM   29  C41   D T1294      -3.932   1.591 -13.729  1.00 66.32     0.051 C 
ENDBRANCH  25  28
ENDBRANCH  24  25
ENDBRANCH  23  24
ENDBRANCH  21  23
ENDBRANCH   6  20
TORSDOF 7
ENDMDL
