MODEL 1
REMARK VINA RESULT:    -7.565      0.000      0.000
REMARK INTER + INTRA:         -11.538
REMARK INTER:                 -10.661
REMARK INTRA:                  -0.877
REMARK UNBOUND:                -0.877
REMARK  7 active torsions:
REMARK  status: ('A' for Active; 'I' for Inactive)
REMARK    1  A    between atoms: C22_10  and  C19_16 
REMARK       I    between atoms: C22_10  and  N25_19 
REMARK    2  A    between atoms: C12_12  and  C18_15 
REMARK    3  A    between atoms: N25_19  and  C37_23 
REMARK    4  A    between atoms: C37_23  and  C38_24 
REMARK    5  A    between atoms: C38_24  and  N4_25 
REMARK    6  A    between atoms: N4_25  and  C39_26 
REMARK    7  A    between atoms: N4_25  and  C40_27 
ROOT
HETATM    1  C4    D T1294      -0.977   4.212   7.830  1.00 32.29     0.052 C 
HETATM    2  C13   D T1294       1.980   6.184   9.086  1.00 33.66     0.002 A 
HETATM    3  C3    D T1294       3.077   7.227   9.349  1.00 26.27     0.033 C 
HETATM    4  C14   D T1294       0.236   4.807   8.457  1.00 36.57     0.064 A 
HETATM    5  C18   D T1294       2.003   4.917   9.751  1.00 31.41     0.077 A 
HETATM    6  C19   D T1294       0.884   6.097   8.222  1.00 39.79     0.069 A 
HETATM    7  N23   D T1294       0.949   4.186   9.368  1.00 32.77    -0.250 NA
ENDROOT
BRANCH   5   8
HETATM    8  C12   D T1294       3.139   4.462  10.731  1.00 29.19     0.024 C 
HETATM    9  C20   D T1294       4.487   4.238  10.436  1.00 28.62     0.061 A 
HETATM   10  C17   D T1294       5.431   3.892  11.416  1.00 28.15     0.025 A 
HETATM   11  C21   D T1294       5.241   4.299   9.210  1.00 24.63     0.279 A 
HETATM   12  C7    D T1294       5.267   3.708  12.820  1.00 25.53     0.031 A 
HETATM   13  C16   D T1294       6.724   3.750  10.771  1.00 25.62     0.085 A 
HETATM   14  C15   D T1294       6.409   3.381  13.571  1.00 28.19     0.140 A 
HETATM   15  C5    D T1294       7.754   3.238  12.969  1.00 25.66     0.031 A 
HETATM   16  F29   D T1294       6.303   3.202  14.806  1.00 36.26    -0.204 F 
HETATM   17  C6    D T1294       7.923   3.375  11.634  1.00 26.69     0.021 A 
HETATM   18  N24   D T1294       6.593   4.004   9.369  1.00 23.74    -0.208 NA
HETATM   19  O27   D T1294       4.764   4.524   8.154  1.00 23.40    -0.265 OA
ENDBRANCH   5   8
BRANCH   6  20
HETATM   20  C22   D T1294       0.384   7.022   7.226  1.00 51.05     0.280 C 
HETATM   21  N25   D T1294       1.315   7.468   6.381  1.00 55.83    -0.209 NA
HETATM   22  O28   D T1294      -0.761   7.338   7.103  1.00 56.66    -0.265 OA
BRANCH  21  23
HETATM   23  C37   D T1294       1.078   8.345   5.332  1.00 58.65     0.101 C 
BRANCH  23  24
HETATM   24  C38   D T1294       2.335   9.197   5.292  1.00 62.48     0.153 C 
BRANCH  24  25
HETATM   25  N4    D T1294       3.404   8.975   4.245  1.00 67.11    -0.327 N 
BRANCH  25  26
HETATM   26  C39   D T1294       2.694   9.119   2.852  1.00 68.16     0.049 C 
HETATM   27  C42   D T1294       3.018  10.269   1.777  1.00 67.52     0.051 C 
ENDBRANCH  25  26
BRANCH  25  28
HETATM   28  C40   D T1294       4.578   7.861   4.574  1.00 67.42     0.049 C 
HETATM   29  C41   D T1294       4.845   7.059   5.872  1.00 66.32     0.051 C 
ENDBRANCH  25  28
ENDBRANCH  24  25
ENDBRANCH  23  24
ENDBRANCH  21  23
ENDBRANCH   6  20
TORSDOF 7
ENDMDL
MODEL 2
REMARK VINA RESULT:    -7.519      2.775      5.667
REMARK INTER + INTRA:         -11.473
REMARK INTER:                 -10.642
REMARK INTRA:                  -0.830
REMARK UNBOUND:                -0.877
REMARK  7 active torsions:
REMARK  status: ('A' for Active; 'I' for Inactive)
REMARK    1  A    between atoms: C22_10  and  C19_16 
REMARK       I    between atoms: C22_10  and  N25_19 
REMARK    2  A    between atoms: C12_12  and  C18_15 
REMARK    3  A    between atoms: N25_19  and  C37_23 
REMARK    4  A    between atoms: C37_23  and  C38_24 
REMARK    5  A    between atoms: C38_24  and  N4_25 
REMARK    6  A    between atoms: N4_25  and  C39_26 
REMARK    7  A    between atoms: N4_25  and  C40_27 
ROOT
HETATM    1  C4    D T1294       0.449  10.859   4.982  1.00 32.29     0.052 C 
HETATM    2  C13   D T1294       3.197   8.308   5.371  1.00 33.66     0.002 A 
HETATM    3  C3    D T1294       4.402   7.372   5.193  1.00 26.27     0.033 C 
HETATM    4  C14   D T1294       1.436   9.802   5.338  1.00 36.57     0.064 A 
HETATM    5  C18   D T1294       2.374   8.226   6.539  1.00 31.41     0.077 A 
HETATM    6  C19   D T1294       2.571   9.276   4.580  1.00 39.79     0.069 A 
HETATM    7  N23   D T1294       1.399   9.140   6.471  1.00 32.77    -0.250 NA
ENDROOT
BRANCH   5   8
HETATM    8  C12   D T1294       2.579   7.172   7.683  1.00 29.19     0.024 C 
HETATM    9  C20   D T1294       1.700   6.163   8.085  1.00 28.62     0.061 A 
HETATM   10  C17   D T1294       2.020   5.231   9.086  1.00 28.15     0.025 A 
HETATM   11  C21   D T1294       0.377   5.790   7.651  1.00 24.63     0.279 A 
HETATM   12  C7    D T1294       3.208   5.095   9.861  1.00 25.53     0.031 A 
HETATM   13  C16   D T1294       0.897   4.325   9.239  1.00 25.62     0.085 A 
HETATM   14  C15   D T1294       3.260   4.041  10.790  1.00 28.19     0.140 A 
HETATM   15  C5    D T1294       2.152   3.078  10.978  1.00 25.66     0.031 A 
HETATM   16  F29   D T1294       4.285   3.894  11.496  1.00 36.26    -0.204 F 
HETATM   17  C6    D T1294       1.003   3.213  10.277  1.00 26.69     0.021 A 
HETATM   18  N24   D T1294      -0.145   4.690   8.330  1.00 23.74    -0.208 NA
HETATM   19  O27   D T1294      -0.241   6.382   6.838  1.00 23.40    -0.265 OA
ENDBRANCH   5   8
BRANCH   6  20
HETATM   20  C22   D T1294       2.872   9.752   3.246  1.00 51.05     0.280 C 
HETATM   21  N25   D T1294       3.365  10.991   3.209  1.00 55.83    -0.209 NA
HETATM   22  O28   D T1294       2.758   9.105   2.248  1.00 56.66    -0.265 OA
BRANCH  21  23
HETATM   23  C37   D T1294       3.748  11.657   2.052  1.00 58.65     0.101 C 
BRANCH  23  24
HETATM   24  C38   D T1294       2.476  12.362   1.612  1.00 62.48     0.153 C 
BRANCH  24  25
HETATM   25  N4    D T1294       1.817  12.042   0.288  1.00 67.11    -0.327 N 
BRANCH  25  26
HETATM   26  C39   D T1294       2.981  11.821  -0.741  1.00 68.16     0.049 C 
HETATM   27  C42   D T1294       3.719  12.996  -1.552  1.00 67.52     0.051 C 
ENDBRANCH  25  26
BRANCH  25  28
HETATM   28  C40   D T1294       0.400  12.812  -0.067  1.00 67.42     0.049 C 
HETATM   29  C41   D T1294      -0.343  12.945  -1.420  1.00 66.32     0.051 C 
ENDBRANCH  25  28
ENDBRANCH  24  25
ENDBRANCH  23  24
ENDBRANCH  21  23
ENDBRANCH   6  20
TORSDOF 7
ENDMDL
MODEL 3
REMARK VINA RESULT:    -7.508      2.841      5.463
REMARK INTER + INTRA:         -11.457
REMARK INTER:                 -10.322
REMARK INTRA:                  -1.135
REMARK UNBOUND:                -0.877
REMARK  7 active torsions:
REMARK  status: ('A' for Active; 'I' for Inactive)
REMARK    1  A    between atoms: C22_10  and  C19_16 
REMARK       I    between atoms: C22_10  and  N25_19 
REMARK    2  A    between atoms: C12_12  and  C18_15 
REMARK    3  A    between atoms: N25_19  and  C37_23 
REMARK    4  A    between atoms: C37_23  and  C38_24 
REMARK    5  A    between atoms: C38_24  and  N4_25 
REMARK    6  A    between atoms: N4_25  and  C39_26 
REMARK    7  A    between atoms: N4_25  and  C40_27 
ROOT
HETATM    1  C4    D T1294       0.579  10.925   4.920  1.00 32.29     0.052 C 
HETATM    2  C13   D T1294       3.337   8.409   5.449  1.00 33.66     0.002 A 
HETATM    3  C3    D T1294       4.566   7.496   5.336  1.00 26.27     0.033 C 
HETATM    4  C14   D T1294       1.558   9.877   5.324  1.00 36.57     0.064 A 
HETATM    5  C18   D T1294       2.439   8.293   6.557  1.00 31.41     0.077 A 
HETATM    6  C19   D T1294       2.749   9.382   4.635  1.00 39.79     0.069 A 
HETATM    7  N23   D T1294       1.455   9.193   6.440  1.00 32.77    -0.250 NA
ENDROOT
BRANCH   5   8
HETATM    8  C12   D T1294       2.584   7.222   7.693  1.00 29.19     0.024 C 
HETATM    9  C20   D T1294       1.676   6.219   8.046  1.00 28.62     0.061 A 
HETATM   10  C17   D T1294       1.943   5.270   9.047  1.00 28.15     0.025 A 
HETATM   11  C21   D T1294       0.366   5.871   7.556  1.00 24.63     0.279 A 
HETATM   12  C7    D T1294       3.098   5.106   9.866  1.00 25.53     0.031 A 
HETATM   13  C16   D T1294       0.803   4.377   9.143  1.00 25.62     0.085 A 
HETATM   14  C15   D T1294       3.100   4.040  10.782  1.00 28.19     0.140 A 
HETATM   15  C5    D T1294       1.972   3.090  10.912  1.00 25.66     0.031 A 
HETATM   16  F29   D T1294       4.093   3.869  11.525  1.00 36.26    -0.204 F 
HETATM   17  C6    D T1294       0.854   3.251  10.168  1.00 26.69     0.021 A 
HETATM   18  N24   D T1294      -0.197   4.769   8.198  1.00 23.74    -0.208 NA
HETATM   19  O27   D T1294      -0.210   6.482   6.728  1.00 23.40    -0.265 OA
ENDBRANCH   5   8
BRANCH   6  20
HETATM   20  C22   D T1294       3.132   9.888   3.332  1.00 51.05     0.280 C 
HETATM   21  N25   D T1294       3.782  11.052   3.370  1.00 55.83    -0.209 NA
HETATM   22  O28   D T1294       2.951   9.317   2.299  1.00 56.66    -0.265 OA
BRANCH  21  23
HETATM   23  C37   D T1294       4.267  11.725   2.257  1.00 58.65     0.101 C 
BRANCH  23  24
HETATM   24  C38   D T1294       5.772  11.545   2.362  1.00 62.48     0.153 C 
BRANCH  24  25
HETATM   25  N4    D T1294       6.459  10.323   1.795  1.00 67.11    -0.327 N 
BRANCH  25  26
HETATM   26  C39   D T1294       6.843   9.423   3.022  1.00 68.16     0.049 C 
HETATM   27  C42   D T1294       7.253   9.982   4.472  1.00 67.52     0.051 C 
ENDBRANCH  25  26
BRANCH  25  28
HETATM   28  C40   D T1294       7.415  10.531   0.464  1.00 67.42     0.049 C 
HETATM   29  C41   D T1294       8.902  10.954   0.369  1.00 66.32     0.051 C 
ENDBRANCH  25  28
ENDBRANCH  24  25
ENDBRANCH  23  24
ENDBRANCH  21  23
ENDBRANCH   6  20
TORSDOF 7
ENDMDL
MODEL 4
REMARK VINA RESULT:    -7.197      2.839      5.665
REMARK INTER + INTRA:         -11.020
REMARK INTER:                 -10.596
REMARK INTRA:                  -0.424
REMARK UNBOUND:                -0.877
REMARK  7 active torsions:
REMARK  status: ('A' for Active; 'I' for Inactive)
REMARK    1  A    between atoms: C22_10  and  C19_16 
REMARK       I    between atoms: C22_10  and  N25_19 
REMARK    2  A    between atoms: C12_12  and  C18_15 
REMARK    3  A    between atoms: N25_19  and  C37_23 
REMARK    4  A    between atoms: C37_23  and  C38_24 
REMARK    5  A    between atoms: C38_24  and  N4_25 
REMARK    6  A    between atoms: N4_25  and  C39_26 
REMARK    7  A    between atoms: N4_25  and  C40_27 
ROOT
HETATM    1  C4    D T1294       0.686  10.911   4.884  1.00 32.29     0.052 C 
HETATM    2  C13   D T1294       3.368   8.316   5.420  1.00 33.66     0.002 A 
HETATM    3  C3    D T1294       4.566   7.362   5.307  1.00 26.27     0.033 C 
HETATM    4  C14   D T1294       1.636   9.839   5.292  1.00 36.57     0.064 A 
HETATM    5  C18   D T1294       2.481   8.247   6.541  1.00 31.41     0.077 A 
HETATM    6  C19   D T1294       2.802   9.295   4.598  1.00 39.79     0.069 A 
HETATM    7  N23   D T1294       1.526   9.177   6.420  1.00 32.77    -0.250 NA
ENDROOT
BRANCH   5   8
HETATM    8  C12   D T1294       2.606   7.190   7.693  1.00 29.19     0.024 C 
HETATM    9  C20   D T1294       1.693   6.190   8.040  1.00 28.62     0.061 A 
HETATM   10  C17   D T1294       1.943   5.254   9.057  1.00 28.15     0.025 A 
HETATM   11  C21   D T1294       0.394   5.833   7.529  1.00 24.63     0.279 A 
HETATM   12  C7    D T1294       3.082   5.103   9.901  1.00 25.53     0.031 A 
HETATM   13  C16   D T1294       0.802   4.360   9.142  1.00 25.62     0.085 A 
HETATM   14  C15   D T1294       3.067   4.047  10.829  1.00 28.19     0.140 A 
HETATM   15  C5    D T1294       1.939   3.097  10.949  1.00 25.66     0.031 A 
HETATM   16  F29   D T1294       4.046   3.887  11.594  1.00 36.26    -0.204 F 
HETATM   17  C6    D T1294       0.835   3.246  10.182  1.00 26.69     0.021 A 
HETATM   18  N24   D T1294      -0.180   4.739   8.173  1.00 23.74    -0.208 NA
HETATM   19  O27   D T1294      -0.168   6.433   6.682  1.00 23.40    -0.265 OA
ENDBRANCH   5   8
BRANCH   6  20
HETATM   20  C22   D T1294       3.184   9.767   3.282  1.00 51.05     0.280 C 
HETATM   21  N25   D T1294       3.899  10.892   3.294  1.00 55.83    -0.209 NA
HETATM   22  O28   D T1294       2.948   9.198   2.258  1.00 56.66    -0.265 OA
BRANCH  21  23
HETATM   23  C37   D T1294       4.397  11.527   2.165  1.00 58.65     0.101 C 
BRANCH  23  24
HETATM   24  C38   D T1294       3.145  11.957   1.420  1.00 62.48     0.153 C 
BRANCH  24  25
HETATM   25  N4    D T1294       3.172  12.243  -0.066  1.00 67.11    -0.327 N 
BRANCH  25  26
HETATM   26  C39   D T1294       2.433  11.045  -0.759  1.00 68.16     0.049 C 
HETATM   27  C42   D T1294       0.971  11.134  -1.421  1.00 67.52     0.051 C 
ENDBRANCH  25  26
BRANCH  25  28
HETATM   28  C40   D T1294       4.516  12.981  -0.679  1.00 67.42     0.049 C 
HETATM   29  C41   D T1294       4.637  14.054  -1.790  1.00 66.32     0.051 C 
ENDBRANCH  25  28
ENDBRANCH  24  25
ENDBRANCH  23  24
ENDBRANCH  21  23
ENDBRANCH   6  20
TORSDOF 7
ENDMDL
MODEL 5
REMARK VINA RESULT:    -7.101      3.751      8.079
REMARK INTER + INTRA:         -10.884
REMARK INTER:                  -9.733
REMARK INTRA:                  -1.152
REMARK UNBOUND:                -0.877
REMARK  7 active torsions:
REMARK  status: ('A' for Active; 'I' for Inactive)
REMARK    1  A    between atoms: C22_10  and  C19_16 
REMARK       I    between atoms: C22_10  and  N25_19 
REMARK    2  A    between atoms: C12_12  and  C18_15 
REMARK    3  A    between atoms: N25_19  and  C37_23 
REMARK    4  A    between atoms: C37_23  and  C38_24 
REMARK    5  A    between atoms: C38_24  and  N4_25 
REMARK    6  A    between atoms: N4_25  and  C39_26 
REMARK    7  A    between atoms: N4_25  and  C40_27 
ROOT
HETATM    1  C4    D T1294       5.727   3.391  13.636  1.00 32.29     0.052 C 
HETATM    2  C13   D T1294       6.071   4.200   9.970  1.00 33.66     0.002 A 
HETATM    3  C3    D T1294       6.559   4.444   8.534  1.00 26.27     0.033 C 
HETATM    4  C14   D T1294       5.642   3.774  12.199  1.00 36.57     0.064 A 
HETATM    5  C18   D T1294       4.728   4.514  10.349  1.00 31.41     0.077 A 
HETATM    6  C19   D T1294       6.671   3.776  11.160  1.00 39.79     0.069 A 
HETATM    7  N23   D T1294       4.538   4.210  11.638  1.00 32.77    -0.250 NA
ENDROOT
BRANCH   5   8
HETATM    8  C12   D T1294       3.677   5.169   9.387  1.00 29.19     0.024 C 
HETATM    9  C20   D T1294       2.327   4.837   9.238  1.00 28.62     0.061 A 
HETATM   10  C17   D T1294       1.461   5.540   8.385  1.00 28.15     0.025 A 
HETATM   11  C21   D T1294       1.499   3.823   9.841  1.00 24.63     0.279 A 
HETATM   12  C7    D T1294       1.718   6.662   7.545  1.00 25.53     0.031 A 
HETATM   13  C16   D T1294       0.142   4.944   8.484  1.00 25.62     0.085 A 
HETATM   14  C15   D T1294       0.640   7.182   6.806  1.00 28.19     0.140 A 
HETATM   15  C5    D T1294      -0.728   6.624   6.880  1.00 25.66     0.031 A 
HETATM   16  F29   D T1294       0.829   8.162   6.050  1.00 36.26    -0.204 F 
HETATM   17  C6    D T1294      -0.983   5.537   7.644  1.00 26.69     0.021 A 
HETATM   18  N24   D T1294       0.176   3.850   9.405  1.00 23.74    -0.208 NA
HETATM   19  O27   D T1294       1.900   3.006  10.592  1.00 23.40    -0.265 OA
ENDBRANCH   5   8
BRANCH   6  20
HETATM   20  C22   D T1294       8.039   3.399  11.452  1.00 51.05     0.280 C 
HETATM   21  N25   D T1294       8.875   4.431  11.572  1.00 55.83    -0.209 NA
HETATM   22  O28   D T1294       8.413   2.279  11.634  1.00 56.66    -0.265 OA
BRANCH  21  23
HETATM   23  C37   D T1294      10.227   4.326  11.868  1.00 58.65     0.101 C 
BRANCH  23  24
HETATM   24  C38   D T1294      10.788   5.673  11.446  1.00 62.48     0.153 C 
BRANCH  24  25
HETATM   25  N4    D T1294      11.072   5.986   9.993  1.00 67.11    -0.327 N 
BRANCH  25  26
HETATM   26  C39   D T1294      10.285   7.303   9.664  1.00 68.16     0.049 C 
HETATM   27  C42   D T1294       8.688   7.400   9.514  1.00 67.52     0.051 C 
ENDBRANCH  25  26
BRANCH  25  28
HETATM   28  C40   D T1294      11.226   4.714   8.952  1.00 67.42     0.049 C 
HETATM   29  C41   D T1294      10.233   4.178   7.890  1.00 66.32     0.051 C 
ENDBRANCH  25  28
ENDBRANCH  24  25
ENDBRANCH  23  24
ENDBRANCH  21  23
ENDBRANCH   6  20
TORSDOF 7
ENDMDL
MODEL 6
REMARK VINA RESULT:    -6.937      3.294      9.285
REMARK INTER + INTRA:         -10.653
REMARK INTER:                  -9.868
REMARK INTRA:                  -0.785
REMARK UNBOUND:                -0.877
REMARK  7 active torsions:
REMARK  status: ('A' for Active; 'I' for Inactive)
REMARK    1  A    between atoms: C22_10  and  C19_16 
REMARK       I    between atoms: C22_10  and  N25_19 
REMARK    2  A    between atoms: C12_12  and  C18_15 
REMARK    3  A    between atoms: N25_19  and  C37_23 
REMARK    4  A    between atoms: C37_23  and  C38_24 
REMARK    5  A    between atoms: C38_24  and  N4_25 
REMARK    6  A    between atoms: N4_25  and  C39_26 
REMARK    7  A    between atoms: N4_25  and  C40_27 
ROOT
HETATM    1  C4    D T1294       8.410   4.885   7.989  1.00 32.29     0.052 C 
HETATM    2  C13   D T1294       5.235   4.662  10.008  1.00 33.66     0.002 A 
HETATM    3  C3    D T1294       4.164   4.447  11.089  1.00 26.27     0.033 C 
HETATM    4  C14   D T1294       7.049   4.860   8.593  1.00 36.57     0.064 A 
HETATM    5  C18   D T1294       4.866   5.050   8.681  1.00 31.41     0.077 A 
HETATM    6  C19   D T1294       6.621   4.490   9.941  1.00 39.79     0.069 A 
HETATM    7  N23   D T1294       5.964   5.181   7.927  1.00 32.77    -0.250 NA
ENDROOT
BRANCH   5   8
HETATM    8  C12   D T1294       3.384   5.230   8.201  1.00 29.19     0.024 C 
HETATM    9  C20   D T1294       2.830   6.320   7.524  1.00 28.62     0.061 A 
HETATM   10  C17   D T1294       1.495   6.343   7.086  1.00 28.15     0.025 A 
HETATM   11  C21   D T1294       3.374   7.585   7.098  1.00 24.63     0.279 A 
HETATM   12  C7    D T1294       0.477   5.353   7.206  1.00 25.53     0.031 A 
HETATM   13  C16   D T1294       1.260   7.607   6.413  1.00 25.62     0.085 A 
HETATM   14  C15   D T1294      -0.780   5.642   6.646  1.00 28.19     0.140 A 
HETATM   15  C5    D T1294      -1.072   6.908   5.936  1.00 25.66     0.031 A 
HETATM   16  F29   D T1294      -1.703   4.801   6.739  1.00 36.26    -0.204 F 
HETATM   17  C6    D T1294      -0.129   7.873   5.843  1.00 26.69     0.021 A 
HETATM   18  N24   D T1294       2.455   8.393   6.431  1.00 23.74    -0.208 NA
HETATM   19  O27   D T1294       4.474   7.940   7.332  1.00 23.40    -0.265 OA
ENDBRANCH   5   8
BRANCH   6  20
HETATM   20  C22   D T1294       7.570   4.027  10.933  1.00 51.05     0.280 C 
HETATM   21  N25   D T1294       7.284   2.827  11.440  1.00 55.83    -0.209 NA
HETATM   22  O28   D T1294       8.561   4.611  11.254  1.00 56.66    -0.265 OA
BRANCH  21  23
HETATM   23  C37   D T1294       8.052   2.164  12.388  1.00 58.65     0.101 C 
BRANCH  23  24
HETATM   24  C38   D T1294       7.244   2.313  13.665  1.00 62.48     0.153 C 
BRANCH  24  25
HETATM   25  N4    D T1294       7.760   3.125  14.833  1.00 67.11    -0.327 N 
BRANCH  25  26
HETATM   26  C39   D T1294       7.861   2.136  16.047  1.00 68.16     0.049 C 
HETATM   27  C42   D T1294       9.178   1.920  16.942  1.00 67.52     0.051 C 
ENDBRANCH  25  26
BRANCH  25  28
HETATM   28  C40   D T1294       7.259   4.694  14.955  1.00 67.42     0.049 C 
HETATM   29  C41   D T1294       7.906   5.986  14.395  1.00 66.32     0.051 C 
ENDBRANCH  25  28
ENDBRANCH  24  25
ENDBRANCH  23  24
ENDBRANCH  21  23
ENDBRANCH   6  20
TORSDOF 7
ENDMDL
MODEL 7
REMARK VINA RESULT:    -6.861      3.326      8.970
REMARK INTER + INTRA:         -10.546
REMARK INTER:                  -9.760
REMARK INTRA:                  -0.787
REMARK UNBOUND:                -0.877
REMARK  7 active torsions:
REMARK  status: ('A' for Active; 'I' for Inactive)
REMARK    1  A    between atoms: C22_10  and  C19_16 
REMARK       I    between atoms: C22_10  and  N25_19 
REMARK    2  A    between atoms: C12_12  and  C18_15 
REMARK    3  A    between atoms: N25_19  and  C37_23 
REMARK    4  A    between atoms: C37_23  and  C38_24 
REMARK    5  A    between atoms: C38_24  and  N4_25 
REMARK    6  A    between atoms: N4_25  and  C39_26 
REMARK    7  A    between atoms: N4_25  and  C40_27 
ROOT
HETATM    1  C4    D T1294       8.274   4.732   8.450  1.00 32.29     0.052 C 
HETATM    2  C13   D T1294       4.973   4.348  10.230  1.00 33.66     0.002 A 
HETATM    3  C3    D T1294       3.833   4.040  11.213  1.00 26.27     0.033 C 
HETATM    4  C14   D T1294       6.876   4.664   8.960  1.00 36.57     0.064 A 
HETATM    5  C18   D T1294       4.693   4.869   8.927  1.00 31.41     0.077 A 
HETATM    6  C19   D T1294       6.359   4.168  10.235  1.00 39.79     0.069 A 
HETATM    7  N23   D T1294       5.838   5.061   8.261  1.00 32.77    -0.250 NA
ENDROOT
BRANCH   5   8
HETATM    8  C12   D T1294       3.247   5.112   8.373  1.00 29.19     0.024 C 
HETATM    9  C20   D T1294       2.768   6.235   7.691  1.00 28.62     0.061 A 
HETATM   10  C17   D T1294       1.461   6.316   7.184  1.00 28.15     0.025 A 
HETATM   11  C21   D T1294       3.378   7.488   7.324  1.00 24.63     0.279 A 
HETATM   12  C7    D T1294       0.403   5.361   7.227  1.00 25.53     0.031 A 
HETATM   13  C16   D T1294       1.306   7.601   6.528  1.00 25.62     0.085 A 
HETATM   14  C15   D T1294      -0.810   5.707   6.608  1.00 28.19     0.140 A 
HETATM   15  C5    D T1294      -1.019   6.997   5.912  1.00 25.66     0.031 A 
HETATM   16  F29   D T1294      -1.766   4.899   6.633  1.00 36.26    -0.204 F 
HETATM   17  C6    D T1294      -0.039   7.929   5.891  1.00 26.69     0.021 A 
HETATM   18  N24   D T1294       2.526   8.342   6.627  1.00 23.74    -0.208 NA
HETATM   19  O27   D T1294       4.477   7.798   7.623  1.00 23.40    -0.265 OA
ENDBRANCH   5   8
BRANCH   6  20
HETATM   20  C22   D T1294       7.240   3.598  11.235  1.00 51.05     0.280 C 
HETATM   21  N25   D T1294       8.085   4.475  11.779  1.00 55.83    -0.209 NA
HETATM   22  O28   D T1294       7.204   2.464  11.609  1.00 56.66    -0.265 OA
BRANCH  21  23
HETATM   23  C37   D T1294       9.010   4.174  12.769  1.00 58.65     0.101 C 
BRANCH  23  24
HETATM   24  C38   D T1294      10.295   3.941  11.995  1.00 62.48     0.153 C 
BRANCH  24  25
HETATM   25  N4    D T1294      10.844   2.547  11.782  1.00 67.11    -0.327 N 
BRANCH  25  26
HETATM   26  C39   D T1294      11.114   2.411  10.242  1.00 68.16     0.049 C 
HETATM   27  C42   D T1294      11.653   1.078   9.524  1.00 67.52     0.051 C 
ENDBRANCH  25  26
BRANCH  25  28
HETATM   28  C40   D T1294      10.242   1.335  12.728  1.00 67.42     0.049 C 
HETATM   29  C41   D T1294      10.541  -0.185  12.698  1.00 66.32     0.051 C 
ENDBRANCH  25  28
ENDBRANCH  24  25
ENDBRANCH  23  24
ENDBRANCH  21  23
ENDBRANCH   6  20
TORSDOF 7
ENDMDL
MODEL 8
REMARK VINA RESULT:    -6.837      3.073      6.180
REMARK INTER + INTRA:         -10.511
REMARK INTER:                  -9.309
REMARK INTRA:                  -1.202
REMARK UNBOUND:                -0.877
REMARK  7 active torsions:
REMARK  status: ('A' for Active; 'I' for Inactive)
REMARK    1  A    between atoms: C22_10  and  C19_16 
REMARK       I    between atoms: C22_10  and  N25_19 
REMARK    2  A    between atoms: C12_12  and  C18_15 
REMARK    3  A    between atoms: N25_19  and  C37_23 
REMARK    4  A    between atoms: C37_23  and  C38_24 
REMARK    5  A    between atoms: C38_24  and  N4_25 
REMARK    6  A    between atoms: N4_25  and  C39_26 
REMARK    7  A    between atoms: N4_25  and  C40_27 
ROOT
HETATM    1  C4    D T1294       7.953  10.871   6.732  1.00 32.29     0.052 C 
HETATM    2  C13   D T1294       6.375   7.568   5.830  1.00 33.66     0.002 A 
HETATM    3  C3    D T1294       5.848   6.307   5.129  1.00 26.27     0.033 C 
HETATM    4  C14   D T1294       7.258   9.561   6.594  1.00 36.57     0.064 A 
HETATM    5  C18   D T1294       6.075   7.819   7.206  1.00 31.41     0.077 A 
HETATM    6  C19   D T1294       7.085   8.702   5.423  1.00 39.79     0.069 A 
HETATM    7  N23   D T1294       6.645   8.967   7.591  1.00 32.77    -0.250 NA
ENDROOT
BRANCH   5   8
HETATM    8  C12   D T1294       5.164   6.895   8.086  1.00 29.19     0.024 C 
HETATM    9  C20   D T1294       3.776   6.746   8.019  1.00 28.62     0.061 A 
HETATM   10  C17   D T1294       3.070   5.835   8.822  1.00 28.15     0.025 A 
HETATM   11  C21   D T1294       2.764   7.374   7.207  1.00 24.63     0.279 A 
HETATM   12  C7    D T1294       3.549   4.920   9.805  1.00 25.53     0.031 A 
HETATM   13  C16   D T1294       1.661   5.929   8.486  1.00 25.62     0.085 A 
HETATM   14  C15   D T1294       2.604   4.101  10.446  1.00 28.19     0.140 A 
HETATM   15  C5    D T1294       1.158   4.144  10.133  1.00 25.66     0.031 A 
HETATM   16  F29   D T1294       2.986   3.291  11.322  1.00 36.26    -0.204 F 
HETATM   17  C6    D T1294       0.680   5.030   9.229  1.00 26.69     0.021 A 
HETATM   18  N24   D T1294       1.475   6.913   7.465  1.00 23.74    -0.208 NA
HETATM   19  O27   D T1294       2.984   8.236   6.432  1.00 23.40    -0.265 OA
ENDBRANCH   5   8
BRANCH   6  20
HETATM   20  C22   D T1294       7.597   9.087   4.123  1.00 51.05     0.280 C 
HETATM   21  N25   D T1294       6.718   9.746   3.366  1.00 55.83    -0.209 NA
HETATM   22  O28   D T1294       8.715   8.901   3.748  1.00 56.66    -0.265 OA
BRANCH  21  23
HETATM   23  C37   D T1294       6.978  10.235   2.093  1.00 58.65     0.101 C 
BRANCH  23  24
HETATM   24  C38   D T1294       5.833   9.684   1.262  1.00 62.48     0.153 C 
BRANCH  24  25
HETATM   25  N4    D T1294       4.627  10.534   0.923  1.00 67.11    -0.327 N 
BRANCH  25  26
HETATM   26  C39   D T1294       5.186  11.906   0.406  1.00 68.16     0.049 C 
HETATM   27  C42   D T1294       4.362  12.944  -0.503  1.00 67.52     0.051 C 
ENDBRANCH  25  26
BRANCH  25  28
HETATM   28  C40   D T1294       3.289  10.380   1.878  1.00 67.42     0.049 C 
HETATM   29  C41   D T1294       2.968   9.329   2.970  1.00 66.32     0.051 C 
ENDBRANCH  25  28
ENDBRANCH  24  25
ENDBRANCH  23  24
ENDBRANCH  21  23
ENDBRANCH   6  20
TORSDOF 7
ENDMDL
MODEL 9
REMARK VINA RESULT:    -6.825      3.416      7.707
REMARK INTER + INTRA:         -10.496
REMARK INTER:                  -9.535
REMARK INTRA:                  -0.961
REMARK UNBOUND:                -0.877
REMARK  7 active torsions:
REMARK  status: ('A' for Active; 'I' for Inactive)
REMARK    1  A    between atoms: C22_10  and  C19_16 
REMARK       I    between atoms: C22_10  and  N25_19 
REMARK    2  A    between atoms: C12_12  and  C18_15 
REMARK    3  A    between atoms: N25_19  and  C37_23 
REMARK    4  A    between atoms: C37_23  and  C38_24 
REMARK    5  A    between atoms: C38_24  and  N4_25 
REMARK    6  A    between atoms: N4_25  and  C39_26 
REMARK    7  A    between atoms: N4_25  and  C40_27 
ROOT
HETATM    1  C4    D T1294       6.329   3.777  14.140  1.00 32.29     0.052 C 
HETATM    2  C13   D T1294       5.446   3.339  10.501  1.00 33.66     0.002 A 
HETATM    3  C3    D T1294       5.441   3.090   8.985  1.00 26.27     0.033 C 
HETATM    4  C14   D T1294       5.769   3.672  12.763  1.00 36.57     0.064 A 
HETATM    5  C18   D T1294       4.266   3.792  11.172  1.00 31.41     0.077 A 
HETATM    6  C19   D T1294       6.420   3.311  11.504  1.00 39.79     0.069 A 
HETATM    7  N23   D T1294       4.514   3.929  12.480  1.00 32.77    -0.250 NA
ENDROOT
BRANCH   5   8
HETATM    8  C12   D T1294       2.918   4.123  10.443  1.00 29.19     0.024 C 
HETATM    9  C20   D T1294       2.675   5.130   9.504  1.00 28.62     0.061 A 
HETATM   10  C17   D T1294       1.434   5.292   8.868  1.00 28.15     0.025 A 
HETATM   11  C21   D T1294       3.507   6.168   8.950  1.00 24.63     0.279 A 
HETATM   12  C7    D T1294       0.232   4.539   9.003  1.00 25.53     0.031 A 
HETATM   13  C16   D T1294       1.536   6.414   7.952  1.00 25.62     0.085 A 
HETATM   14  C15   D T1294      -0.866   4.919   8.212  1.00 28.19     0.140 A 
HETATM   15  C5    D T1294      -0.814   6.044   7.252  1.00 25.66     0.031 A 
HETATM   16  F29   D T1294      -1.943   4.287   8.310  1.00 36.26    -0.204 F 
HETATM   17  C6    D T1294       0.306   6.792   7.135  1.00 26.69     0.021 A 
HETATM   18  N24   D T1294       2.853   6.969   8.015  1.00 23.74    -0.208 NA
HETATM   19  O27   D T1294       4.621   6.368   9.284  1.00 23.40    -0.265 OA
ENDBRANCH   5   8
BRANCH   6  20
HETATM   20  C22   D T1294       7.837   3.016  11.445  1.00 51.05     0.280 C 
HETATM   21  N25   D T1294       8.556   3.931  10.793  1.00 55.83    -0.209 NA
HETATM   22  O28   D T1294       8.361   2.080  11.970  1.00 56.66    -0.265 OA
BRANCH  21  23
HETATM   23  C37   D T1294       9.933   3.881  10.621  1.00 58.65     0.101 C 
BRANCH  23  24
HETATM   24  C38   D T1294      10.319   5.337  10.430  1.00 62.48     0.153 C 
BRANCH  24  25
HETATM   25  N4    D T1294       9.305   6.368   9.985  1.00 67.11    -0.327 N 
BRANCH  25  26
HETATM   26  C39   D T1294       9.343   6.377   8.416  1.00 68.16     0.049 C 
HETATM   27  C42   D T1294      10.677   6.545   7.536  1.00 67.52     0.051 C 
ENDBRANCH  25  26
BRANCH  25  28
HETATM   28  C40   D T1294       9.132   7.722  10.915  1.00 67.42     0.049 C 
HETATM   29  C41   D T1294       8.930   9.198  10.488  1.00 66.32     0.051 C 
ENDBRANCH  25  28
ENDBRANCH  24  25
ENDBRANCH  23  24
ENDBRANCH  21  23
ENDBRANCH   6  20
TORSDOF 7
ENDMDL
