MODEL 1
REMARK VINA RESULT:    -6.917      0.000      0.000
REMARK INTER + INTRA:         -10.692
REMARK INTER:                  -9.748
REMARK INTRA:                  -0.944
REMARK UNBOUND:                -0.944
REMARK  7 active torsions:
REMARK  status: ('A' for Active; 'I' for Inactive)
REMARK    1  A    between atoms: C22_10  and  C19_16 
REMARK       I    between atoms: C22_10  and  N25_19 
REMARK    2  A    between atoms: C12_12  and  C18_15 
REMARK    3  A    between atoms: N25_19  and  C37_23 
REMARK    4  A    between atoms: C37_23  and  C38_24 
REMARK    5  A    between atoms: C38_24  and  N4_25 
REMARK    6  A    between atoms: N4_25  and  C39_26 
REMARK    7  A    between atoms: N4_25  and  C40_27 
ROOT
HETATM    1  C4    D T1294      -2.108  -5.777  -5.054  1.00 32.29     0.052 C 
HETATM    2  C13   D T1294      -5.549  -5.672  -6.591  1.00 33.66     0.002 A 
HETATM    3  C3    D T1294      -6.908  -5.270  -7.183  1.00 26.27     0.033 C 
HETATM    4  C14   D T1294      -3.461  -5.965  -5.648  1.00 36.57     0.064 A 
HETATM    5  C18   D T1294      -5.223  -7.048  -6.375  1.00 31.41     0.077 A 
HETATM    6  C19   D T1294      -4.447  -4.977  -6.081  1.00 39.79     0.069 A 
HETATM    7  N23   D T1294      -3.991  -7.146  -5.861  1.00 32.77    -0.250 NA
ENDROOT
BRANCH   5   8
HETATM    8  C12   D T1294      -6.209  -8.235  -6.653  1.00 29.19     0.024 C 
HETATM    9  C20   D T1294      -5.914  -9.481  -7.216  1.00 28.62     0.061 A 
HETATM   10  C17   D T1294      -6.875 -10.495  -7.360  1.00 28.15     0.025 A 
HETATM   11  C21   D T1294      -4.698 -10.053  -7.737  1.00 24.63     0.279 A 
HETATM   12  C7    D T1294      -8.252 -10.508  -6.999  1.00 25.53     0.031 A 
HETATM   13  C16   D T1294      -6.229 -11.648  -7.962  1.00 25.62     0.085 A 
HETATM   14  C15   D T1294      -8.979 -11.686  -7.244  1.00 28.19     0.140 A 
HETATM   15  C5    D T1294      -8.369 -12.896  -7.840  1.00 25.66     0.031 A 
HETATM   16  F29   D T1294     -10.194 -11.732  -6.949  1.00 36.26    -0.204 F 
HETATM   17  C6    D T1294      -7.071 -12.892  -8.221  1.00 26.69     0.021 A 
HETATM   18  N24   D T1294      -4.850 -11.358  -8.204  1.00 23.74    -0.208 NA
HETATM   19  O27   D T1294      -3.677  -9.468  -7.818  1.00 23.40    -0.265 OA
ENDBRANCH   5   8
BRANCH   6  20
HETATM   20  C22   D T1294      -4.206  -3.555  -5.935  1.00 51.05     0.280 C 
HETATM   21  N25   D T1294      -4.298  -2.868  -7.074  1.00 55.83    -0.209 NA
HETATM   22  O28   D T1294      -3.998  -3.002  -4.896  1.00 56.66    -0.265 OA
BRANCH  21  23
HETATM   23  C37   D T1294      -4.127  -1.495  -7.186  1.00 58.65     0.101 C 
BRANCH  23  24
HETATM   24  C38   D T1294      -5.466  -1.015  -7.721  1.00 62.48     0.153 C 
BRANCH  24  25
HETATM   25  N4    D T1294      -6.770  -1.529  -7.152  1.00 67.11    -0.327 N 
BRANCH  25  26
HETATM   26  C39   D T1294      -7.830  -1.414  -8.304  1.00 68.16     0.049 C 
HETATM   27  C42   D T1294      -7.689  -0.450  -9.582  1.00 67.52     0.051 C 
ENDBRANCH  25  26
BRANCH  25  28
HETATM   28  C40   D T1294      -7.090  -1.213  -5.563  1.00 67.42     0.049 C 
HETATM   29  C41   D T1294      -7.389  -2.192  -4.400  1.00 66.32     0.051 C 
ENDBRANCH  25  28
ENDBRANCH  24  25
ENDBRANCH  23  24
ENDBRANCH  21  23
ENDBRANCH   6  20
TORSDOF 7
ENDMDL
MODEL 2
REMARK VINA RESULT:    -6.869      1.534      2.075
REMARK INTER + INTRA:         -10.624
REMARK INTER:                  -9.762
REMARK INTRA:                  -0.862
REMARK UNBOUND:                -0.944
REMARK  7 active torsions:
REMARK  status: ('A' for Active; 'I' for Inactive)
REMARK    1  A    between atoms: C22_10  and  C19_16 
REMARK       I    between atoms: C22_10  and  N25_19 
REMARK    2  A    between atoms: C12_12  and  C18_15 
REMARK    3  A    between atoms: N25_19  and  C37_23 
REMARK    4  A    between atoms: C37_23  and  C38_24 
REMARK    5  A    between atoms: C38_24  and  N4_25 
REMARK    6  A    between atoms: N4_25  and  C39_26 
REMARK    7  A    between atoms: N4_25  and  C40_27 
ROOT
HETATM    1  C4    D T1294      -2.931  -4.424  -5.058  1.00 32.29     0.052 C 
HETATM    2  C13   D T1294      -6.031  -5.001  -7.125  1.00 33.66     0.002 A 
HETATM    3  C3    D T1294      -7.269  -4.879  -8.025  1.00 26.27     0.033 C 
HETATM    4  C14   D T1294      -4.145  -4.869  -5.798  1.00 36.57     0.064 A 
HETATM    5  C18   D T1294      -5.708  -6.242  -6.488  1.00 31.41     0.077 A 
HETATM    6  C19   D T1294      -5.065  -4.112  -6.645  1.00 39.79     0.069 A 
HETATM    7  N23   D T1294      -4.590  -6.103  -5.766  1.00 32.77    -0.250 NA
ENDROOT
BRANCH   5   8
HETATM    8  C12   D T1294      -6.589  -7.535  -6.594  1.00 29.19     0.024 C 
HETATM    9  C20   D T1294      -6.166  -8.841  -6.862  1.00 28.62     0.061 A 
HETATM   10  C17   D T1294      -7.045  -9.936  -6.871  1.00 28.15     0.025 A 
HETATM   11  C21   D T1294      -4.874  -9.408  -7.155  1.00 24.63     0.279 A 
HETATM   12  C7    D T1294      -8.447  -9.986  -6.627  1.00 25.53     0.031 A 
HETATM   13  C16   D T1294      -6.276 -11.131  -7.168  1.00 25.62     0.085 A 
HETATM   14  C15   D T1294      -9.073 -11.243  -6.681  1.00 28.19     0.140 A 
HETATM   15  C5    D T1294      -8.337 -12.495  -6.964  1.00 25.66     0.031 A 
HETATM   16  F29   D T1294     -10.306 -11.325  -6.482  1.00 36.26    -0.204 F 
HETATM   17  C6    D T1294      -7.012 -12.465  -7.232  1.00 26.69     0.021 A 
HETATM   18  N24   D T1294      -4.900 -10.787  -7.353  1.00 23.74    -0.208 NA
HETATM   19  O27   D T1294      -3.887  -8.771  -7.272  1.00 23.40    -0.265 OA
ENDBRANCH   5   8
BRANCH   6  20
HETATM   20  C22   D T1294      -4.898  -2.687  -6.855  1.00 51.05     0.280 C 
HETATM   21  N25   D T1294      -5.502  -1.928  -5.939  1.00 55.83    -0.209 NA
HETATM   22  O28   D T1294      -4.240  -2.197  -7.723  1.00 56.66    -0.265 OA
BRANCH  21  23
HETATM   23  C37   D T1294      -5.472  -0.541  -5.915  1.00 58.65     0.101 C 
BRANCH  23  24
HETATM   24  C38   D T1294      -6.900  -0.151  -6.258  1.00 62.48     0.153 C 
BRANCH  24  25
HETATM   25  N4    D T1294      -7.259   0.406  -7.618  1.00 67.11    -0.327 N 
BRANCH  25  26
HETATM   26  C39   D T1294      -8.352   1.505  -7.372  1.00 68.16     0.049 C 
HETATM   27  C42   D T1294      -8.124   2.843  -6.512  1.00 67.52     0.051 C 
ENDBRANCH  25  26
BRANCH  25  28
HETATM   28  C40   D T1294      -7.268  -0.641  -8.895  1.00 67.42     0.049 C 
HETATM   29  C41   D T1294      -8.121  -0.616 -10.189  1.00 66.32     0.051 C 
ENDBRANCH  25  28
ENDBRANCH  24  25
ENDBRANCH  23  24
ENDBRANCH  21  23
ENDBRANCH   6  20
TORSDOF 7
ENDMDL
MODEL 3
REMARK VINA RESULT:    -6.688      3.556      9.712
REMARK INTER + INTRA:         -10.369
REMARK INTER:                  -9.249
REMARK INTRA:                  -1.119
REMARK UNBOUND:                -0.944
REMARK  7 active torsions:
REMARK  status: ('A' for Active; 'I' for Inactive)
REMARK    1  A    between atoms: C22_10  and  C19_16 
REMARK       I    between atoms: C22_10  and  N25_19 
REMARK    2  A    between atoms: C12_12  and  C18_15 
REMARK    3  A    between atoms: N25_19  and  C37_23 
REMARK    4  A    between atoms: C37_23  and  C38_24 
REMARK    5  A    between atoms: C38_24  and  N4_25 
REMARK    6  A    between atoms: N4_25  and  C39_26 
REMARK    7  A    between atoms: N4_25  and  C40_27 
ROOT
HETATM    1  C4    D T1294      -8.759 -10.942  -5.895  1.00 32.29     0.052 C 
HETATM    2  C13   D T1294      -5.424  -9.721  -7.162  1.00 33.66     0.002 A 
HETATM    3  C3    D T1294      -4.026  -9.569  -7.779  1.00 26.27     0.033 C 
HETATM    4  C14   D T1294      -7.499 -10.258  -6.300  1.00 36.57     0.064 A 
HETATM    5  C18   D T1294      -6.044  -8.628  -6.476  1.00 31.41     0.077 A 
HETATM    6  C19   D T1294      -6.328 -10.776  -7.006  1.00 39.79     0.069 A 
HETATM    7  N23   D T1294      -7.252  -8.997  -6.035  1.00 32.77    -0.250 NA
ENDROOT
BRANCH   5   8
HETATM    8  C12   D T1294      -5.356  -7.238  -6.243  1.00 29.19     0.024 C 
HETATM    9  C20   D T1294      -5.807  -5.979  -6.652  1.00 28.62     0.061 A 
HETATM   10  C17   D T1294      -5.133  -4.790  -6.330  1.00 28.15     0.025 A 
HETATM   11  C21   D T1294      -6.955  -5.553  -7.412  1.00 24.63     0.279 A 
HETATM   12  C7    D T1294      -3.943  -4.590  -5.575  1.00 25.53     0.031 A 
HETATM   13  C16   D T1294      -5.877  -3.679  -6.897  1.00 25.62     0.085 A 
HETATM   14  C15   D T1294      -3.503  -3.267  -5.390  1.00 28.19     0.140 A 
HETATM   15  C5    D T1294      -4.230  -2.097  -5.931  1.00 25.66     0.031 A 
HETATM   16  F29   D T1294      -2.455  -3.052  -4.740  1.00 36.26    -0.204 F 
HETATM   17  C6    D T1294      -5.343  -2.268  -6.680  1.00 26.69     0.021 A 
HETATM   18  N24   D T1294      -7.029  -4.172  -7.587  1.00 23.74    -0.208 NA
HETATM   19  O27   D T1294      -7.739  -6.293  -7.892  1.00 23.40    -0.265 OA
ENDBRANCH   5   8
BRANCH   6  20
HETATM   20  C22   D T1294      -6.241 -12.168  -7.405  1.00 51.05     0.280 C 
HETATM   21  N25   D T1294      -5.451 -12.908  -6.626  1.00 55.83    -0.209 NA
HETATM   22  O28   D T1294      -6.852 -12.658  -8.306  1.00 56.66    -0.265 OA
BRANCH  21  23
HETATM   23  C37   D T1294      -5.222 -14.267  -6.794  1.00 58.65     0.101 C 
BRANCH  23  24
HETATM   24  C38   D T1294      -5.613 -14.858  -5.449  1.00 62.48     0.153 C 
BRANCH  24  25
HETATM   25  N4    D T1294      -6.536 -16.052  -5.353  1.00 67.11    -0.327 N 
BRANCH  25  26
HETATM   26  C39   D T1294      -7.504 -15.964  -6.586  1.00 68.16     0.049 C 
HETATM   27  C42   D T1294      -8.855 -15.095  -6.625  1.00 67.52     0.051 C 
ENDBRANCH  25  26
BRANCH  25  28
HETATM   28  C40   D T1294      -6.999 -16.542  -3.845  1.00 67.42     0.049 C 
HETATM   29  C41   D T1294      -8.318 -16.270  -3.078  1.00 66.32     0.051 C 
ENDBRANCH  25  28
ENDBRANCH  24  25
ENDBRANCH  23  24
ENDBRANCH  21  23
ENDBRANCH   6  20
TORSDOF 7
ENDMDL
MODEL 4
REMARK VINA RESULT:    -6.669      3.189      8.898
REMARK INTER + INTRA:         -10.342
REMARK INTER:                  -9.027
REMARK INTRA:                  -1.315
REMARK UNBOUND:                -0.944
REMARK  7 active torsions:
REMARK  status: ('A' for Active; 'I' for Inactive)
REMARK    1  A    between atoms: C22_10  and  C19_16 
REMARK       I    between atoms: C22_10  and  N25_19 
REMARK    2  A    between atoms: C12_12  and  C18_15 
REMARK    3  A    between atoms: N25_19  and  C37_23 
REMARK    4  A    between atoms: C37_23  and  C38_24 
REMARK    5  A    between atoms: C38_24  and  N4_25 
REMARK    6  A    between atoms: N4_25  and  C39_26 
REMARK    7  A    between atoms: N4_25  and  C40_27 
ROOT
HETATM    1  C4    D T1294      -8.798 -10.664  -6.206  1.00 32.29     0.052 C 
HETATM    2  C13   D T1294      -5.316  -9.584  -7.166  1.00 33.66     0.002 A 
HETATM    3  C3    D T1294      -3.867  -9.488  -7.666  1.00 26.27     0.033 C 
HETATM    4  C14   D T1294      -7.478 -10.036  -6.487  1.00 36.57     0.064 A 
HETATM    5  C18   D T1294      -5.934  -8.479  -6.497  1.00 31.41     0.077 A 
HETATM    6  C19   D T1294      -6.281 -10.594  -7.116  1.00 39.79     0.069 A 
HETATM    7  N23   D T1294      -7.190  -8.797  -6.164  1.00 32.77    -0.250 NA
ENDROOT
BRANCH   5   8
HETATM    8  C12   D T1294      -5.198  -7.134  -6.166  1.00 29.19     0.024 C 
HETATM    9  C20   D T1294      -5.586  -5.837  -6.515  1.00 28.62     0.061 A 
HETATM   10  C17   D T1294      -4.875  -4.697  -6.107  1.00 28.15     0.025 A 
HETATM   11  C21   D T1294      -6.694  -5.322  -7.281  1.00 24.63     0.279 A 
HETATM   12  C7    D T1294      -3.701  -4.588  -5.310  1.00 25.53     0.031 A 
HETATM   13  C16   D T1294      -5.558  -3.526  -6.630  1.00 25.62     0.085 A 
HETATM   14  C15   D T1294      -3.215  -3.298  -5.038  1.00 28.19     0.140 A 
HETATM   15  C5    D T1294      -3.878  -2.070  -5.531  1.00 25.66     0.031 A 
HETATM   16  F29   D T1294      -2.179  -3.162  -4.348  1.00 36.26    -0.204 F 
HETATM   17  C6    D T1294      -4.974  -2.153  -6.319  1.00 26.69     0.021 A 
HETATM   18  N24   D T1294      -6.707  -3.932  -7.379  1.00 23.74    -0.208 NA
HETATM   19  O27   D T1294      -7.491  -6.001  -7.823  1.00 23.40    -0.265 OA
ENDBRANCH   5   8
BRANCH   6  20
HETATM   20  C22   D T1294      -6.232 -11.977  -7.550  1.00 51.05     0.280 C 
HETATM   21  N25   D T1294      -6.062 -12.129  -8.864  1.00 55.83    -0.209 NA
HETATM   22  O28   D T1294      -6.278 -12.922  -6.821  1.00 56.66    -0.265 OA
BRANCH  21  23
HETATM   23  C37   D T1294      -5.966 -13.351  -9.514  1.00 58.65     0.101 C 
BRANCH  23  24
HETATM   24  C38   D T1294      -6.893 -13.191 -10.707  1.00 62.48     0.153 C 
BRANCH  24  25
HETATM   25  N4    D T1294      -8.396 -13.174 -10.539  1.00 67.11    -0.327 N 
BRANCH  25  26
HETATM   26  C39   D T1294      -8.874 -11.741 -10.964  1.00 68.16     0.049 C 
HETATM   27  C42   D T1294      -9.079 -10.510  -9.952  1.00 67.52     0.051 C 
ENDBRANCH  25  26
BRANCH  25  28
HETATM   28  C40   D T1294      -9.035 -14.027  -9.276  1.00 67.42     0.049 C 
HETATM   29  C41   D T1294      -9.936 -13.544  -8.111  1.00 66.32     0.051 C 
ENDBRANCH  25  28
ENDBRANCH  24  25
ENDBRANCH  23  24
ENDBRANCH  21  23
ENDBRANCH   6  20
TORSDOF 7
ENDMDL
MODEL 5
REMARK VINA RESULT:    -6.617      2.499      3.487
REMARK INTER + INTRA:         -10.270
REMARK INTER:                  -8.960
REMARK INTRA:                  -1.310
REMARK UNBOUND:                -0.944
REMARK  7 active torsions:
REMARK  status: ('A' for Active; 'I' for Inactive)
REMARK    1  A    between atoms: C22_10  and  C19_16 
REMARK       I    between atoms: C22_10  and  N25_19 
REMARK    2  A    between atoms: C12_12  and  C18_15 
REMARK    3  A    between atoms: N25_19  and  C37_23 
REMARK    4  A    between atoms: C37_23  and  C38_24 
REMARK    5  A    between atoms: C38_24  and  N4_25 
REMARK    6  A    between atoms: N4_25  and  C39_26 
REMARK    7  A    between atoms: N4_25  and  C40_27 
ROOT
HETATM    1  C4    D T1294      -9.028  -3.414  -4.751  1.00 32.29     0.052 C 
HETATM    2  C13   D T1294      -5.857  -4.783  -6.263  1.00 33.66     0.002 A 
HETATM    3  C3    D T1294      -4.479  -4.990  -6.908  1.00 26.27     0.033 C 
HETATM    4  C14   D T1294      -7.876  -4.161  -5.328  1.00 36.57     0.064 A 
HETATM    5  C18   D T1294      -6.727  -5.894  -6.023  1.00 31.41     0.077 A 
HETATM    6  C19   D T1294      -6.608  -3.672  -5.867  1.00 39.79     0.069 A 
HETATM    7  N23   D T1294      -7.859  -5.467  -5.451  1.00 32.77    -0.250 NA
ENDROOT
BRANCH   5   8
HETATM    8  C12   D T1294      -6.396  -7.370  -6.438  1.00 29.19     0.024 C 
HETATM    9  C20   D T1294      -7.117  -8.199  -7.303  1.00 28.62     0.061 A 
HETATM   10  C17   D T1294      -6.686  -9.490  -7.650  1.00 28.15     0.025 A 
HETATM   11  C21   D T1294      -8.347  -8.017  -8.030  1.00 24.63     0.279 A 
HETATM   12  C7    D T1294      -5.521 -10.204  -7.251  1.00 25.53     0.031 A 
HETATM   13  C16   D T1294      -7.656 -10.059  -8.569  1.00 25.62     0.085 A 
HETATM   14  C15   D T1294      -5.332 -11.492  -7.780  1.00 28.19     0.140 A 
HETATM   15  C5    D T1294      -6.279 -12.115  -8.732  1.00 25.66     0.031 A 
HETATM   16  F29   D T1294      -4.324 -12.154  -7.445  1.00 36.26    -0.204 F 
HETATM   17  C6    D T1294      -7.409 -11.468  -9.096  1.00 26.69     0.021 A 
HETATM   18  N24   D T1294      -8.710  -9.121  -8.800  1.00 23.74    -0.208 NA
HETATM   19  O27   D T1294      -9.022  -7.053  -7.951  1.00 23.40    -0.265 OA
ENDBRANCH   5   8
BRANCH   6  20
HETATM   20  C22   D T1294      -6.315  -2.254  -5.937  1.00 51.05     0.280 C 
HETATM   21  N25   D T1294      -6.205  -1.781  -7.180  1.00 55.83    -0.209 NA
HETATM   22  O28   D T1294      -6.229  -1.528  -4.992  1.00 56.66    -0.265 OA
BRANCH  21  23
HETATM   23  C37   D T1294      -5.947  -0.457  -7.504  1.00 58.65     0.101 C 
BRANCH  23  24
HETATM   24  C38   D T1294      -6.742  -0.245  -8.781  1.00 62.48     0.153 C 
BRANCH  24  25
HETATM   25  N4    D T1294      -8.236  -0.008  -8.749  1.00 67.11    -0.327 N 
BRANCH  25  26
HETATM   26  C39   D T1294      -8.505   0.953  -7.538  1.00 68.16     0.049 C 
HETATM   27  C42   D T1294      -9.245   0.523  -6.178  1.00 67.52     0.051 C 
ENDBRANCH  25  26
BRANCH  25  28
HETATM   28  C40   D T1294      -9.219  -1.267  -9.170  1.00 67.42     0.049 C 
HETATM   29  C41   D T1294      -9.215  -2.735  -8.673  1.00 66.32     0.051 C 
ENDBRANCH  25  28
ENDBRANCH  24  25
ENDBRANCH  23  24
ENDBRANCH  21  23
ENDBRANCH   6  20
TORSDOF 7
ENDMDL
MODEL 6
REMARK VINA RESULT:    -6.576      3.799      8.722
REMARK INTER + INTRA:         -10.211
REMARK INTER:                  -9.147
REMARK INTRA:                  -1.064
REMARK UNBOUND:                -0.944
REMARK  7 active torsions:
REMARK  status: ('A' for Active; 'I' for Inactive)
REMARK    1  A    between atoms: C22_10  and  C19_16 
REMARK       I    between atoms: C22_10  and  N25_19 
REMARK    2  A    between atoms: C12_12  and  C18_15 
REMARK    3  A    between atoms: N25_19  and  C37_23 
REMARK    4  A    between atoms: C37_23  and  C38_24 
REMARK    5  A    between atoms: C38_24  and  N4_25 
REMARK    6  A    between atoms: N4_25  and  C39_26 
REMARK    7  A    between atoms: N4_25  and  C40_27 
ROOT
HETATM    1  C4    D T1294      -3.253  -1.958  -8.040  1.00 32.29     0.052 C 
HETATM    2  C13   D T1294      -6.116  -2.030  -5.588  1.00 33.66     0.002 A 
HETATM    3  C3    D T1294      -7.090  -2.328  -4.439  1.00 26.27     0.033 C 
HETATM    4  C14   D T1294      -4.481  -1.828  -7.207  1.00 36.57     0.064 A 
HETATM    5  C18   D T1294      -6.455  -1.084  -6.608  1.00 31.41     0.077 A 
HETATM    6  C19   D T1294      -4.881  -2.543  -5.996  1.00 39.79     0.069 A 
HETATM    7  N23   D T1294      -5.452  -0.992  -7.490  1.00 32.77    -0.250 NA
ENDROOT
BRANCH   5   8
HETATM    8  C12   D T1294      -7.828  -0.332  -6.682  1.00 29.19     0.024 C 
HETATM    9  C20   D T1294      -9.001  -0.751  -7.319  1.00 28.62     0.061 A 
HETATM   10  C17   D T1294     -10.197  -0.016  -7.265  1.00 28.15     0.025 A 
HETATM   11  C21   D T1294      -9.323  -1.913  -8.108  1.00 24.63     0.279 A 
HETATM   12  C7    D T1294     -10.486   1.213  -6.608  1.00 25.53     0.031 A 
HETATM   13  C16   D T1294     -11.207  -0.740  -8.016  1.00 25.62     0.085 A 
HETATM   14  C15   D T1294     -11.796   1.713  -6.707  1.00 28.19     0.140 A 
HETATM   15  C5    D T1294     -12.870   1.010  -7.446  1.00 25.66     0.031 A 
HETATM   16  F29   D T1294     -12.086   2.796  -6.151  1.00 36.26    -0.204 F 
HETATM   17  C6    D T1294     -12.606  -0.141  -8.105  1.00 26.69     0.021 A 
HETATM   18  N24   D T1294     -10.643  -1.939  -8.553  1.00 23.74    -0.208 NA
HETATM   19  O27   D T1294      -8.540  -2.746  -8.402  1.00 23.40    -0.265 OA
ENDBRANCH   5   8
BRANCH   6  20
HETATM   20  C22   D T1294      -4.054  -3.591  -5.431  1.00 51.05     0.280 C 
HETATM   21  N25   D T1294      -4.362  -4.816  -5.858  1.00 55.83    -0.209 NA
HETATM   22  O28   D T1294      -3.133  -3.409  -4.692  1.00 56.66    -0.265 OA
BRANCH  21  23
HETATM   23  C37   D T1294      -3.703  -5.977  -5.476  1.00 58.65     0.101 C 
BRANCH  23  24
HETATM   24  C38   D T1294      -3.973  -6.931  -6.627  1.00 62.48     0.153 C 
BRANCH  24  25
HETATM   25  N4    D T1294      -4.701  -8.239  -6.412  1.00 67.11    -0.327 N 
BRANCH  25  26
HETATM   26  C39   D T1294      -3.894  -9.330  -7.199  1.00 68.16     0.049 C 
HETATM   27  C42   D T1294      -4.483 -10.202  -8.413  1.00 67.52     0.051 C 
ENDBRANCH  25  26
BRANCH  25  28
HETATM   28  C40   D T1294      -6.350  -8.191  -6.322  1.00 67.42     0.049 C 
HETATM   29  C41   D T1294      -7.396  -7.957  -7.442  1.00 66.32     0.051 C 
ENDBRANCH  25  28
ENDBRANCH  24  25
ENDBRANCH  23  24
ENDBRANCH  21  23
ENDBRANCH   6  20
TORSDOF 7
ENDMDL
MODEL 7
REMARK VINA RESULT:    -6.312      2.697      4.254
REMARK INTER + INTRA:          -9.839
REMARK INTER:                  -8.715
REMARK INTRA:                  -1.124
REMARK UNBOUND:                -0.944
REMARK  7 active torsions:
REMARK  status: ('A' for Active; 'I' for Inactive)
REMARK    1  A    between atoms: C22_10  and  C19_16 
REMARK       I    between atoms: C22_10  and  N25_19 
REMARK    2  A    between atoms: C12_12  and  C18_15 
REMARK    3  A    between atoms: N25_19  and  C37_23 
REMARK    4  A    between atoms: C37_23  and  C38_24 
REMARK    5  A    between atoms: C38_24  and  N4_25 
REMARK    6  A    between atoms: N4_25  and  C39_26 
REMARK    7  A    between atoms: N4_25  and  C40_27 
ROOT
HETATM    1  C4    D T1294      -9.710  -6.292  -8.059  1.00 32.29     0.052 C 
HETATM    2  C13   D T1294      -6.446  -7.911  -7.089  1.00 33.66     0.002 A 
HETATM    3  C3    D T1294      -5.043  -8.242  -6.559  1.00 26.27     0.033 C 
HETATM    4  C14   D T1294      -8.499  -7.116  -7.789  1.00 36.57     0.064 A 
HETATM    5  C18   D T1294      -7.185  -8.870  -7.853  1.00 31.41     0.077 A 
HETATM    6  C19   D T1294      -7.261  -6.775  -7.091  1.00 39.79     0.069 A 
HETATM    7  N23   D T1294      -8.373  -8.357  -8.195  1.00 32.77    -0.250 NA
ENDROOT
BRANCH   5   8
HETATM    8  C12   D T1294      -6.629 -10.278  -8.262  1.00 29.19     0.024 C 
HETATM    9  C20   D T1294      -6.713 -11.474  -7.542  1.00 28.62     0.061 A 
HETATM   10  C17   D T1294      -6.230 -12.695  -8.041  1.00 28.15     0.025 A 
HETATM   11  C21   D T1294      -7.261 -11.800  -6.250  1.00 24.63     0.279 A 
HETATM   12  C7    D T1294      -5.602 -12.990  -9.284  1.00 25.53     0.031 A 
HETATM   13  C16   D T1294      -6.489 -13.724  -7.050  1.00 25.62     0.085 A 
HETATM   14  C15   D T1294      -5.236 -14.326  -9.529  1.00 28.19     0.140 A 
HETATM   15  C5    D T1294      -5.491 -15.417  -8.562  1.00 25.66     0.031 A 
HETATM   16  F29   D T1294      -4.673 -14.623 -10.606  1.00 36.26    -0.204 F 
HETATM   17  C6    D T1294      -6.054 -15.151  -7.362  1.00 26.69     0.021 A 
HETATM   18  N24   D T1294      -7.138 -13.147  -5.914  1.00 23.74    -0.208 NA
HETATM   19  O27   D T1294      -7.724 -11.004  -5.512  1.00 23.40    -0.265 OA
ENDBRANCH   5   8
BRANCH   6  20
HETATM   20  C22   D T1294      -7.038  -5.446  -6.555  1.00 51.05     0.280 C 
HETATM   21  N25   D T1294      -6.560  -4.574  -7.444  1.00 55.83    -0.209 NA
HETATM   22  O28   D T1294      -7.301  -5.107  -5.440  1.00 56.66    -0.265 OA
BRANCH  21  23
HETATM   23  C37   D T1294      -6.284  -3.241  -7.176  1.00 58.65     0.101 C 
BRANCH  23  24
HETATM   24  C38   D T1294      -4.766  -3.185  -7.190  1.00 62.48     0.153 C 
BRANCH  24  25
HETATM   25  N4    D T1294      -3.969  -3.114  -5.907  1.00 67.11    -0.327 N 
BRANCH  25  26
HETATM   26  C39   D T1294      -3.646  -1.596  -5.669  1.00 68.16     0.049 C 
HETATM   27  C42   D T1294      -4.750  -0.461  -5.395  1.00 67.52     0.051 C 
ENDBRANCH  25  26
BRANCH  25  28
HETATM   28  C40   D T1294      -2.915  -4.346  -5.592  1.00 67.42     0.049 C 
HETATM   29  C41   D T1294      -3.115  -5.628  -4.744  1.00 66.32     0.051 C 
ENDBRANCH  25  28
ENDBRANCH  24  25
ENDBRANCH  23  24
ENDBRANCH  21  23
ENDBRANCH   6  20
TORSDOF 7
ENDMDL
MODEL 8
REMARK VINA RESULT:    -6.301      2.257      2.916
REMARK INTER + INTRA:          -9.824
REMARK INTER:                  -8.653
REMARK INTRA:                  -1.171
REMARK UNBOUND:                -0.944
REMARK  7 active torsions:
REMARK  status: ('A' for Active; 'I' for Inactive)
REMARK    1  A    between atoms: C22_10  and  C19_16 
REMARK       I    between atoms: C22_10  and  N25_19 
REMARK    2  A    between atoms: C12_12  and  C18_15 
REMARK    3  A    between atoms: N25_19  and  C37_23 
REMARK    4  A    between atoms: C37_23  and  C38_24 
REMARK    5  A    between atoms: C38_24  and  N4_25 
REMARK    6  A    between atoms: N4_25  and  C39_26 
REMARK    7  A    between atoms: N4_25  and  C40_27 
ROOT
HETATM    1  C4    D T1294      -2.653  -3.361  -4.696  1.00 32.29     0.052 C 
HETATM    2  C13   D T1294      -5.325  -4.915  -6.855  1.00 33.66     0.002 A 
HETATM    3  C3    D T1294      -6.569  -5.221  -7.702  1.00 26.27     0.033 C 
HETATM    4  C14   D T1294      -3.587  -4.169  -5.529  1.00 36.57     0.064 A 
HETATM    5  C18   D T1294      -4.378  -5.943  -6.546  1.00 31.41     0.077 A 
HETATM    6  C19   D T1294      -4.849  -3.796  -6.165  1.00 39.79     0.069 A 
HETATM    7  N23   D T1294      -3.384  -5.435  -5.807  1.00 32.77    -0.250 NA
ENDROOT
BRANCH   5   8
HETATM    8  C12   D T1294      -4.543  -7.442  -6.975  1.00 29.19     0.024 C 
HETATM    9  C20   D T1294      -5.533  -8.344  -6.572  1.00 28.62     0.061 A 
HETATM   10  C17   D T1294      -5.616  -9.653  -7.075  1.00 28.15     0.025 A 
HETATM   11  C21   D T1294      -6.641  -8.234  -5.657  1.00 24.63     0.279 A 
HETATM   12  C7    D T1294      -4.797 -10.319  -8.030  1.00 25.53     0.031 A 
HETATM   13  C16   D T1294      -6.759 -10.303  -6.459  1.00 25.62     0.085 A 
HETATM   14  C15   D T1294      -5.132 -11.643  -8.366  1.00 28.19     0.140 A 
HETATM   15  C5    D T1294      -6.294 -12.349  -7.782  1.00 25.66     0.031 A 
HETATM   16  F29   D T1294      -4.430 -12.264  -9.195  1.00 36.26    -0.204 F 
HETATM   17  C6    D T1294      -7.063 -11.745  -6.847  1.00 26.69     0.021 A 
HETATM   18  N24   D T1294      -7.400  -9.398  -5.556  1.00 23.74    -0.208 NA
HETATM   19  O27   D T1294      -6.866  -7.274  -5.009  1.00 23.40    -0.265 OA
ENDBRANCH   5   8
BRANCH   6  20
HETATM   20  C22   D T1294      -5.407  -2.466  -6.011  1.00 51.05     0.280 C 
HETATM   21  N25   D T1294      -5.739  -1.879  -7.162  1.00 55.83    -0.209 NA
HETATM   22  O28   D T1294      -5.620  -1.933  -4.964  1.00 56.66    -0.265 OA
BRANCH  21  23
HETATM   23  C37   D T1294      -6.307  -0.618  -7.273  1.00 58.65     0.101 C 
BRANCH  23  24
HETATM   24  C38   D T1294      -7.787  -0.911  -7.451  1.00 62.48     0.153 C 
BRANCH  24  25
HETATM   25  N4    D T1294      -8.701  -1.100  -6.261  1.00 67.11    -0.327 N 
BRANCH  25  26
HETATM   26  C39   D T1294      -9.164  -2.600  -6.293  1.00 68.16     0.049 C 
HETATM   27  C42   D T1294      -8.851  -3.676  -5.141  1.00 67.52     0.051 C 
ENDBRANCH  25  26
BRANCH  25  28
HETATM   28  C40   D T1294      -9.678   0.162  -5.838  1.00 67.42     0.049 C 
HETATM   29  C41   D T1294     -10.757   0.250  -4.728  1.00 66.32     0.051 C 
ENDBRANCH  25  28
ENDBRANCH  24  25
ENDBRANCH  23  24
ENDBRANCH  21  23
ENDBRANCH   6  20
TORSDOF 7
ENDMDL
MODEL 9
REMARK VINA RESULT:    -6.297      4.166      7.179
REMARK INTER + INTRA:          -9.818
REMARK INTER:                  -8.658
REMARK INTRA:                  -1.160
REMARK UNBOUND:                -0.944
REMARK  7 active torsions:
REMARK  status: ('A' for Active; 'I' for Inactive)
REMARK    1  A    between atoms: C22_10  and  C19_16 
REMARK       I    between atoms: C22_10  and  N25_19 
REMARK    2  A    between atoms: C12_12  and  C18_15 
REMARK    3  A    between atoms: N25_19  and  C37_23 
REMARK    4  A    between atoms: C37_23  and  C38_24 
REMARK    5  A    between atoms: C38_24  and  N4_25 
REMARK    6  A    between atoms: N4_25  and  C39_26 
REMARK    7  A    between atoms: N4_25  and  C40_27 
ROOT
HETATM    1  C4    D T1294      -8.501   0.660  -8.918  1.00 32.29     0.052 C 
HETATM    2  C13   D T1294      -8.047  -1.556  -5.902  1.00 33.66     0.002 A 
HETATM    3  C3    D T1294      -8.047  -2.195  -4.505  1.00 26.27     0.033 C 
HETATM    4  C14   D T1294      -8.194  -0.347  -7.865  1.00 36.57     0.064 A 
HETATM    5  C18   D T1294      -7.317  -2.151  -6.979  1.00 31.41     0.077 A 
HETATM    6  C19   D T1294      -8.565  -0.379  -6.451  1.00 39.79     0.069 A 
HETATM    7  N23   D T1294      -7.473  -1.421  -8.090  1.00 32.77    -0.250 NA
ENDROOT
BRANCH   5   8
HETATM    8  C12   D T1294      -6.427  -3.434  -6.830  1.00 29.19     0.024 C 
HETATM    9  C20   D T1294      -5.193  -3.551  -6.183  1.00 28.62     0.061 A 
HETATM   10  C17   D T1294      -4.514  -4.774  -6.059  1.00 28.15     0.025 A 
HETATM   11  C21   D T1294      -4.348  -2.595  -5.512  1.00 24.63     0.279 A 
HETATM   12  C7    D T1294      -4.881  -6.073  -6.512  1.00 25.53     0.031 A 
HETATM   13  C16   D T1294      -3.283  -4.536  -5.326  1.00 25.62     0.085 A 
HETATM   14  C15   D T1294      -4.006  -7.134  -6.223  1.00 28.19     0.140 A 
HETATM   15  C5    D T1294      -2.746  -6.954  -5.467  1.00 25.66     0.031 A 
HETATM   16  F29   D T1294      -4.289  -8.289  -6.614  1.00 36.26    -0.204 F 
HETATM   17  C6    D T1294      -2.364  -5.722  -5.059  1.00 26.69     0.021 A 
HETATM   18  N24   D T1294      -3.182  -3.150  -4.988  1.00 23.74    -0.208 NA
HETATM   19  O27   D T1294      -4.581  -1.440  -5.451  1.00 23.40    -0.265 OA
ENDBRANCH   5   8
BRANCH   6  20
HETATM   20  C22   D T1294      -9.325   0.697  -5.846  1.00 51.05     0.280 C 
HETATM   21  N25   D T1294     -10.389   0.289  -5.153  1.00 55.83    -0.209 NA
HETATM   22  O28   D T1294      -9.027   1.853  -5.892  1.00 56.66    -0.265 OA
BRANCH  21  23
HETATM   23  C37   D T1294     -11.259   1.128  -4.471  1.00 58.65     0.101 C 
BRANCH  23  24
HETATM   24  C38   D T1294     -12.409   1.313  -5.447  1.00 62.48     0.153 C 
BRANCH  24  25
HETATM   25  N4    D T1294     -13.431   0.222  -5.675  1.00 67.11    -0.327 N 
BRANCH  25  26
HETATM   26  C39   D T1294     -13.815  -0.329  -4.257  1.00 68.16     0.049 C 
HETATM   27  C42   D T1294     -13.631  -1.856  -3.790  1.00 67.52     0.051 C 
ENDBRANCH  25  26
BRANCH  25  28
HETATM   28  C40   D T1294     -13.254  -0.722  -7.019  1.00 67.42     0.049 C 
HETATM   29  C41   D T1294     -12.130  -0.725  -8.086  1.00 66.32     0.051 C 
ENDBRANCH  25  28
ENDBRANCH  24  25
ENDBRANCH  23  24
ENDBRANCH  21  23
ENDBRANCH   6  20
TORSDOF 7
ENDMDL
