MODEL 1
REMARK VINA RESULT:    -9.327      0.000      0.000
REMARK INTER + INTRA:         -13.990
REMARK INTER:                 -13.144
REMARK INTRA:                  -0.845
REMARK UNBOUND:                -0.845
REMARK  7 active torsions:
REMARK  status: ('A' for Active; 'I' for Inactive)
REMARK    1  A    between atoms: C22_10  and  C19_16 
REMARK       I    between atoms: C22_10  and  N25_19 
REMARK    2  A    between atoms: C12_12  and  C18_15 
REMARK    3  A    between atoms: N25_19  and  C37_23 
REMARK    4  A    between atoms: C37_23  and  C38_24 
REMARK    5  A    between atoms: C38_24  and  N4_25 
REMARK    6  A    between atoms: N4_25  and  C39_26 
REMARK    7  A    between atoms: N4_25  and  C40_27 
ROOT
HETATM    1  C4    D T1294     -16.168  -8.657  45.143  1.00 32.29     0.052 C 
HETATM    2  C13   D T1294     -19.111  -7.954  42.894  1.00 33.66     0.002 A 
HETATM    3  C3    D T1294     -20.068  -7.470  41.794  1.00 26.27     0.033 C 
HETATM    4  C14   D T1294     -17.454  -8.498  44.409  1.00 36.57     0.064 A 
HETATM    5  C18   D T1294     -19.598  -8.717  44.004  1.00 31.41     0.077 A 
HETATM    6  C19   D T1294     -17.754  -7.770  43.176  1.00 39.79     0.069 A 
HETATM    7  N23   D T1294     -18.583  -9.026  44.819  1.00 32.77    -0.250 NA
ENDROOT
BRANCH   5   8
HETATM    8  C12   D T1294     -21.109  -9.067  44.228  1.00 29.19     0.024 C 
HETATM    9  C20   D T1294     -22.104  -8.256  44.783  1.00 28.62     0.061 A 
HETATM   10  C17   D T1294     -23.446  -8.657  44.877  1.00 28.15     0.025 A 
HETATM   11  C21   D T1294     -22.082  -6.927  45.340  1.00 24.63     0.279 A 
HETATM   12  C7    D T1294     -24.069  -9.871  44.464  1.00 25.53     0.031 A 
HETATM   13  C16   D T1294     -24.202  -7.576  45.484  1.00 25.62     0.085 A 
HETATM   14  C15   D T1294     -25.455  -9.992  44.665  1.00 28.19     0.140 A 
HETATM   15  C5    D T1294     -26.277  -8.918  45.265  1.00 25.66     0.031 A 
HETATM   16  F29   D T1294     -26.036 -11.047  44.324  1.00 36.26    -0.204 F 
HETATM   17  C6    D T1294     -25.699  -7.773  45.695  1.00 26.69     0.021 A 
HETATM   18  N24   D T1294     -23.327  -6.484  45.781  1.00 23.74    -0.208 NA
HETATM   19  O27   D T1294     -21.101  -6.282  45.466  1.00 23.40    -0.265 OA
ENDBRANCH   5   8
BRANCH   6  20
HETATM   20  C22   D T1294     -16.733  -7.015  42.478  1.00 51.05     0.280 C 
HETATM   21  N25   D T1294     -15.593  -7.682  42.296  1.00 55.83    -0.209 NA
HETATM   22  O28   D T1294     -16.880  -5.914  42.038  1.00 56.66    -0.265 OA
BRANCH  21  23
HETATM   23  C37   D T1294     -14.478  -7.179  41.638  1.00 58.65     0.101 C 
BRANCH  23  24
HETATM   24  C38   D T1294     -14.763  -7.482  40.177  1.00 62.48     0.153 C 
BRANCH  24  25
HETATM   25  N4    D T1294     -14.646  -8.887  39.628  1.00 67.11    -0.327 N 
BRANCH  25  26
HETATM   26  C39   D T1294     -16.113  -9.384  39.372  1.00 68.16     0.049 C 
HETATM   27  C42   D T1294     -17.378  -8.418  39.146  1.00 67.52     0.051 C 
ENDBRANCH  25  26
BRANCH  25  28
HETATM   28  C40   D T1294     -13.435  -9.842  40.218  1.00 67.42     0.049 C 
HETATM   29  C41   D T1294     -13.317 -10.559  41.586  1.00 66.32     0.051 C 
ENDBRANCH  25  28
ENDBRANCH  24  25
ENDBRANCH  23  24
ENDBRANCH  21  23
ENDBRANCH   6  20
TORSDOF 7
ENDMDL
MODEL 2
REMARK VINA RESULT:    -8.820      1.440      2.418
REMARK INTER + INTRA:         -13.274
REMARK INTER:                 -12.085
REMARK INTRA:                  -1.190
REMARK UNBOUND:                -0.845
REMARK  7 active torsions:
REMARK  status: ('A' for Active; 'I' for Inactive)
REMARK    1  A    between atoms: C22_10  and  C19_16 
REMARK       I    between atoms: C22_10  and  N25_19 
REMARK    2  A    between atoms: C12_12  and  C18_15 
REMARK    3  A    between atoms: N25_19  and  C37_23 
REMARK    4  A    between atoms: C37_23  and  C38_24 
REMARK    5  A    between atoms: C38_24  and  N4_25 
REMARK    6  A    between atoms: N4_25  and  C39_26 
REMARK    7  A    between atoms: N4_25  and  C40_27 
ROOT
HETATM    1  C4    D T1294     -15.971  -8.704  44.790  1.00 32.29     0.052 C 
HETATM    2  C13   D T1294     -18.993  -8.357  42.564  1.00 33.66     0.002 A 
HETATM    3  C3    D T1294     -19.987  -8.058  41.432  1.00 26.27     0.033 C 
HETATM    4  C14   D T1294     -17.283  -8.655  44.088  1.00 36.57     0.064 A 
HETATM    5  C18   D T1294     -19.443  -8.906  43.807  1.00 31.41     0.077 A 
HETATM    6  C19   D T1294     -17.624  -8.150  42.759  1.00 39.79     0.069 A 
HETATM    7  N23   D T1294     -18.400  -9.084  44.626  1.00 32.77    -0.250 NA
ENDROOT
BRANCH   5   8
HETATM    8  C12   D T1294     -20.947  -9.187  44.145  1.00 29.19     0.024 C 
HETATM    9  C20   D T1294     -21.877  -8.309  44.712  1.00 28.62     0.061 A 
HETATM   10  C17   D T1294     -23.223  -8.655  44.913  1.00 28.15     0.025 A 
HETATM   11  C21   D T1294     -21.774  -6.953  45.188  1.00 24.63     0.279 A 
HETATM   12  C7    D T1294     -23.911  -9.865  44.612  1.00 25.53     0.031 A 
HETATM   13  C16   D T1294     -23.901  -7.514  45.502  1.00 25.62     0.085 A 
HETATM   14  C15   D T1294     -25.285  -9.924  44.905  1.00 28.19     0.140 A 
HETATM   15  C5    D T1294     -26.030  -8.787  45.492  1.00 25.66     0.031 A 
HETATM   16  F29   D T1294     -25.922 -10.974  44.664  1.00 36.26    -0.204 F 
HETATM   17  C6    D T1294     -25.388  -7.642  45.816  1.00 26.69     0.021 A 
HETATM   18  N24   D T1294     -22.973  -6.440  45.679  1.00 23.74    -0.208 NA
HETATM   19  O27   D T1294     -20.767  -6.339  45.215  1.00 23.40    -0.265 OA
ENDBRANCH   5   8
BRANCH   6  20
HETATM   20  C22   D T1294     -16.624  -7.546  41.901  1.00 51.05     0.280 C 
HETATM   21  N25   D T1294     -16.322  -8.270  40.823  1.00 55.83    -0.209 NA
HETATM   22  O28   D T1294     -16.133  -6.470  42.079  1.00 56.66    -0.265 OA
BRANCH  21  23
HETATM   23  C37   D T1294     -15.410  -7.894  39.846  1.00 58.65     0.101 C 
BRANCH  23  24
HETATM   24  C38   D T1294     -16.292  -7.455  38.690  1.00 62.48     0.153 C 
BRANCH  24  25
HETATM   25  N4    D T1294     -17.786  -7.286  38.861  1.00 67.11    -0.327 N 
BRANCH  25  26
HETATM   26  C39   D T1294     -18.459  -8.379  37.957  1.00 68.16     0.049 C 
HETATM   27  C42   D T1294     -20.024  -8.427  37.596  1.00 67.52     0.051 C 
ENDBRANCH  25  26
BRANCH  25  28
HETATM   28  C40   D T1294     -18.367  -5.752  39.047  1.00 67.42     0.049 C 
HETATM   29  C41   D T1294     -19.594  -5.071  38.387  1.00 66.32     0.051 C 
ENDBRANCH  25  28
ENDBRANCH  24  25
ENDBRANCH  23  24
ENDBRANCH  21  23
ENDBRANCH   6  20
TORSDOF 7
ENDMDL
MODEL 3
REMARK VINA RESULT:    -7.359      4.906      7.950
REMARK INTER + INTRA:         -11.216
REMARK INTER:                 -10.210
REMARK INTRA:                  -1.006
REMARK UNBOUND:                -0.845
REMARK  7 active torsions:
REMARK  status: ('A' for Active; 'I' for Inactive)
REMARK    1  A    between atoms: C22_10  and  C19_16 
REMARK       I    between atoms: C22_10  and  N25_19 
REMARK    2  A    between atoms: C12_12  and  C18_15 
REMARK    3  A    between atoms: N25_19  and  C37_23 
REMARK    4  A    between atoms: C37_23  and  C38_24 
REMARK    5  A    between atoms: C38_24  and  N4_25 
REMARK    6  A    between atoms: N4_25  and  C39_26 
REMARK    7  A    between atoms: N4_25  and  C40_27 
ROOT
HETATM    1  C4    D T1294     -19.740  -9.835  35.321  1.00 32.29     0.052 C 
HETATM    2  C13   D T1294     -17.939  -7.226  37.360  1.00 33.66     0.002 A 
HETATM    3  C3    D T1294     -17.084  -6.055  37.867  1.00 26.27     0.033 C 
HETATM    4  C14   D T1294     -19.113  -8.916  36.310  1.00 36.57     0.064 A 
HETATM    5  C18   D T1294     -18.586  -8.111  38.281  1.00 31.41     0.077 A 
HETATM    6  C19   D T1294     -18.232  -7.766  36.105  1.00 39.79     0.069 A 
HETATM    7  N23   D T1294     -19.273  -9.040  37.607  1.00 32.77    -0.250 NA
ENDROOT
BRANCH   5   8
HETATM    8  C12   D T1294     -18.440  -8.013  39.838  1.00 29.19     0.024 C 
HETATM    9  C20   D T1294     -17.300  -8.262  40.610  1.00 28.62     0.061 A 
HETATM   10  C17   D T1294     -17.271  -8.079  42.002  1.00 28.15     0.025 A 
HETATM   11  C21   D T1294     -15.971  -8.706  40.273  1.00 24.63     0.279 A 
HETATM   12  C7    D T1294     -18.294  -7.632  42.887  1.00 25.53     0.031 A 
HETATM   13  C16   D T1294     -15.940  -8.414  42.476  1.00 25.62     0.085 A 
HETATM   14  C15   D T1294     -17.971  -7.521  44.251  1.00 28.19     0.140 A 
HETATM   15  C5    D T1294     -16.628  -7.834  44.787  1.00 25.66     0.031 A 
HETATM   16  F29   D T1294     -18.847  -7.140  45.061  1.00 36.26    -0.204 F 
HETATM   17  C6    D T1294     -15.655  -8.293  43.969  1.00 26.69     0.021 A 
HETATM   18  N24   D T1294     -15.123  -8.816  41.373  1.00 23.74    -0.208 NA
HETATM   19  O27   D T1294     -15.633  -9.001  39.182  1.00 23.40    -0.265 OA
ENDBRANCH   5   8
BRANCH   6  20
HETATM   20  C22   D T1294     -17.799  -7.374  34.778  1.00 51.05     0.280 C 
HETATM   21  N25   D T1294     -16.677  -7.970  34.373  1.00 55.83    -0.209 NA
HETATM   22  O28   D T1294     -18.398  -6.632  34.057  1.00 56.66    -0.265 OA
BRANCH  21  23
HETATM   23  C37   D T1294     -16.077  -7.772  33.137  1.00 58.65     0.101 C 
BRANCH  23  24
HETATM   24  C38   D T1294     -16.002  -9.173  32.553  1.00 62.48     0.153 C 
BRANCH  24  25
HETATM   25  N4    D T1294     -14.737  -9.686  31.901  1.00 67.11    -0.327 N 
BRANCH  25  26
HETATM   26  C39   D T1294     -15.188 -10.467  30.617  1.00 68.16     0.049 C 
HETATM   27  C42   D T1294     -16.570 -11.277  30.479  1.00 67.52     0.051 C 
ENDBRANCH  25  26
BRANCH  25  28
HETATM   28  C40   D T1294     -13.505 -10.165  32.891  1.00 67.42     0.049 C 
HETATM   29  C41   D T1294     -13.024  -9.563  34.235  1.00 66.32     0.051 C 
ENDBRANCH  25  28
ENDBRANCH  24  25
ENDBRANCH  23  24
ENDBRANCH  21  23
ENDBRANCH   6  20
TORSDOF 7
ENDMDL
MODEL 4
REMARK VINA RESULT:    -7.344      3.949      8.186
REMARK INTER + INTRA:         -11.195
REMARK INTER:                  -9.975
REMARK INTRA:                  -1.220
REMARK UNBOUND:                -0.845
REMARK  7 active torsions:
REMARK  status: ('A' for Active; 'I' for Inactive)
REMARK    1  A    between atoms: C22_10  and  C19_16 
REMARK       I    between atoms: C22_10  and  N25_19 
REMARK    2  A    between atoms: C12_12  and  C18_15 
REMARK    3  A    between atoms: N25_19  and  C37_23 
REMARK    4  A    between atoms: C37_23  and  C38_24 
REMARK    5  A    between atoms: C38_24  and  N4_25 
REMARK    6  A    between atoms: N4_25  and  C39_26 
REMARK    7  A    between atoms: N4_25  and  C40_27 
ROOT
HETATM    1  C4    D T1294     -13.700  -9.652  41.841  1.00 32.29     0.052 C 
HETATM    2  C13   D T1294     -16.442  -7.105  41.388  1.00 33.66     0.002 A 
HETATM    3  C3    D T1294     -17.617  -6.130  41.555  1.00 26.27     0.033 C 
HETATM    4  C14   D T1294     -14.725  -8.649  41.438  1.00 36.57     0.064 A 
HETATM    5  C18   D T1294     -15.871  -7.347  40.097  1.00 31.41     0.077 A 
HETATM    6  C19   D T1294     -15.747  -7.972  42.236  1.00 39.79     0.069 A 
HETATM    7  N23   D T1294     -14.864  -8.221  40.206  1.00 32.77    -0.250 NA
ENDROOT
BRANCH   5   8
HETATM    8  C12   D T1294     -16.409  -6.711  38.770  1.00 29.19     0.024 C 
HETATM    9  C20   D T1294     -17.485  -7.143  37.987  1.00 28.62     0.061 A 
HETATM   10  C17   D T1294     -17.917  -6.452  36.844  1.00 28.15     0.025 A 
HETATM   11  C21   D T1294     -18.384  -8.264  38.097  1.00 24.63     0.279 A 
HETATM   12  C7    D T1294     -17.419  -5.254  36.256  1.00 25.53     0.031 A 
HETATM   13  C16   D T1294     -19.055  -7.163  36.288  1.00 25.62     0.085 A 
HETATM   14  C15   D T1294     -18.071  -4.772  35.108  1.00 28.19     0.140 A 
HETATM   15  C5    D T1294     -19.244  -5.446  34.507  1.00 25.66     0.031 A 
HETATM   16  F29   D T1294     -17.657  -3.727  34.557  1.00 36.26    -0.204 F 
HETATM   17  C6    D T1294     -19.710  -6.603  35.030  1.00 26.69     0.021 A 
HETATM   18  N24   D T1294     -19.341  -8.315  37.086  1.00 23.74    -0.208 NA
HETATM   19  O27   D T1294     -18.298  -9.098  38.928  1.00 23.40    -0.265 OA
ENDBRANCH   5   8
BRANCH   6  20
HETATM   20  C22   D T1294     -15.914  -8.255  43.648  1.00 51.05     0.280 C 
HETATM   21  N25   D T1294     -17.003  -8.969  43.934  1.00 55.83    -0.209 NA
HETATM   22  O28   D T1294     -15.138  -7.945  44.502  1.00 56.66    -0.265 OA
BRANCH  21  23
HETATM   23  C37   D T1294     -17.367  -9.381  45.208  1.00 58.65     0.101 C 
BRANCH  23  24
HETATM   24  C38   D T1294     -18.586  -8.530  45.520  1.00 62.48     0.153 C 
BRANCH  24  25
HETATM   25  N4    D T1294     -19.628  -8.232  44.464  1.00 67.11    -0.327 N 
BRANCH  25  26
HETATM   26  C39   D T1294     -20.040  -6.730  44.662  1.00 68.16     0.049 C 
HETATM   27  C42   D T1294     -21.366  -6.240  45.427  1.00 67.52     0.051 C 
ENDBRANCH  25  26
BRANCH  25  28
HETATM   28  C40   D T1294     -20.685  -9.438  44.070  1.00 67.42     0.049 C 
HETATM   29  C41   D T1294     -22.087  -9.754  44.650  1.00 66.32     0.051 C 
ENDBRANCH  25  28
ENDBRANCH  24  25
ENDBRANCH  23  24
ENDBRANCH  21  23
ENDBRANCH   6  20
TORSDOF 7
ENDMDL
MODEL 5
REMARK VINA RESULT:    -7.332      1.854      3.054
REMARK INTER + INTRA:         -11.178
REMARK INTER:                 -10.153
REMARK INTRA:                  -1.025
REMARK UNBOUND:                -0.845
REMARK  7 active torsions:
REMARK  status: ('A' for Active; 'I' for Inactive)
REMARK    1  A    between atoms: C22_10  and  C19_16 
REMARK       I    between atoms: C22_10  and  N25_19 
REMARK    2  A    between atoms: C12_12  and  C18_15 
REMARK    3  A    between atoms: N25_19  and  C37_23 
REMARK    4  A    between atoms: C37_23  and  C38_24 
REMARK    5  A    between atoms: C38_24  and  N4_25 
REMARK    6  A    between atoms: N4_25  and  C39_26 
REMARK    7  A    between atoms: N4_25  and  C40_27 
ROOT
HETATM    1  C4    D T1294     -19.782  -5.163  38.840  1.00 32.29     0.052 C 
HETATM    2  C13   D T1294     -19.756  -7.419  41.860  1.00 33.66     0.002 A 
HETATM    3  C3    D T1294     -19.389  -8.350  43.025  1.00 26.27     0.033 C 
HETATM    4  C14   D T1294     -20.001  -6.034  40.028  1.00 36.57     0.064 A 
HETATM    5  C18   D T1294     -21.124  -7.114  41.570  1.00 31.41     0.077 A 
HETATM    6  C19   D T1294     -19.041  -6.772  40.848  1.00 39.79     0.069 A 
HETATM    7  N23   D T1294     -21.190  -6.283  40.524  1.00 32.77    -0.250 NA
ENDROOT
BRANCH   5   8
HETATM    8  C12   D T1294     -22.340  -7.728  42.346  1.00 29.19     0.024 C 
HETATM    9  C20   D T1294     -22.763  -7.436  43.647  1.00 28.62     0.061 A 
HETATM   10  C17   D T1294     -23.912  -8.006  44.218  1.00 28.15     0.025 A 
HETATM   11  C21   D T1294     -22.242  -6.564  44.670  1.00 24.63     0.279 A 
HETATM   12  C7    D T1294     -24.845  -8.930  43.666  1.00 25.53     0.031 A 
HETATM   13  C16   D T1294     -24.061  -7.476  45.562  1.00 25.62     0.085 A 
HETATM   14  C15   D T1294     -25.930  -9.318  44.471  1.00 28.19     0.140 A 
HETATM   15  C5    D T1294     -26.141  -8.799  45.841  1.00 25.66     0.031 A 
HETATM   16  F29   D T1294     -26.766 -10.136  44.025  1.00 36.26    -0.204 F 
HETATM   17  C6    D T1294     -25.248  -7.948  46.395  1.00 26.69     0.021 A 
HETATM   18  N24   D T1294     -22.994  -6.566  45.843  1.00 23.74    -0.208 NA
HETATM   19  O27   D T1294     -21.246  -5.940  44.559  1.00 23.40    -0.265 OA
ENDBRANCH   5   8
BRANCH   6  20
HETATM   20  C22   D T1294     -17.624  -6.763  40.543  1.00 51.05     0.280 C 
HETATM   21  N25   D T1294     -17.269  -7.618  39.583  1.00 55.83    -0.209 NA
HETATM   22  O28   D T1294     -16.824  -6.030  41.043  1.00 56.66    -0.265 OA
BRANCH  21  23
HETATM   23  C37   D T1294     -15.976  -7.778  39.104  1.00 58.65     0.101 C 
BRANCH  23  24
HETATM   24  C38   D T1294     -15.475  -9.007  39.842  1.00 62.48     0.153 C 
BRANCH  24  25
HETATM   25  N4    D T1294     -14.710  -8.885  41.142  1.00 67.11    -0.327 N 
BRANCH  25  26
HETATM   26  C39   D T1294     -13.440  -9.796  40.993  1.00 68.16     0.049 C 
HETATM   27  C42   D T1294     -13.044 -10.982  42.003  1.00 67.52     0.051 C 
ENDBRANCH  25  26
BRANCH  25  28
HETATM   28  C40   D T1294     -15.584  -8.737  42.535  1.00 67.42     0.049 C 
HETATM   29  C41   D T1294     -15.241  -7.982  43.844  1.00 66.32     0.051 C 
ENDBRANCH  25  28
ENDBRANCH  24  25
ENDBRANCH  23  24
ENDBRANCH  21  23
ENDBRANCH   6  20
TORSDOF 7
ENDMDL
MODEL 6
REMARK VINA RESULT:    -7.167      4.745      7.191
REMARK INTER + INTRA:         -10.946
REMARK INTER:                  -9.940
REMARK INTRA:                  -1.006
REMARK UNBOUND:                -0.845
REMARK  7 active torsions:
REMARK  status: ('A' for Active; 'I' for Inactive)
REMARK    1  A    between atoms: C22_10  and  C19_16 
REMARK       I    between atoms: C22_10  and  N25_19 
REMARK    2  A    between atoms: C12_12  and  C18_15 
REMARK    3  A    between atoms: N25_19  and  C37_23 
REMARK    4  A    between atoms: C37_23  and  C38_24 
REMARK    5  A    between atoms: C38_24  and  N4_25 
REMARK    6  A    between atoms: N4_25  and  C39_26 
REMARK    7  A    between atoms: N4_25  and  C40_27 
ROOT
HETATM    1  C4    D T1294     -19.836  -4.478  37.035  1.00 32.29     0.052 C 
HETATM    2  C13   D T1294     -17.343  -7.066  38.175  1.00 33.66     0.002 A 
HETATM    3  C3    D T1294     -16.316  -8.202  38.287  1.00 26.27     0.033 C 
HETATM    4  C14   D T1294     -18.902  -5.429  37.699  1.00 36.57     0.064 A 
HETATM    5  C18   D T1294     -17.861  -6.430  39.349  1.00 31.41     0.077 A 
HETATM    6  C19   D T1294     -18.043  -6.464  37.125  1.00 39.79     0.069 A 
HETATM    7  N23   D T1294     -18.729  -5.473  38.999  1.00 32.77    -0.250 NA
ENDROOT
BRANCH   5   8
HETATM    8  C12   D T1294     -17.491  -6.858  40.810  1.00 29.19     0.024 C 
HETATM    9  C20   D T1294     -18.284  -7.558  41.726  1.00 28.62     0.061 A 
HETATM   10  C17   D T1294     -17.820  -7.942  42.994  1.00 28.15     0.025 A 
HETATM   11  C21   D T1294     -19.634  -8.058  41.665  1.00 24.63     0.279 A 
HETATM   12  C7    D T1294     -16.548  -7.740  43.602  1.00 25.53     0.031 A 
HETATM   13  C16   D T1294     -18.887  -8.658  43.670  1.00 25.62     0.085 A 
HETATM   14  C15   D T1294     -16.353  -8.261  44.893  1.00 28.19     0.140 A 
HETATM   15  C5    D T1294     -17.400  -9.011  45.623  1.00 25.66     0.031 A 
HETATM   16  F29   D T1294     -15.252  -8.095  45.464  1.00 36.26    -0.204 F 
HETATM   17  C6    D T1294     -18.625  -9.183  45.077  1.00 26.69     0.021 A 
HETATM   18  N24   D T1294     -20.037  -8.721  42.822  1.00 23.74    -0.208 NA
HETATM   19  O27   D T1294     -20.360  -7.884  40.751  1.00 23.40    -0.265 OA
ENDBRANCH   5   8
BRANCH   6  20
HETATM   20  C22   D T1294     -18.028  -6.728  35.700  1.00 51.05     0.280 C 
HETATM   21  N25   D T1294     -18.714  -7.813  35.340  1.00 55.83    -0.209 NA
HETATM   22  O28   D T1294     -17.508  -6.028  34.882  1.00 56.66    -0.265 OA
BRANCH  21  23
HETATM   23  C37   D T1294     -18.863  -8.260  34.034  1.00 58.65     0.101 C 
BRANCH  23  24
HETATM   24  C38   D T1294     -17.656  -9.159  33.829  1.00 62.48     0.153 C 
BRANCH  24  25
HETATM   25  N4    D T1294     -16.593  -8.826  32.805  1.00 67.11    -0.327 N 
BRANCH  25  26
HETATM   26  C39   D T1294     -16.788  -9.837  31.621  1.00 68.16     0.049 C 
HETATM   27  C42   D T1294     -16.147 -11.310  31.563  1.00 67.52     0.051 C 
ENDBRANCH  25  26
BRANCH  25  28
HETATM   28  C40   D T1294     -15.121  -8.327  33.363  1.00 67.42     0.049 C 
HETATM   29  C41   D T1294     -13.911  -9.164  33.849  1.00 66.32     0.051 C 
ENDBRANCH  25  28
ENDBRANCH  24  25
ENDBRANCH  23  24
ENDBRANCH  21  23
ENDBRANCH   6  20
TORSDOF 7
ENDMDL
MODEL 7
REMARK VINA RESULT:    -7.149      3.857      8.656
REMARK INTER + INTRA:         -10.920
REMARK INTER:                  -9.705
REMARK INTRA:                  -1.214
REMARK UNBOUND:                -0.845
REMARK  7 active torsions:
REMARK  status: ('A' for Active; 'I' for Inactive)
REMARK    1  A    between atoms: C22_10  and  C19_16 
REMARK       I    between atoms: C22_10  and  N25_19 
REMARK    2  A    between atoms: C12_12  and  C18_15 
REMARK    3  A    between atoms: N25_19  and  C37_23 
REMARK    4  A    between atoms: C37_23  and  C38_24 
REMARK    5  A    between atoms: C38_24  and  N4_25 
REMARK    6  A    between atoms: N4_25  and  C39_26 
REMARK    7  A    between atoms: N4_25  and  C40_27 
ROOT
HETATM    1  C4    D T1294     -14.964  -8.577  42.178  1.00 32.29     0.052 C 
HETATM    2  C13   D T1294     -18.343  -7.934  40.636  1.00 33.66     0.002 A 
HETATM    3  C3    D T1294     -19.821  -7.625  40.353  1.00 26.27     0.033 C 
HETATM    4  C14   D T1294     -16.198  -8.378  41.369  1.00 36.57     0.064 A 
HETATM    5  C18   D T1294     -17.461  -8.321  39.577  1.00 31.41     0.077 A 
HETATM    6  C19   D T1294     -17.553  -8.018  41.786  1.00 39.79     0.069 A 
HETATM    7  N23   D T1294     -16.233  -8.528  40.066  1.00 32.77    -0.250 NA
ENDROOT
BRANCH   5   8
HETATM    8  C12   D T1294     -17.914  -8.522  38.090  1.00 29.19     0.024 C 
HETATM    9  C20   D T1294     -17.829  -7.605  37.037  1.00 28.62     0.061 A 
HETATM   10  C17   D T1294     -18.212  -7.921  35.723  1.00 28.15     0.025 A 
HETATM   11  C21   D T1294     -17.368  -6.242  36.964  1.00 24.63     0.279 A 
HETATM   12  C7    D T1294     -18.727  -9.136  35.188  1.00 25.53     0.031 A 
HETATM   13  C16   D T1294     -17.980  -6.754  34.891  1.00 25.62     0.085 A 
HETATM   14  C15   D T1294     -19.006  -9.174  33.811  1.00 28.19     0.140 A 
HETATM   15  C5    D T1294     -18.775  -8.021  32.912  1.00 25.66     0.031 A 
HETATM   16  F29   D T1294     -19.469 -10.221  33.305  1.00 36.26    -0.204 F 
HETATM   17  C6    D T1294     -18.320  -6.848  33.407  1.00 26.69     0.021 A 
HETATM   18  N24   D T1294     -17.449  -5.691  35.688  1.00 23.74    -0.208 NA
HETATM   19  O27   D T1294     -17.002  -5.620  37.899  1.00 23.40    -0.265 OA
ENDBRANCH   5   8
BRANCH   6  20
HETATM   20  C22   D T1294     -17.887  -7.828  43.184  1.00 51.05     0.280 C 
HETATM   21  N25   D T1294     -18.652  -8.792  43.696  1.00 55.83    -0.209 NA
HETATM   22  O28   D T1294     -17.485  -6.932  43.865  1.00 56.66    -0.265 OA
BRANCH  21  23
HETATM   23  C37   D T1294     -19.086  -8.843  45.014  1.00 58.65     0.101 C 
BRANCH  23  24
HETATM   24  C38   D T1294     -20.500  -9.385  44.900  1.00 62.48     0.153 C 
BRANCH  24  25
HETATM   25  N4    D T1294     -21.698  -8.548  45.293  1.00 67.11    -0.327 N 
BRANCH  25  26
HETATM   26  C39   D T1294     -22.953  -9.479  45.149  1.00 68.16     0.049 C 
HETATM   27  C42   D T1294     -24.316  -9.066  44.404  1.00 67.52     0.051 C 
ENDBRANCH  25  26
BRANCH  25  28
HETATM   28  C40   D T1294     -21.681  -6.948  44.886  1.00 67.42     0.049 C 
HETATM   29  C41   D T1294     -21.423  -6.278  43.513  1.00 66.32     0.051 C 
ENDBRANCH  25  28
ENDBRANCH  24  25
ENDBRANCH  23  24
ENDBRANCH  21  23
ENDBRANCH   6  20
TORSDOF 7
ENDMDL
MODEL 8
REMARK VINA RESULT:    -7.098      3.991      8.632
REMARK INTER + INTRA:         -10.848
REMARK INTER:                  -9.651
REMARK INTRA:                  -1.198
REMARK UNBOUND:                -0.845
REMARK  7 active torsions:
REMARK  status: ('A' for Active; 'I' for Inactive)
REMARK    1  A    between atoms: C22_10  and  C19_16 
REMARK       I    between atoms: C22_10  and  N25_19 
REMARK    2  A    between atoms: C12_12  and  C18_15 
REMARK    3  A    between atoms: N25_19  and  C37_23 
REMARK    4  A    between atoms: C37_23  and  C38_24 
REMARK    5  A    between atoms: C38_24  and  N4_25 
REMARK    6  A    between atoms: N4_25  and  C39_26 
REMARK    7  A    between atoms: N4_25  and  C40_27 
ROOT
HETATM    1  C4    D T1294     -15.153  -8.174  43.196  1.00 32.29     0.052 C 
HETATM    2  C13   D T1294     -18.281  -6.916  41.509  1.00 33.66     0.002 A 
HETATM    3  C3    D T1294     -19.716  -6.531  41.121  1.00 26.27     0.033 C 
HETATM    4  C14   D T1294     -16.251  -7.627  42.351  1.00 36.57     0.064 A 
HETATM    5  C18   D T1294     -17.200  -6.734  40.588  1.00 31.41     0.077 A 
HETATM    6  C19   D T1294     -17.686  -7.532  42.614  1.00 39.79     0.069 A 
HETATM    7  N23   D T1294     -16.054  -7.132  41.152  1.00 32.77    -0.250 NA
ENDROOT
BRANCH   5   8
HETATM    8  C12   D T1294     -17.378  -6.201  39.125  1.00 29.19     0.024 C 
HETATM    9  C20   D T1294     -17.878  -6.891  38.016  1.00 28.62     0.061 A 
HETATM   10  C17   D T1294     -18.051  -6.286  36.761  1.00 28.15     0.025 A 
HETATM   11  C21   D T1294     -18.332  -8.247  37.833  1.00 24.63     0.279 A 
HETATM   12  C7    D T1294     -17.792  -4.948  36.346  1.00 25.53     0.031 A 
HETATM   13  C16   D T1294     -18.598  -7.278  35.851  1.00 25.62     0.085 A 
HETATM   14  C15   D T1294     -18.086  -4.611  35.014  1.00 28.19     0.140 A 
HETATM   15  C5    D T1294     -18.658  -5.576  34.048  1.00 25.66     0.031 A 
HETATM   16  F29   D T1294     -17.863  -3.447  34.610  1.00 36.26    -0.204 F 
HETATM   17  C6    D T1294     -18.879  -6.859  34.412  1.00 26.69     0.021 A 
HETATM   18  N24   D T1294     -18.767  -8.521  36.539  1.00 23.74    -0.208 NA
HETATM   19  O27   D T1294     -18.295  -9.072  38.676  1.00 23.40    -0.265 OA
ENDBRANCH   5   8
BRANCH   6  20
HETATM   20  C22   D T1294     -18.264  -8.043  43.842  1.00 51.05     0.280 C 
HETATM   21  N25   D T1294     -19.163  -9.011  43.658  1.00 55.83    -0.209 NA
HETATM   22  O28   D T1294     -17.948  -7.695  44.941  1.00 56.66    -0.265 OA
BRANCH  21  23
HETATM   23  C37   D T1294     -19.837  -9.669  44.678  1.00 58.65     0.101 C 
BRANCH  23  24
HETATM   24  C38   D T1294     -21.300  -9.439  44.340  1.00 62.48     0.153 C 
BRANCH  24  25
HETATM   25  N4    D T1294     -22.211  -8.672  45.274  1.00 67.11    -0.327 N 
BRANCH  25  26
HETATM   26  C39   D T1294     -23.629  -9.333  45.147  1.00 68.16     0.049 C 
HETATM   27  C42   D T1294     -24.972  -8.747  45.810  1.00 67.52     0.051 C 
ENDBRANCH  25  26
BRANCH  25  28
HETATM   28  C40   D T1294     -21.956  -7.049  45.432  1.00 67.42     0.049 C 
HETATM   29  C41   D T1294     -21.169  -6.076  44.518  1.00 66.32     0.051 C 
ENDBRANCH  25  28
ENDBRANCH  24  25
ENDBRANCH  23  24
ENDBRANCH  21  23
ENDBRANCH   6  20
TORSDOF 7
ENDMDL
MODEL 9
REMARK VINA RESULT:    -6.979      2.605      3.610
REMARK INTER + INTRA:         -10.681
REMARK INTER:                  -9.622
REMARK INTRA:                  -1.059
REMARK UNBOUND:                -0.845
REMARK  7 active torsions:
REMARK  status: ('A' for Active; 'I' for Inactive)
REMARK    1  A    between atoms: C22_10  and  C19_16 
REMARK       I    between atoms: C22_10  and  N25_19 
REMARK    2  A    between atoms: C12_12  and  C18_15 
REMARK    3  A    between atoms: N25_19  and  C37_23 
REMARK    4  A    between atoms: C37_23  and  C38_24 
REMARK    5  A    between atoms: C38_24  and  N4_25 
REMARK    6  A    between atoms: N4_25  and  C39_26 
REMARK    7  A    between atoms: N4_25  and  C40_27 
ROOT
HETATM    1  C4    D T1294     -16.751  -8.324  41.996  1.00 32.29     0.052 C 
HETATM    2  C13   D T1294     -20.277  -7.417  41.019  1.00 33.66     0.002 A 
HETATM    3  C3    D T1294     -21.546  -6.829  40.384  1.00 26.27     0.033 C 
HETATM    4  C14   D T1294     -18.208  -8.101  41.786  1.00 36.57     0.064 A 
HETATM    5  C18   D T1294     -20.362  -8.295  42.147  1.00 31.41     0.077 A 
HETATM    6  C19   D T1294     -18.903  -7.252  40.819  1.00 39.79     0.069 A 
HETATM    7  N23   D T1294     -19.134  -8.679  42.514  1.00 32.77    -0.250 NA
ENDROOT
BRANCH   5   8
HETATM    8  C12   D T1294     -21.706  -8.680  42.856  1.00 29.19     0.024 C 
HETATM    9  C20   D T1294     -22.341  -8.014  43.908  1.00 28.62     0.061 A 
HETATM   10  C17   D T1294     -23.583  -8.419  44.424  1.00 28.15     0.025 A 
HETATM   11  C21   D T1294     -21.988  -6.850  44.681  1.00 24.63     0.279 A 
HETATM   12  C7    D T1294     -24.425  -9.501  44.037  1.00 25.53     0.031 A 
HETATM   13  C16   D T1294     -23.952  -7.504  45.490  1.00 25.62     0.085 A 
HETATM   14  C15   D T1294     -25.640  -9.658  44.725  1.00 28.19     0.140 A 
HETATM   15  C5    D T1294     -26.074  -8.747  45.808  1.00 25.66     0.031 A 
HETATM   16  F29   D T1294     -26.403 -10.603  44.420  1.00 36.26    -0.204 F 
HETATM   17  C6    D T1294     -25.274  -7.736  46.213  1.00 26.69     0.021 A 
HETATM   18  N24   D T1294     -22.932  -6.514  45.650  1.00 23.74    -0.208 NA
HETATM   19  O27   D T1294     -20.976  -6.257  44.554  1.00 23.40    -0.265 OA
ENDBRANCH   5   8
BRANCH   6  20
HETATM   20  C22   D T1294     -18.173  -6.419  39.883  1.00 51.05     0.280 C 
HETATM   21  N25   D T1294     -18.025  -6.961  38.674  1.00 55.83    -0.209 NA
HETATM   22  O28   D T1294     -17.775  -5.317  40.119  1.00 56.66    -0.265 OA
BRANCH  21  23
HETATM   23  C37   D T1294     -17.381  -6.351  37.607  1.00 58.65     0.101 C 
BRANCH  23  24
HETATM   24  C38   D T1294     -17.302  -7.453  36.564  1.00 62.48     0.153 C 
BRANCH  24  25
HETATM   25  N4    D T1294     -18.485  -7.784  35.680  1.00 67.11    -0.327 N 
BRANCH  25  26
HETATM   26  C39   D T1294     -19.067  -6.411  35.190  1.00 68.16     0.049 C 
HETATM   27  C42   D T1294     -20.449  -6.240  34.387  1.00 67.52     0.051 C 
ENDBRANCH  25  26
BRANCH  25  28
HETATM   28  C40   D T1294     -19.410  -9.087  36.094  1.00 67.42     0.049 C 
HETATM   29  C41   D T1294     -20.415  -9.900  35.239  1.00 66.32     0.051 C 
ENDBRANCH  25  28
ENDBRANCH  24  25
ENDBRANCH  23  24
ENDBRANCH  21  23
ENDBRANCH   6  20
TORSDOF 7
ENDMDL
