MODEL 1
REMARK VINA RESULT:    -7.349      0.000      0.000
REMARK INTER + INTRA:         -11.511
REMARK INTER:                 -10.357
REMARK INTRA:                  -1.155
REMARK UNBOUND:                -1.155
REMARK  7 active torsions:
REMARK  status: ('A' for Active; 'I' for Inactive)
REMARK    1  A    between atoms: C22_10  and  C19_16 
REMARK       I    between atoms: C22_10  and  N25_19 
REMARK    2  A    between atoms: C12_12  and  C18_15 
REMARK    3  A    between atoms: N25_19  and  C37_23 
REMARK    4  A    between atoms: C37_23  and  C38_24 
REMARK    5  A    between atoms: C38_24  and  N4_25 
REMARK    6  A    between atoms: N4_25  and  C39_26 
REMARK    7  A    between atoms: N4_25  and  C40_27 
ROOT
HETATM    1  C4    D T1294      -1.238   2.250 -13.659  1.00 32.29     0.052 C 
HETATM    2  C13   D T1294      -0.758   0.255 -10.497  1.00 33.66     0.002 A 
HETATM    3  C3    D T1294      -0.546  -0.229  -9.055  1.00 26.27     0.033 C 
HETATM    4  C14   D T1294      -1.047   1.278 -12.549  1.00 36.57     0.064 A 
HETATM    5  C18   D T1294      -0.785  -0.675 -11.585  1.00 31.41     0.077 A 
HETATM    6  C19   D T1294      -0.875   1.505 -11.114  1.00 39.79     0.069 A 
HETATM    7  N23   D T1294      -0.990  -0.020 -12.734  1.00 32.77    -0.250 NA
ENDROOT
BRANCH   5   8
HETATM    8  C12   D T1294      -0.546  -2.215 -11.424  1.00 29.19     0.024 C 
HETATM    9  C20   D T1294      -1.507  -3.232 -11.391  1.00 28.62     0.061 A 
HETATM   10  C17   D T1294      -1.169  -4.592 -11.306  1.00 28.15     0.025 A 
HETATM   11  C21   D T1294      -2.947  -3.218 -11.445  1.00 24.63     0.279 A 
HETATM   12  C7    D T1294       0.112  -5.214 -11.244  1.00 25.53     0.031 A 
HETATM   13  C16   D T1294      -2.397  -5.366 -11.308  1.00 25.62     0.085 A 
HETATM   14  C15   D T1294       0.151  -6.618 -11.186  1.00 28.19     0.140 A 
HETATM   15  C5    D T1294      -1.069  -7.458 -11.201  1.00 25.66     0.031 A 
HETATM   16  F29   D T1294       1.257  -7.202 -11.121  1.00 36.26    -0.204 F 
HETATM   17  C6    D T1294      -2.294  -6.885 -11.224  1.00 26.69     0.021 A 
HETATM   18  N24   D T1294      -3.521  -4.486 -11.392  1.00 23.74    -0.208 NA
HETATM   19  O27   D T1294      -3.594  -2.231 -11.481  1.00 23.40    -0.265 OA
ENDBRANCH   5   8
BRANCH   6  20
HETATM   20  C22   D T1294      -0.832   2.844 -10.562  1.00 51.05     0.280 C 
HETATM   21  N25   D T1294      -1.825   3.115  -9.714  1.00 55.83    -0.209 NA
HETATM   22  O28   D T1294       0.030   3.643 -10.778  1.00 56.66    -0.265 OA
BRANCH  21  23
HETATM   23  C37   D T1294      -1.987   4.321  -9.044  1.00 58.65     0.101 C 
BRANCH  23  24
HETATM   24  C38   D T1294      -2.946   3.976  -7.918  1.00 62.48     0.153 C 
BRANCH  24  25
HETATM   25  N4    D T1294      -4.247   3.254  -8.188  1.00 67.11    -0.327 N 
BRANCH  25  26
HETATM   26  C39   D T1294      -5.386   4.169  -7.612  1.00 68.16     0.049 C 
HETATM   27  C42   D T1294      -6.952   3.810  -7.650  1.00 67.52     0.051 C 
ENDBRANCH  25  26
BRANCH  25  28
HETATM   28  C40   D T1294      -4.246   1.606  -8.090  1.00 67.42     0.049 C 
HETATM   29  C41   D T1294      -4.289   0.546  -9.220  1.00 66.32     0.051 C 
ENDBRANCH  25  28
ENDBRANCH  24  25
ENDBRANCH  23  24
ENDBRANCH  21  23
ENDBRANCH   6  20
TORSDOF 7
ENDMDL
MODEL 2
REMARK VINA RESULT:    -7.303      4.578      6.821
REMARK INTER + INTRA:         -11.447
REMARK INTER:                 -10.305
REMARK INTRA:                  -1.142
REMARK UNBOUND:                -1.155
REMARK  7 active torsions:
REMARK  status: ('A' for Active; 'I' for Inactive)
REMARK    1  A    between atoms: C22_10  and  C19_16 
REMARK       I    between atoms: C22_10  and  N25_19 
REMARK    2  A    between atoms: C12_12  and  C18_15 
REMARK    3  A    between atoms: N25_19  and  C37_23 
REMARK    4  A    between atoms: C37_23  and  C38_24 
REMARK    5  A    between atoms: C38_24  and  N4_25 
REMARK    6  A    between atoms: N4_25  and  C39_26 
REMARK    7  A    between atoms: N4_25  and  C40_27 
ROOT
HETATM    1  C4    D T1294      -8.473  -5.360 -10.896  1.00 32.29     0.052 C 
HETATM    2  C13   D T1294      -5.639  -3.563 -12.613  1.00 33.66     0.002 A 
HETATM    3  C3    D T1294      -4.753  -2.674 -13.500  1.00 26.27     0.033 C 
HETATM    4  C14   D T1294      -7.216  -4.785 -11.447  1.00 36.57     0.064 A 
HETATM    5  C18   D T1294      -5.056  -4.515 -11.717  1.00 31.41     0.077 A 
HETATM    6  C19   D T1294      -7.016  -3.767 -12.479  1.00 39.79     0.069 A 
HETATM    7  N23   D T1294      -6.022  -5.160 -11.051  1.00 32.77    -0.250 NA
ENDROOT
BRANCH   5   8
HETATM    8  C12   D T1294      -3.515  -4.778 -11.602  1.00 29.19     0.024 C 
HETATM    9  C20   D T1294      -2.558  -3.993 -10.951  1.00 28.62     0.061 A 
HETATM   10  C17   D T1294      -1.207  -4.364 -10.859  1.00 28.15     0.025 A 
HETATM   11  C21   D T1294      -2.639  -2.738 -10.246  1.00 24.63     0.279 A 
HETATM   12  C7    D T1294      -0.542  -5.523 -11.354  1.00 25.53     0.031 A 
HETATM   13  C16   D T1294      -0.504  -3.337 -10.112  1.00 25.62     0.085 A 
HETATM   14  C15   D T1294       0.834  -5.645 -11.092  1.00 28.19     0.140 A 
HETATM   15  C5    D T1294       1.598  -4.637 -10.322  1.00 25.66     0.031 A 
HETATM   16  F29   D T1294       1.457  -6.644 -11.518  1.00 36.26    -0.204 F 
HETATM   17  C6    D T1294       0.992  -3.514  -9.875  1.00 26.69     0.021 A 
HETATM   18  N24   D T1294      -1.419  -2.306  -9.731  1.00 23.74    -0.208 NA
HETATM   19  O27   D T1294      -3.627  -2.100 -10.151  1.00 23.40    -0.265 OA
ENDBRANCH   5   8
BRANCH   6  20
HETATM   20  C22   D T1294      -8.137  -3.171 -13.178  1.00 51.05     0.280 C 
HETATM   21  N25   D T1294      -8.222  -1.847 -13.040  1.00 55.83    -0.209 NA
HETATM   22  O28   D T1294      -8.905  -3.769 -13.870  1.00 56.66    -0.265 OA
BRANCH  21  23
HETATM   23  C37   D T1294      -9.195  -1.051 -13.629  1.00 58.65     0.101 C 
BRANCH  23  24
HETATM   24  C38   D T1294      -9.723  -0.221 -12.471  1.00 62.48     0.153 C 
BRANCH  24  25
HETATM   25  N4    D T1294     -10.741  -0.781 -11.503  1.00 67.11    -0.327 N 
BRANCH  25  26
HETATM   26  C39   D T1294      -9.959  -1.113 -10.183  1.00 68.16     0.049 C 
HETATM   27  C42   D T1294     -10.299  -0.491  -8.740  1.00 67.52     0.051 C 
ENDBRANCH  25  26
BRANCH  25  28
HETATM   28  C40   D T1294     -11.952  -1.718 -12.120  1.00 67.42     0.049 C 
HETATM   29  C41   D T1294     -12.001  -3.250 -12.350  1.00 66.32     0.051 C 
ENDBRANCH  25  28
ENDBRANCH  24  25
ENDBRANCH  23  24
ENDBRANCH  21  23
ENDBRANCH   6  20
TORSDOF 7
ENDMDL
MODEL 3
REMARK VINA RESULT:    -7.238      4.230      6.670
REMARK INTER + INTRA:         -11.355
REMARK INTER:                  -9.999
REMARK INTRA:                  -1.357
REMARK UNBOUND:                -1.155
REMARK  7 active torsions:
REMARK  status: ('A' for Active; 'I' for Inactive)
REMARK    1  A    between atoms: C22_10  and  C19_16 
REMARK       I    between atoms: C22_10  and  N25_19 
REMARK    2  A    between atoms: C12_12  and  C18_15 
REMARK    3  A    between atoms: N25_19  and  C37_23 
REMARK    4  A    between atoms: C37_23  and  C38_24 
REMARK    5  A    between atoms: C38_24  and  N4_25 
REMARK    6  A    between atoms: N4_25  and  C39_26 
REMARK    7  A    between atoms: N4_25  and  C40_27 
ROOT
HETATM    1  C4    D T1294      -5.910  -0.062 -13.816  1.00 32.29     0.052 C 
HETATM    2  C13   D T1294      -4.932  -1.843 -10.641  1.00 33.66     0.002 A 
HETATM    3  C3    D T1294      -4.892  -2.563  -9.284  1.00 26.27     0.033 C 
HETATM    4  C14   D T1294      -5.306  -0.732 -12.632  1.00 36.57     0.064 A 
HETATM    5  C18   D T1294      -3.722  -1.491 -11.319  1.00 31.41     0.077 A 
HETATM    6  C19   D T1294      -5.943  -1.317 -11.452  1.00 39.79     0.069 A 
HETATM    7  N23   D T1294      -4.012  -0.885 -12.477  1.00 32.77    -0.250 NA
ENDROOT
BRANCH   5   8
HETATM    8  C12   D T1294      -2.289  -1.740 -10.736  1.00 29.19     0.024 C 
HETATM    9  C20   D T1294      -1.518  -2.904 -10.827  1.00 28.62     0.061 A 
HETATM   10  C17   D T1294      -0.212  -2.990 -10.316  1.00 28.15     0.025 A 
HETATM   11  C21   D T1294      -1.768  -4.199 -11.407  1.00 24.63     0.279 A 
HETATM   12  C7    D T1294       0.576  -2.008  -9.650  1.00 25.53     0.031 A 
HETATM   13  C16   D T1294       0.296  -4.322 -10.592  1.00 25.62     0.085 A 
HETATM   14  C15   D T1294       1.878  -2.371  -9.264  1.00 28.19     0.140 A 
HETATM   15  C5    D T1294       2.453  -3.708  -9.533  1.00 25.66     0.031 A 
HETATM   16  F29   D T1294       2.598  -1.538  -8.666  1.00 36.26    -0.204 F 
HETATM   17  C6    D T1294       1.709  -4.665 -10.133  1.00 26.69     0.021 A 
HETATM   18  N24   D T1294      -0.699  -5.084 -11.280  1.00 23.74    -0.208 NA
HETATM   19  O27   D T1294      -2.793  -4.512 -11.901  1.00 23.40    -0.265 OA
ENDBRANCH   5   8
BRANCH   6  20
HETATM   20  C22   D T1294      -7.380  -1.271 -11.269  1.00 51.05     0.280 C 
HETATM   21  N25   D T1294      -8.030  -2.303 -11.809  1.00 55.83    -0.209 NA
HETATM   22  O28   D T1294      -7.962  -0.433 -10.648  1.00 56.66    -0.265 OA
BRANCH  21  23
HETATM   23  C37   D T1294      -9.405  -2.491 -11.750  1.00 58.65     0.101 C 
BRANCH  23  24
HETATM   24  C38   D T1294      -9.547  -3.974 -11.453  1.00 62.48     0.153 C 
BRANCH  24  25
HETATM   25  N4    D T1294      -8.724  -5.005 -12.193  1.00 67.11    -0.327 N 
BRANCH  25  26
HETATM   26  C39   D T1294      -9.691  -5.677 -13.232  1.00 68.16     0.049 C 
HETATM   27  C42   D T1294      -9.409  -7.078 -13.969  1.00 67.52     0.051 C 
ENDBRANCH  25  26
BRANCH  25  28
HETATM   28  C40   D T1294      -7.570  -5.822 -11.341  1.00 67.42     0.049 C 
HETATM   29  C41   D T1294      -6.046  -5.564 -11.238  1.00 66.32     0.051 C 
ENDBRANCH  25  28
ENDBRANCH  24  25
ENDBRANCH  23  24
ENDBRANCH  21  23
ENDBRANCH   6  20
TORSDOF 7
ENDMDL
MODEL 4
REMARK VINA RESULT:    -7.132      3.911      6.357
REMARK INTER + INTRA:         -11.205
REMARK INTER:                  -9.967
REMARK INTRA:                  -1.238
REMARK UNBOUND:                -1.155
REMARK  7 active torsions:
REMARK  status: ('A' for Active; 'I' for Inactive)
REMARK    1  A    between atoms: C22_10  and  C19_16 
REMARK       I    between atoms: C22_10  and  N25_19 
REMARK    2  A    between atoms: C12_12  and  C18_15 
REMARK    3  A    between atoms: N25_19  and  C37_23 
REMARK    4  A    between atoms: C37_23  and  C38_24 
REMARK    5  A    between atoms: C38_24  and  N4_25 
REMARK    6  A    between atoms: N4_25  and  C39_26 
REMARK    7  A    between atoms: N4_25  and  C40_27 
ROOT
HETATM    1  C4    D T1294      -8.433  -5.394 -10.888  1.00 32.29     0.052 C 
HETATM    2  C13   D T1294      -5.604  -3.634 -12.650  1.00 33.66     0.002 A 
HETATM    3  C3    D T1294      -4.720  -2.769 -13.562  1.00 26.27     0.033 C 
HETATM    4  C14   D T1294      -7.177  -4.828 -11.452  1.00 36.57     0.064 A 
HETATM    5  C18   D T1294      -5.018  -4.553 -11.722  1.00 31.41     0.077 A 
HETATM    6  C19   D T1294      -6.980  -3.843 -12.516  1.00 39.79     0.069 A 
HETATM    7  N23   D T1294      -5.983  -5.182 -11.040  1.00 32.77    -0.250 NA
ENDROOT
BRANCH   5   8
HETATM    8  C12   D T1294      -3.477  -4.802 -11.592  1.00 29.19     0.024 C 
HETATM    9  C20   D T1294      -2.530  -3.996 -10.951  1.00 28.62     0.061 A 
HETATM   10  C17   D T1294      -1.176  -4.355 -10.844  1.00 28.15     0.025 A 
HETATM   11  C21   D T1294      -2.624  -2.727 -10.273  1.00 24.63     0.279 A 
HETATM   12  C7    D T1294      -0.499  -5.519 -11.310  1.00 25.53     0.031 A 
HETATM   13  C16   D T1294      -0.485  -3.308 -10.113  1.00 25.62     0.085 A 
HETATM   14  C15   D T1294       0.876  -5.625 -11.037  1.00 28.19     0.140 A 
HETATM   15  C5    D T1294       1.627  -4.596 -10.283  1.00 25.66     0.031 A 
HETATM   16  F29   D T1294       1.508  -6.628 -11.439  1.00 36.26    -0.204 F 
HETATM   17  C6    D T1294       1.010  -3.468  -9.863  1.00 26.69     0.021 A 
HETATM   18  N24   D T1294      -1.411  -2.276  -9.759  1.00 23.74    -0.208 NA
HETATM   19  O27   D T1294      -3.618  -2.095 -10.197  1.00 23.40    -0.265 OA
ENDBRANCH   5   8
BRANCH   6  20
HETATM   20  C22   D T1294      -8.101  -3.277 -13.238  1.00 51.05     0.280 C 
HETATM   21  N25   D T1294      -8.184  -1.948 -13.159  1.00 55.83    -0.209 NA
HETATM   22  O28   D T1294      -8.872  -3.904 -13.902  1.00 56.66    -0.265 OA
BRANCH  21  23
HETATM   23  C37   D T1294      -9.158  -1.178 -13.781  1.00 58.65     0.101 C 
BRANCH  23  24
HETATM   24  C38   D T1294      -9.182   0.097 -12.956  1.00 62.48     0.153 C 
BRANCH  24  25
HETATM   25  N4    D T1294      -8.168   0.343 -11.861  1.00 67.11    -0.327 N 
BRANCH  25  26
HETATM   26  C39   D T1294      -8.975   0.380 -10.514  1.00 68.16     0.049 C 
HETATM   27  C42   D T1294     -10.166  -0.630 -10.135  1.00 67.52     0.051 C 
ENDBRANCH  25  26
BRANCH  25  28
HETATM   28  C40   D T1294      -6.895   1.336 -12.203  1.00 67.42     0.049 C 
HETATM   29  C41   D T1294      -5.407   0.985 -12.460  1.00 66.32     0.051 C 
ENDBRANCH  25  28
ENDBRANCH  24  25
ENDBRANCH  23  24
ENDBRANCH  21  23
ENDBRANCH   6  20
TORSDOF 7
ENDMDL
MODEL 5
REMARK VINA RESULT:    -7.018      1.935      2.176
REMARK INTER + INTRA:         -11.045
REMARK INTER:                  -9.768
REMARK INTRA:                  -1.277
REMARK UNBOUND:                -1.155
REMARK  7 active torsions:
REMARK  status: ('A' for Active; 'I' for Inactive)
REMARK    1  A    between atoms: C22_10  and  C19_16 
REMARK       I    between atoms: C22_10  and  N25_19 
REMARK    2  A    between atoms: C12_12  and  C18_15 
REMARK    3  A    between atoms: N25_19  and  C37_23 
REMARK    4  A    between atoms: C37_23  and  C38_24 
REMARK    5  A    between atoms: C38_24  and  N4_25 
REMARK    6  A    between atoms: N4_25  and  C39_26 
REMARK    7  A    between atoms: N4_25  and  C40_27 
ROOT
HETATM    1  C4    D T1294      -1.103   2.349 -13.854  1.00 32.29     0.052 C 
HETATM    2  C13   D T1294      -1.902   0.145 -10.903  1.00 33.66     0.002 A 
HETATM    3  C3    D T1294      -2.344  -0.443  -9.553  1.00 26.27     0.033 C 
HETATM    4  C14   D T1294      -1.319   1.310 -12.811  1.00 36.57     0.064 A 
HETATM    5  C18   D T1294      -1.235  -0.671 -11.872  1.00 31.41     0.077 A 
HETATM    6  C19   D T1294      -1.913   1.419 -11.478  1.00 39.79     0.069 A 
HETATM    7  N23   D T1294      -0.959   0.057 -12.961  1.00 32.77    -0.250 NA
ENDROOT
BRANCH   5   8
HETATM    8  C12   D T1294      -0.848  -2.171 -11.636  1.00 29.19     0.024 C 
HETATM    9  C20   D T1294      -1.685  -3.290 -11.691  1.00 28.62     0.061 A 
HETATM   10  C17   D T1294      -1.211  -4.601 -11.522  1.00 28.15     0.025 A 
HETATM   11  C21   D T1294      -3.100  -3.442 -11.923  1.00 24.63     0.279 A 
HETATM   12  C7    D T1294       0.113  -5.071 -11.283  1.00 25.53     0.031 A 
HETATM   13  C16   D T1294      -2.335  -5.511 -11.653  1.00 25.62     0.085 A 
HETATM   14  C15   D T1294       0.301  -6.460 -11.178  1.00 28.19     0.140 A 
HETATM   15  C5    D T1294      -0.806  -7.434 -11.318  1.00 25.66     0.031 A 
HETATM   16  F29   D T1294       1.448  -6.912 -10.958  1.00 36.26    -0.204 F 
HETATM   17  C6    D T1294      -2.074  -7.006 -11.510  1.00 26.69     0.021 A 
HETATM   18  N24   D T1294      -3.531  -4.766 -11.902  1.00 23.74    -0.208 NA
HETATM   19  O27   D T1294      -3.843  -2.537 -12.069  1.00 23.40    -0.265 OA
ENDBRANCH   5   8
BRANCH   6  20
HETATM   20  C22   D T1294      -2.373   2.691 -10.959  1.00 51.05     0.280 C 
HETATM   21  N25   D T1294      -3.610   3.017 -11.335  1.00 55.83    -0.209 NA
HETATM   22  O28   D T1294      -1.752   3.389 -10.213  1.00 56.66    -0.265 OA
BRANCH  21  23
HETATM   23  C37   D T1294      -4.275   4.175 -10.952  1.00 58.65     0.101 C 
BRANCH  23  24
HETATM   24  C38   D T1294      -5.731   3.746 -10.900  1.00 62.48     0.153 C 
BRANCH  24  25
HETATM   25  N4    D T1294      -6.128   2.292 -11.036  1.00 67.11    -0.327 N 
BRANCH  25  26
HETATM   26  C39   D T1294      -7.168   2.228 -12.210  1.00 68.16     0.049 C 
HETATM   27  C42   D T1294      -7.419   0.940 -13.138  1.00 67.52     0.051 C 
ENDBRANCH  25  26
BRANCH  25  28
HETATM   28  C40   D T1294      -6.233   1.393  -9.656  1.00 67.42     0.049 C 
HETATM   29  C41   D T1294      -6.455  -0.131  -9.481  1.00 66.32     0.051 C 
ENDBRANCH  25  28
ENDBRANCH  24  25
ENDBRANCH  23  24
ENDBRANCH  21  23
ENDBRANCH   6  20
TORSDOF 7
ENDMDL
MODEL 6
REMARK VINA RESULT:    -7.014      5.533      7.467
REMARK INTER + INTRA:         -11.039
REMARK INTER:                  -9.698
REMARK INTRA:                  -1.341
REMARK UNBOUND:                -1.155
REMARK  7 active torsions:
REMARK  status: ('A' for Active; 'I' for Inactive)
REMARK    1  A    between atoms: C22_10  and  C19_16 
REMARK       I    between atoms: C22_10  and  N25_19 
REMARK    2  A    between atoms: C12_12  and  C18_15 
REMARK    3  A    between atoms: N25_19  and  C37_23 
REMARK    4  A    between atoms: C37_23  and  C38_24 
REMARK    5  A    between atoms: C38_24  and  N4_25 
REMARK    6  A    between atoms: N4_25  and  C39_26 
REMARK    7  A    between atoms: N4_25  and  C40_27 
ROOT
HETATM    1  C4    D T1294      -8.730  -5.393 -10.525  1.00 32.29     0.052 C 
HETATM    2  C13   D T1294      -6.031  -3.684 -12.524  1.00 33.66     0.002 A 
HETATM    3  C3    D T1294      -5.195  -2.951 -13.585  1.00 26.27     0.033 C 
HETATM    4  C14   D T1294      -7.524  -4.777 -11.141  1.00 36.57     0.064 A 
HETATM    5  C18   D T1294      -5.420  -4.185 -11.331  1.00 31.41     0.077 A 
HETATM    6  C19   D T1294      -7.361  -4.103 -12.429  1.00 39.79     0.069 A 
HETATM    7  N23   D T1294      -6.346  -4.773 -10.563  1.00 32.77    -0.250 NA
ENDROOT
BRANCH   5   8
HETATM    8  C12   D T1294      -3.885  -4.094 -11.029  1.00 29.19     0.024 C 
HETATM    9  C20   D T1294      -2.895  -5.033 -11.336  1.00 28.62     0.061 A 
HETATM   10  C17   D T1294      -1.533  -4.813 -11.071  1.00 28.15     0.025 A 
HETATM   11  C21   D T1294      -2.940  -6.334 -11.953  1.00 24.63     0.279 A 
HETATM   12  C7    D T1294      -0.886  -3.687 -10.485  1.00 25.53     0.031 A 
HETATM   13  C16   D T1294      -0.789  -5.974 -11.525  1.00 25.62     0.085 A 
HETATM   14  C15   D T1294       0.514  -3.733 -10.361  1.00 28.19     0.140 A 
HETATM   15  C5    D T1294       1.324  -4.884 -10.822  1.00 25.66     0.031 A 
HETATM   16  F29   D T1294       1.119  -2.767  -9.843  1.00 36.26    -0.204 F 
HETATM   17  C6    D T1294       0.725  -5.976 -11.347  1.00 26.69     0.021 A 
HETATM   18  N24   D T1294      -1.690  -6.937 -12.079  1.00 23.74    -0.208 NA
HETATM   19  O27   D T1294      -3.938  -6.873 -12.279  1.00 23.40    -0.265 OA
ENDBRANCH   5   8
BRANCH   6  20
HETATM   20  C22   D T1294      -8.465  -3.978 -13.360  1.00 51.05     0.280 C 
HETATM   21  N25   D T1294      -8.821  -2.719 -13.617  1.00 55.83    -0.209 NA
HETATM   22  O28   D T1294      -8.998  -4.894 -13.913  1.00 56.66    -0.265 OA
BRANCH  21  23
HETATM   23  C37   D T1294      -9.836  -2.345 -14.488  1.00 58.65     0.101 C 
BRANCH  23  24
HETATM   24  C38   D T1294     -10.424  -1.106 -13.836  1.00 62.48     0.153 C 
BRANCH  24  25
HETATM   25  N4    D T1294     -11.457  -1.213 -12.736  1.00 67.11    -0.327 N 
BRANCH  25  26
HETATM   26  C39   D T1294     -10.800  -0.591 -11.452  1.00 68.16     0.049 C 
HETATM   27  C42   D T1294      -9.930  -1.415 -10.382  1.00 67.52     0.051 C 
ENDBRANCH  25  26
BRANCH  25  28
HETATM   28  C40   D T1294     -12.430  -2.547 -12.723  1.00 67.42     0.049 C 
HETATM   29  C41   D T1294     -12.083  -4.023 -12.402  1.00 66.32     0.051 C 
ENDBRANCH  25  28
ENDBRANCH  24  25
ENDBRANCH  23  24
ENDBRANCH  21  23
ENDBRANCH   6  20
TORSDOF 7
ENDMDL
MODEL 7
REMARK VINA RESULT:    -7.013      5.242      9.271
REMARK INTER + INTRA:         -11.038
REMARK INTER:                 -10.175
REMARK INTRA:                  -0.863
REMARK UNBOUND:                -1.155
REMARK  7 active torsions:
REMARK  status: ('A' for Active; 'I' for Inactive)
REMARK    1  A    between atoms: C22_10  and  C19_16 
REMARK       I    between atoms: C22_10  and  N25_19 
REMARK    2  A    between atoms: C12_12  and  C18_15 
REMARK    3  A    between atoms: N25_19  and  C37_23 
REMARK    4  A    between atoms: C37_23  and  C38_24 
REMARK    5  A    between atoms: C38_24  and  N4_25 
REMARK    6  A    between atoms: N4_25  and  C39_26 
REMARK    7  A    between atoms: N4_25  and  C40_27 
ROOT
HETATM    1  C4    D T1294      -7.810  -2.842 -13.471  1.00 32.29     0.052 C 
HETATM    2  C13   D T1294      -5.753  -4.987 -11.153  1.00 33.66     0.002 A 
HETATM    3  C3    D T1294      -5.223  -6.051 -10.180  1.00 26.27     0.033 C 
HETATM    4  C14   D T1294      -6.831  -3.533 -12.588  1.00 36.57     0.064 A 
HETATM    5  C18   D T1294      -4.938  -3.873 -11.534  1.00 31.41     0.077 A 
HETATM    6  C19   D T1294      -6.977  -4.747 -11.785  1.00 39.79     0.069 A 
HETATM    7  N23   D T1294      -5.611  -3.094 -12.389  1.00 32.77    -0.250 NA
ENDROOT
BRANCH   5   8
HETATM    8  C12   D T1294      -3.502  -3.606 -10.967  1.00 29.19     0.024 C 
HETATM    9  C20   D T1294      -2.331  -4.324 -11.228  1.00 28.62     0.061 A 
HETATM   10  C17   D T1294      -1.080  -3.951 -10.709  1.00 28.15     0.025 A 
HETATM   11  C21   D T1294      -2.061  -5.501 -12.016  1.00 24.63     0.279 A 
HETATM   12  C7    D T1294      -0.728  -2.851  -9.874  1.00 25.53     0.031 A 
HETATM   13  C16   D T1294      -0.090  -4.899 -11.185  1.00 25.62     0.085 A 
HETATM   14  C15   D T1294       0.625  -2.709  -9.523  1.00 28.19     0.140 A 
HETATM   15  C5    D T1294       1.680  -3.636  -9.992  1.00 25.66     0.031 A 
HETATM   16  F29   D T1294       0.973  -1.761  -8.782  1.00 36.26    -0.204 F 
HETATM   17  C6    D T1294       1.360  -4.705 -10.756  1.00 26.69     0.021 A 
HETATM   18  N24   D T1294      -0.721  -5.882 -12.010  1.00 23.74    -0.208 NA
HETATM   19  O27   D T1294      -2.894  -6.121 -12.577  1.00 23.40    -0.265 OA
ENDBRANCH   5   8
BRANCH   6  20
HETATM   20  C22   D T1294      -8.233  -5.467 -11.727  1.00 51.05     0.280 C 
HETATM   21  N25   D T1294      -8.409  -6.335 -12.724  1.00 55.83    -0.209 NA
HETATM   22  O28   D T1294      -9.040  -5.362 -10.852  1.00 56.66    -0.265 OA
BRANCH  21  23
HETATM   23  C37   D T1294      -9.521  -7.154 -12.874  1.00 58.65     0.101 C 
BRANCH  23  24
HETATM   24  C38   D T1294      -9.513  -7.495 -14.354  1.00 62.48     0.153 C 
BRANCH  24  25
HETATM   25  N4    D T1294      -9.432  -8.929 -14.829  1.00 67.11    -0.327 N 
BRANCH  25  26
HETATM   26  C39   D T1294     -10.625  -9.687 -14.145  1.00 68.16     0.049 C 
HETATM   27  C42   D T1294     -10.494 -11.097 -13.383  1.00 67.52     0.051 C 
ENDBRANCH  25  26
BRANCH  25  28
HETATM   28  C40   D T1294      -7.932  -9.579 -15.056  1.00 67.42     0.049 C 
HETATM   29  C41   D T1294      -7.400 -10.462 -16.213  1.00 66.32     0.051 C 
ENDBRANCH  25  28
ENDBRANCH  24  25
ENDBRANCH  23  24
ENDBRANCH  21  23
ENDBRANCH   6  20
TORSDOF 7
ENDMDL
MODEL 8
REMARK VINA RESULT:    -6.986      4.764      7.217
REMARK INTER + INTRA:         -10.999
REMARK INTER:                  -9.843
REMARK INTRA:                  -1.156
REMARK UNBOUND:                -1.155
REMARK  7 active torsions:
REMARK  status: ('A' for Active; 'I' for Inactive)
REMARK    1  A    between atoms: C22_10  and  C19_16 
REMARK       I    between atoms: C22_10  and  N25_19 
REMARK    2  A    between atoms: C12_12  and  C18_15 
REMARK    3  A    between atoms: N25_19  and  C37_23 
REMARK    4  A    between atoms: C37_23  and  C38_24 
REMARK    5  A    between atoms: C38_24  and  N4_25 
REMARK    6  A    between atoms: N4_25  and  C39_26 
REMARK    7  A    between atoms: N4_25  and  C40_27 
ROOT
HETATM    1  C4    D T1294      -6.408  -0.074 -13.539  1.00 32.29     0.052 C 
HETATM    2  C13   D T1294      -5.621  -3.203 -11.589  1.00 33.66     0.002 A 
HETATM    3  C3    D T1294      -5.649  -4.453 -10.697  1.00 26.27     0.033 C 
HETATM    4  C14   D T1294      -5.880  -1.278 -12.840  1.00 36.57     0.064 A 
HETATM    5  C18   D T1294      -4.395  -2.747 -12.171  1.00 31.41     0.077 A 
HETATM    6  C19   D T1294      -6.560  -2.241 -11.973  1.00 39.79     0.069 A 
HETATM    7  N23   D T1294      -4.624  -1.652 -12.907  1.00 32.77    -0.250 NA
ENDROOT
BRANCH   5   8
HETATM    8  C12   D T1294      -3.002  -3.417 -11.914  1.00 29.19     0.024 C 
HETATM    9  C20   D T1294      -1.987  -2.980 -11.056  1.00 28.62     0.061 A 
HETATM   10  C17   D T1294      -0.798  -3.702 -10.859  1.00 28.15     0.025 A 
HETATM   11  C21   D T1294      -1.856  -1.825 -10.205  1.00 24.63     0.279 A 
HETATM   12  C7    D T1294      -0.376  -4.940 -11.424  1.00 25.53     0.031 A 
HETATM   13  C16   D T1294       0.020  -2.976  -9.904  1.00 25.62     0.085 A 
HETATM   14  C15   D T1294       0.873  -5.446 -11.022  1.00 28.19     0.140 A 
HETATM   15  C5    D T1294       1.741  -4.756 -10.040  1.00 25.66     0.031 A 
HETATM   16  F29   D T1294       1.284  -6.526 -11.503  1.00 36.26    -0.204 F 
HETATM   17  C6    D T1294       1.374  -3.563  -9.520  1.00 26.69     0.021 A 
HETATM   18  N24   D T1294      -0.657  -1.784  -9.498  1.00 23.74    -0.208 NA
HETATM   19  O27   D T1294      -2.658  -0.962 -10.140  1.00 23.40    -0.265 OA
ENDBRANCH   5   8
BRANCH   6  20
HETATM   20  C22   D T1294      -7.961  -2.093 -11.636  1.00 51.05     0.280 C 
HETATM   21  N25   D T1294      -8.770  -2.922 -12.297  1.00 55.83    -0.209 NA
HETATM   22  O28   D T1294      -8.388  -1.348 -10.805  1.00 56.66    -0.265 OA
BRANCH  21  23
HETATM   23  C37   D T1294     -10.148  -2.984 -12.131  1.00 58.65     0.101 C 
BRANCH  23  24
HETATM   24  C38   D T1294     -10.622  -3.715 -13.375  1.00 62.48     0.153 C 
BRANCH  24  25
HETATM   25  N4    D T1294     -10.846  -5.211 -13.370  1.00 67.11    -0.327 N 
BRANCH  25  26
HETATM   26  C39   D T1294     -12.086  -5.467 -12.442  1.00 68.16     0.049 C 
HETATM   27  C42   D T1294     -12.131  -6.553 -11.257  1.00 67.52     0.051 C 
ENDBRANCH  25  26
BRANCH  25  28
HETATM   28  C40   D T1294      -9.515  -6.186 -13.426  1.00 67.42     0.049 C 
HETATM   29  C41   D T1294      -8.537  -6.593 -12.296  1.00 66.32     0.051 C 
ENDBRANCH  25  28
ENDBRANCH  24  25
ENDBRANCH  23  24
ENDBRANCH  21  23
ENDBRANCH   6  20
TORSDOF 7
ENDMDL
MODEL 9
REMARK VINA RESULT:    -6.787      3.553      5.674
REMARK INTER + INTRA:         -10.719
REMARK INTER:                  -9.755
REMARK INTRA:                  -0.964
REMARK UNBOUND:                -1.155
REMARK  7 active torsions:
REMARK  status: ('A' for Active; 'I' for Inactive)
REMARK    1  A    between atoms: C22_10  and  C19_16 
REMARK       I    between atoms: C22_10  and  N25_19 
REMARK    2  A    between atoms: C12_12  and  C18_15 
REMARK    3  A    between atoms: N25_19  and  C37_23 
REMARK    4  A    between atoms: C37_23  and  C38_24 
REMARK    5  A    between atoms: C38_24  and  N4_25 
REMARK    6  A    between atoms: N4_25  and  C39_26 
REMARK    7  A    between atoms: N4_25  and  C40_27 
ROOT
HETATM    1  C4    D T1294      -6.462  -0.484 -13.495  1.00 32.29     0.052 C 
HETATM    2  C13   D T1294      -5.611  -3.854 -12.038  1.00 33.66     0.002 A 
HETATM    3  C3    D T1294      -5.623  -5.248 -11.392  1.00 26.27     0.033 C 
HETATM    4  C14   D T1294      -5.906  -1.754 -12.953  1.00 36.57     0.064 A 
HETATM    5  C18   D T1294      -4.375  -3.206 -12.356  1.00 31.41     0.077 A 
HETATM    6  C19   D T1294      -6.587  -2.910 -12.371  1.00 39.79     0.069 A 
HETATM    7  N23   D T1294      -4.620  -2.014 -12.913  1.00 32.77    -0.250 NA
ENDROOT
BRANCH   5   8
HETATM    8  C12   D T1294      -2.964  -3.807 -12.033  1.00 29.19     0.024 C 
HETATM    9  C20   D T1294      -1.965  -3.257 -11.224  1.00 28.62     0.061 A 
HETATM   10  C17   D T1294      -0.756  -3.920 -10.955  1.00 28.15     0.025 A 
HETATM   11  C21   D T1294      -1.871  -2.019 -10.492  1.00 24.63     0.279 A 
HETATM   12  C7    D T1294      -0.296  -5.196 -11.393  1.00 25.53     0.031 A 
HETATM   13  C16   D T1294       0.038  -3.079 -10.077  1.00 25.62     0.085 A 
HETATM   14  C15   D T1294       0.966  -5.622 -10.942  1.00 28.19     0.140 A 
HETATM   15  C5    D T1294       1.810  -4.813 -10.034  1.00 25.66     0.031 A 
HETATM   16  F29   D T1294       1.409  -6.733 -11.312  1.00 36.26    -0.204 F 
HETATM   17  C6    D T1294       1.406  -3.585  -9.636  1.00 26.69     0.021 A 
HETATM   18  N24   D T1294      -0.675  -1.872  -9.792  1.00 23.74    -0.208 NA
HETATM   19  O27   D T1294      -2.698  -1.177 -10.514  1.00 23.40    -0.265 OA
ENDBRANCH   5   8
BRANCH   6  20
HETATM   20  C22   D T1294      -8.027  -2.935 -12.208  1.00 51.05     0.280 C 
HETATM   21  N25   D T1294      -8.483  -2.093 -11.280  1.00 55.83    -0.209 NA
HETATM   22  O28   D T1294      -8.777  -3.594 -12.864  1.00 56.66    -0.265 OA
BRANCH  21  23
HETATM   23  C37   D T1294      -9.823  -1.922 -10.956  1.00 58.65     0.101 C 
BRANCH  23  24
HETATM   24  C38   D T1294      -9.938  -0.430 -10.699  1.00 62.48     0.153 C 
BRANCH  24  25
HETATM   25  N4    D T1294      -8.906   0.307  -9.875  1.00 67.11    -0.327 N 
BRANCH  25  26
HETATM   26  C39   D T1294      -9.506   0.437  -8.430  1.00 68.16     0.049 C 
HETATM   27  C42   D T1294      -9.682   1.823  -7.635  1.00 67.52     0.051 C 
ENDBRANCH  25  26
BRANCH  25  28
HETATM   28  C40   D T1294      -8.031   1.491 -10.622  1.00 67.42     0.049 C 
HETATM   29  C41   D T1294      -6.839   2.327 -10.091  1.00 66.32     0.051 C 
ENDBRANCH  25  28
ENDBRANCH  24  25
ENDBRANCH  23  24
ENDBRANCH  21  23
ENDBRANCH   6  20
TORSDOF 7
ENDMDL
