MODEL 1
REMARK VINA RESULT:    -8.288      0.000      0.000
REMARK INTER + INTRA:         -12.833
REMARK INTER:                 -11.679
REMARK INTRA:                  -1.154
REMARK UNBOUND:                -1.154
REMARK  7 active torsions:
REMARK  status: ('A' for Active; 'I' for Inactive)
REMARK    1  A    between atoms: C22_10  and  C19_16 
REMARK       I    between atoms: C22_10  and  N25_19 
REMARK    2  A    between atoms: C12_12  and  C18_15 
REMARK    3  A    between atoms: N25_19  and  C37_23 
REMARK    4  A    between atoms: C37_23  and  C38_24 
REMARK    5  A    between atoms: C38_24  and  N4_25 
REMARK    6  A    between atoms: N4_25  and  C39_26 
REMARK    7  A    between atoms: N4_25  and  C40_27 
ROOT
HETATM    1  C4    D T1294     -12.664   8.990  -1.151  1.00 32.29     0.052 C 
HETATM    2  C13   D T1294     -13.192   5.309  -1.777  1.00 33.66     0.002 A 
HETATM    3  C3    D T1294     -13.627   3.837  -1.746  1.00 26.27     0.033 C 
HETATM    4  C14   D T1294     -12.712   7.559  -1.562  1.00 36.57     0.064 A 
HETATM    5  C18   D T1294     -12.189   5.757  -2.695  1.00 31.41     0.077 A 
HETATM    6  C19   D T1294     -13.491   6.446  -1.020  1.00 39.79     0.069 A 
HETATM    7  N23   D T1294     -11.986   7.070  -2.540  1.00 32.77    -0.250 NA
ENDROOT
BRANCH   5   8
HETATM    8  C12   D T1294     -11.419   4.810  -3.679  1.00 29.19     0.024 C 
HETATM    9  C20   D T1294     -11.918   4.164  -4.815  1.00 28.62     0.061 A 
HETATM   10  C17   D T1294     -11.112   3.385  -5.661  1.00 28.15     0.025 A 
HETATM   11  C21   D T1294     -13.229   4.113  -5.411  1.00 24.63     0.279 A 
HETATM   12  C7    D T1294      -9.721   3.092  -5.585  1.00 25.53     0.031 A 
HETATM   13  C16   D T1294     -11.943   2.881  -6.741  1.00 25.62     0.085 A 
HETATM   14  C15   D T1294      -9.168   2.291  -6.597  1.00 28.19     0.140 A 
HETATM   15  C5    D T1294      -9.963   1.762  -7.729  1.00 25.66     0.031 A 
HETATM   16  F29   D T1294      -7.950   2.003  -6.558  1.00 36.26    -0.204 F 
HETATM   17  C6    D T1294     -11.292   2.000  -7.801  1.00 26.69     0.021 A 
HETATM   18  N24   D T1294     -13.286   3.343  -6.571  1.00 23.74    -0.208 NA
HETATM   19  O27   D T1294     -14.184   4.626  -4.946  1.00 23.40    -0.265 OA
ENDBRANCH   5   8
BRANCH   6  20
HETATM   20  C22   D T1294     -14.369   6.624   0.119  1.00 51.05     0.280 C 
HETATM   21  N25   D T1294     -15.601   7.023  -0.200  1.00 55.83    -0.209 NA
HETATM   22  O28   D T1294     -14.072   6.388   1.253  1.00 56.66    -0.265 OA
BRANCH  21  23
HETATM   23  C37   D T1294     -16.623   7.242   0.713  1.00 58.65     0.101 C 
BRANCH  23  24
HETATM   24  C38   D T1294     -17.655   6.188   0.348  1.00 62.48     0.153 C 
BRANCH  24  25
HETATM   25  N4    D T1294     -17.577   4.785   0.908  1.00 67.11    -0.327 N 
BRANCH  25  26
HETATM   26  C39   D T1294     -17.274   4.937   2.441  1.00 68.16     0.049 C 
HETATM   27  C42   D T1294     -17.875   3.985   3.588  1.00 67.52     0.051 C 
ENDBRANCH  25  26
BRANCH  25  28
HETATM   28  C40   D T1294     -16.925   3.612  -0.052  1.00 67.42     0.049 C 
HETATM   29  C41   D T1294     -17.622   2.471  -0.835  1.00 66.32     0.051 C 
ENDBRANCH  25  28
ENDBRANCH  24  25
ENDBRANCH  23  24
ENDBRANCH  21  23
ENDBRANCH   6  20
TORSDOF 7
ENDMDL
MODEL 2
REMARK VINA RESULT:    -8.209      1.772      2.148
REMARK INTER + INTRA:         -12.722
REMARK INTER:                 -11.955
REMARK INTRA:                  -0.768
REMARK UNBOUND:                -1.154
REMARK  7 active torsions:
REMARK  status: ('A' for Active; 'I' for Inactive)
REMARK    1  A    between atoms: C22_10  and  C19_16 
REMARK       I    between atoms: C22_10  and  N25_19 
REMARK    2  A    between atoms: C12_12  and  C18_15 
REMARK    3  A    between atoms: N25_19  and  C37_23 
REMARK    4  A    between atoms: C37_23  and  C38_24 
REMARK    5  A    between atoms: C38_24  and  N4_25 
REMARK    6  A    between atoms: N4_25  and  C39_26 
REMARK    7  A    between atoms: N4_25  and  C40_27 
ROOT
HETATM    1  C4    D T1294     -12.145   7.997  -1.934  1.00 32.29     0.052 C 
HETATM    2  C13   D T1294     -13.794   4.696  -2.711  1.00 33.66     0.002 A 
HETATM    3  C3    D T1294     -14.624   3.404  -2.705  1.00 26.27     0.033 C 
HETATM    4  C14   D T1294     -12.662   6.691  -2.428  1.00 36.57     0.064 A 
HETATM    5  C18   D T1294     -12.853   4.956  -3.757  1.00 31.41     0.077 A 
HETATM    6  C19   D T1294     -13.639   5.776  -1.837  1.00 39.79     0.069 A 
HETATM    7  N23   D T1294     -12.261   6.139  -3.549  1.00 32.77    -0.250 NA
ENDROOT
BRANCH   5   8
HETATM    8  C12   D T1294     -12.542   3.956  -4.923  1.00 29.19     0.024 C 
HETATM    9  C20   D T1294     -11.290   3.585  -5.424  1.00 28.62     0.061 A 
HETATM   10  C17   D T1294     -11.133   2.625  -6.437  1.00 28.15     0.025 A 
HETATM   11  C21   D T1294      -9.948   3.993  -5.096  1.00 24.63     0.279 A 
HETATM   12  C7    D T1294     -12.112   1.861  -7.134  1.00 25.53     0.031 A 
HETATM   13  C16   D T1294      -9.712   2.475  -6.702  1.00 25.62     0.085 A 
HETATM   14  C15   D T1294     -11.657   0.945  -8.098  1.00 28.19     0.140 A 
HETATM   15  C5    D T1294     -10.223   0.739  -8.398  1.00 25.66     0.031 A 
HETATM   16  F29   D T1294     -12.489   0.263  -8.738  1.00 36.26    -0.204 F 
HETATM   17  C6    D T1294      -9.280   1.478  -7.772  1.00 26.69     0.021 A 
HETATM   18  N24   D T1294      -8.968   3.350  -5.850  1.00 23.74    -0.208 NA
HETATM   19  O27   D T1294      -9.689   4.828  -4.304  1.00 23.40    -0.265 OA
ENDBRANCH   5   8
BRANCH   6  20
HETATM   20  C22   D T1294     -14.250   6.054  -0.552  1.00 51.05     0.280 C 
HETATM   21  N25   D T1294     -15.541   6.379  -0.622  1.00 55.83    -0.209 NA
HETATM   22  O28   D T1294     -13.696   5.954   0.503  1.00 56.66    -0.265 OA
BRANCH  21  23
HETATM   23  C37   D T1294     -16.346   6.668   0.472  1.00 58.65     0.101 C 
BRANCH  23  24
HETATM   24  C38   D T1294     -17.611   5.874   0.199  1.00 62.48     0.153 C 
BRANCH  24  25
HETATM   25  N4    D T1294     -17.754   4.439   0.658  1.00 67.11    -0.327 N 
BRANCH  25  26
HETATM   26  C39   D T1294     -17.046   4.351   2.057  1.00 68.16     0.049 C 
HETATM   27  C42   D T1294     -17.805   4.076   3.447  1.00 67.52     0.051 C 
ENDBRANCH  25  26
BRANCH  25  28
HETATM   28  C40   D T1294     -17.684   3.256  -0.490  1.00 67.42     0.049 C 
HETATM   29  C41   D T1294     -18.379   1.872  -0.531  1.00 66.32     0.051 C 
ENDBRANCH  25  28
ENDBRANCH  24  25
ENDBRANCH  23  24
ENDBRANCH  21  23
ENDBRANCH   6  20
TORSDOF 7
ENDMDL
MODEL 3
REMARK VINA RESULT:    -7.933      3.374      8.550
REMARK INTER + INTRA:         -12.334
REMARK INTER:                 -11.419
REMARK INTRA:                  -0.915
REMARK UNBOUND:                -1.154
REMARK  7 active torsions:
REMARK  status: ('A' for Active; 'I' for Inactive)
REMARK    1  A    between atoms: C22_10  and  C19_16 
REMARK       I    between atoms: C22_10  and  N25_19 
REMARK    2  A    between atoms: C12_12  and  C18_15 
REMARK    3  A    between atoms: N25_19  and  C37_23 
REMARK    4  A    between atoms: C37_23  and  C38_24 
REMARK    5  A    between atoms: C38_24  and  N4_25 
REMARK    6  A    between atoms: N4_25  and  C39_26 
REMARK    7  A    between atoms: N4_25  and  C40_27 
ROOT
HETATM    1  C4    D T1294     -12.239   8.824  -1.959  1.00 32.29     0.052 C 
HETATM    2  C13   D T1294     -12.884   5.277  -0.857  1.00 33.66     0.002 A 
HETATM    3  C3    D T1294     -12.879   3.756  -0.641  1.00 26.27     0.033 C 
HETATM    4  C14   D T1294     -12.669   7.512  -1.402  1.00 36.57     0.064 A 
HETATM    5  C18   D T1294     -13.874   6.102  -0.232  1.00 31.41     0.077 A 
HETATM    6  C19   D T1294     -12.146   6.167  -1.643  1.00 39.79     0.069 A 
HETATM    7  N23   D T1294     -13.669   7.382  -0.563  1.00 32.77    -0.250 NA
ENDROOT
BRANCH   5   8
HETATM    8  C12   D T1294     -15.044   5.547   0.651  1.00 29.19     0.024 C 
HETATM    9  C20   D T1294     -16.260   5.005   0.222  1.00 28.62     0.061 A 
HETATM   10  C17   D T1294     -17.212   4.480   1.111  1.00 28.15     0.025 A 
HETATM   11  C21   D T1294     -16.838   4.818  -1.084  1.00 24.63     0.279 A 
HETATM   12  C7    D T1294     -17.177   4.373   2.530  1.00 25.53     0.031 A 
HETATM   13  C16   D T1294     -18.338   3.993   0.332  1.00 25.62     0.085 A 
HETATM   14  C15   D T1294     -18.279   3.774   3.165  1.00 28.19     0.140 A 
HETATM   15  C5    D T1294     -19.445   3.246   2.422  1.00 25.66     0.031 A 
HETATM   16  F29   D T1294     -18.289   3.671   4.413  1.00 36.26    -0.204 F 
HETATM   17  C6    D T1294     -19.512   3.368   1.077  1.00 26.69     0.021 A 
HETATM   18  N24   D T1294     -18.094   4.216  -1.059  1.00 23.74    -0.208 NA
HETATM   19  O27   D T1294     -16.332   5.182  -2.086  1.00 23.40    -0.265 OA
ENDBRANCH   5   8
BRANCH   6  20
HETATM   20  C22   D T1294     -11.059   5.935  -2.574  1.00 51.05     0.280 C 
HETATM   21  N25   D T1294     -11.388   5.168  -3.614  1.00 55.83    -0.209 NA
HETATM   22  O28   D T1294      -9.969   6.418  -2.483  1.00 56.66    -0.265 OA
BRANCH  21  23
HETATM   23  C37   D T1294     -10.526   4.822  -4.646  1.00 58.65     0.101 C 
BRANCH  23  24
HETATM   24  C38   D T1294     -11.294   3.754  -5.405  1.00 62.48     0.153 C 
BRANCH  24  25
HETATM   25  N4    D T1294     -10.576   2.674  -6.184  1.00 67.11    -0.327 N 
BRANCH  25  26
HETATM   26  C39   D T1294      -9.080   3.134  -6.303  1.00 68.16     0.049 C 
HETATM   27  C42   D T1294      -7.816   2.256  -5.838  1.00 67.52     0.051 C 
ENDBRANCH  25  26
BRANCH  25  28
HETATM   28  C40   D T1294     -11.410   1.917  -7.390  1.00 67.42     0.049 C 
HETATM   29  C41   D T1294     -10.961   0.778  -8.341  1.00 66.32     0.051 C 
ENDBRANCH  25  28
ENDBRANCH  24  25
ENDBRANCH  23  24
ENDBRANCH  21  23
ENDBRANCH   6  20
TORSDOF 7
ENDMDL
MODEL 4
REMARK VINA RESULT:    -7.834      2.061      2.939
REMARK INTER + INTRA:         -12.194
REMARK INTER:                 -11.442
REMARK INTRA:                  -0.752
REMARK UNBOUND:                -1.154
REMARK  7 active torsions:
REMARK  status: ('A' for Active; 'I' for Inactive)
REMARK    1  A    between atoms: C22_10  and  C19_16 
REMARK       I    between atoms: C22_10  and  N25_19 
REMARK    2  A    between atoms: C12_12  and  C18_15 
REMARK    3  A    between atoms: N25_19  and  C37_23 
REMARK    4  A    between atoms: C37_23  and  C38_24 
REMARK    5  A    between atoms: C38_24  and  N4_25 
REMARK    6  A    between atoms: N4_25  and  C39_26 
REMARK    7  A    between atoms: N4_25  and  C40_27 
ROOT
HETATM    1  C4    D T1294     -12.247   8.084  -2.017  1.00 32.29     0.052 C 
HETATM    2  C13   D T1294     -13.747   4.684  -2.651  1.00 33.66     0.002 A 
HETATM    3  C3    D T1294     -14.503   3.349  -2.580  1.00 26.27     0.033 C 
HETATM    4  C14   D T1294     -12.715   6.743  -2.462  1.00 36.57     0.064 A 
HETATM    5  C18   D T1294     -12.877   4.975  -3.749  1.00 31.41     0.077 A 
HETATM    6  C19   D T1294     -13.607   5.788  -1.804  1.00 39.79     0.069 A 
HETATM    7  N23   D T1294     -12.341   6.192  -3.593  1.00 32.77    -0.250 NA
ENDROOT
BRANCH   5   8
HETATM    8  C12   D T1294     -12.571   3.971  -4.913  1.00 29.19     0.024 C 
HETATM    9  C20   D T1294     -11.321   3.590  -5.412  1.00 28.62     0.061 A 
HETATM   10  C17   D T1294     -11.169   2.628  -6.423  1.00 28.15     0.025 A 
HETATM   11  C21   D T1294      -9.977   3.989  -5.083  1.00 24.63     0.279 A 
HETATM   12  C7    D T1294     -12.152   1.869  -7.120  1.00 25.53     0.031 A 
HETATM   13  C16   D T1294      -9.749   2.467  -6.686  1.00 25.62     0.085 A 
HETATM   14  C15   D T1294     -11.703   0.948  -8.082  1.00 28.19     0.140 A 
HETATM   15  C5    D T1294     -10.269   0.731  -8.380  1.00 25.66     0.031 A 
HETATM   16  F29   D T1294     -12.538   0.270  -8.722  1.00 36.26    -0.204 F 
HETATM   17  C6    D T1294      -9.322   1.466  -7.753  1.00 26.69     0.021 A 
HETATM   18  N24   D T1294      -9.000   3.339  -5.835  1.00 23.74    -0.208 NA
HETATM   19  O27   D T1294      -9.713   4.824  -4.292  1.00 23.40    -0.265 OA
ENDBRANCH   5   8
BRANCH   6  20
HETATM   20  C22   D T1294     -14.166   6.056  -0.494  1.00 51.05     0.280 C 
HETATM   21  N25   D T1294     -15.311   6.739  -0.520  1.00 55.83    -0.209 NA
HETATM   22  O28   D T1294     -13.703   5.668   0.538  1.00 56.66    -0.265 OA
BRANCH  21  23
HETATM   23  C37   D T1294     -16.045   7.097   0.603  1.00 58.65     0.101 C 
BRANCH  23  24
HETATM   24  C38   D T1294     -17.083   5.994   0.713  1.00 62.48     0.153 C 
BRANCH  24  25
HETATM   25  N4    D T1294     -18.542   6.254   0.409  1.00 67.11    -0.327 N 
BRANCH  25  26
HETATM   26  C39   D T1294     -18.880   5.423  -0.879  1.00 68.16     0.049 C 
HETATM   27  C42   D T1294     -20.311   5.419  -1.613  1.00 67.52     0.051 C 
ENDBRANCH  25  26
BRANCH  25  28
HETATM   28  C40   D T1294     -19.132   7.765   0.716  1.00 67.42     0.049 C 
HETATM   29  C41   D T1294     -19.368   8.951  -0.252  1.00 66.32     0.051 C 
ENDBRANCH  25  28
ENDBRANCH  24  25
ENDBRANCH  23  24
ENDBRANCH  21  23
ENDBRANCH   6  20
TORSDOF 7
ENDMDL
MODEL 5
REMARK VINA RESULT:    -7.602      2.199      2.727
REMARK INTER + INTRA:         -11.867
REMARK INTER:                 -11.647
REMARK INTRA:                  -0.220
REMARK UNBOUND:                -1.154
REMARK  7 active torsions:
REMARK  status: ('A' for Active; 'I' for Inactive)
REMARK    1  A    between atoms: C22_10  and  C19_16 
REMARK       I    between atoms: C22_10  and  N25_19 
REMARK    2  A    between atoms: C12_12  and  C18_15 
REMARK    3  A    between atoms: N25_19  and  C37_23 
REMARK    4  A    between atoms: C37_23  and  C38_24 
REMARK    5  A    between atoms: C38_24  and  N4_25 
REMARK    6  A    between atoms: N4_25  and  C39_26 
REMARK    7  A    between atoms: N4_25  and  C40_27 
ROOT
HETATM    1  C4    D T1294     -10.337   7.031  -2.083  1.00 32.29     0.052 C 
HETATM    2  C13   D T1294     -13.501   5.347  -3.253  1.00 33.66     0.002 A 
HETATM    3  C3    D T1294     -14.935   4.834  -3.446  1.00 26.27     0.033 C 
HETATM    4  C14   D T1294     -11.452   6.261  -2.701  1.00 36.57     0.064 A 
HETATM    5  C18   D T1294     -12.433   4.864  -4.076  1.00 31.41     0.077 A 
HETATM    6  C19   D T1294     -12.869   6.200  -2.343  1.00 39.79     0.069 A 
HETATM    7  N23   D T1294     -11.287   5.459  -3.725  1.00 32.77    -0.250 NA
ENDROOT
BRANCH   5   8
HETATM    8  C12   D T1294     -12.607   3.758  -5.173  1.00 29.19     0.024 C 
HETATM    9  C20   D T1294     -11.611   3.153  -5.946  1.00 28.62     0.061 A 
HETATM   10  C17   D T1294     -11.881   2.122  -6.860  1.00 28.15     0.025 A 
HETATM   11  C21   D T1294     -10.186   3.348  -6.028  1.00 24.63     0.279 A 
HETATM   12  C7    D T1294     -13.115   1.493  -7.192  1.00 25.53     0.031 A 
HETATM   13  C16   D T1294     -10.627   1.720  -7.474  1.00 25.62     0.085 A 
HETATM   14  C15   D T1294     -13.084   0.458  -8.142  1.00 28.19     0.140 A 
HETATM   15  C5    D T1294     -11.834  -0.004  -8.787  1.00 25.66     0.031 A 
HETATM   16  F29   D T1294     -14.150  -0.112  -8.466  1.00 36.26    -0.204 F 
HETATM   17  C6    D T1294     -10.657   0.603  -8.511  1.00 26.69     0.021 A 
HETATM   18  N24   D T1294      -9.557   2.507  -6.943  1.00 23.74    -0.208 NA
HETATM   19  O27   D T1294      -9.599   4.174  -5.423  1.00 23.40    -0.265 OA
ENDBRANCH   5   8
BRANCH   6  20
HETATM   20  C22   D T1294     -13.393   6.933  -1.207  1.00 51.05     0.280 C 
HETATM   21  N25   D T1294     -14.059   6.178  -0.333  1.00 55.83    -0.209 NA
HETATM   22  O28   D T1294     -13.215   8.098  -1.007  1.00 56.66    -0.265 OA
BRANCH  21  23
HETATM   23  C37   D T1294     -14.635   6.647   0.840  1.00 58.65     0.101 C 
BRANCH  23  24
HETATM   24  C38   D T1294     -16.083   6.890   0.451  1.00 62.48     0.153 C 
BRANCH  24  25
HETATM   25  N4    D T1294     -17.135   5.816   0.623  1.00 67.11    -0.327 N 
BRANCH  25  26
HETATM   26  C39   D T1294     -17.338   5.642   2.170  1.00 68.16     0.049 C 
HETATM   27  C42   D T1294     -17.542   4.229   2.910  1.00 67.52     0.051 C 
ENDBRANCH  25  26
BRANCH  25  28
HETATM   28  C40   D T1294     -17.141   4.568  -0.457  1.00 67.42     0.049 C 
HETATM   29  C41   D T1294     -16.388   3.214  -0.411  1.00 66.32     0.051 C 
ENDBRANCH  25  28
ENDBRANCH  24  25
ENDBRANCH  23  24
ENDBRANCH  21  23
ENDBRANCH   6  20
TORSDOF 7
ENDMDL
MODEL 6
REMARK VINA RESULT:    -7.382      2.565      3.770
REMARK INTER + INTRA:         -11.556
REMARK INTER:                 -10.406
REMARK INTRA:                  -1.150
REMARK UNBOUND:                -1.154
REMARK  7 active torsions:
REMARK  status: ('A' for Active; 'I' for Inactive)
REMARK    1  A    between atoms: C22_10  and  C19_16 
REMARK       I    between atoms: C22_10  and  N25_19 
REMARK    2  A    between atoms: C12_12  and  C18_15 
REMARK    3  A    between atoms: N25_19  and  C37_23 
REMARK    4  A    between atoms: C37_23  and  C38_24 
REMARK    5  A    between atoms: C38_24  and  N4_25 
REMARK    6  A    between atoms: N4_25  and  C39_26 
REMARK    7  A    between atoms: N4_25  and  C40_27 
ROOT
HETATM    1  C4    D T1294     -18.948   4.123  -4.350  1.00 32.29     0.052 C 
HETATM    2  C13   D T1294     -15.667   3.357  -2.658  1.00 33.66     0.002 A 
HETATM    3  C3    D T1294     -14.522   3.104  -1.667  1.00 26.27     0.033 C 
HETATM    4  C14   D T1294     -17.565   3.811  -3.896  1.00 36.57     0.064 A 
HETATM    5  C18   D T1294     -15.425   3.368  -4.069  1.00 31.41     0.077 A 
HETATM    6  C19   D T1294     -17.020   3.689  -2.544  1.00 39.79     0.069 A 
HETATM    7  N23   D T1294     -16.569   3.601  -4.723  1.00 32.77    -0.250 NA
ENDROOT
BRANCH   5   8
HETATM    8  C12   D T1294     -14.008   3.191  -4.714  1.00 29.19     0.024 C 
HETATM    9  C20   D T1294     -13.636   2.321  -5.745  1.00 28.62     0.061 A 
HETATM   10  C17   D T1294     -12.342   2.295  -6.287  1.00 28.15     0.025 A 
HETATM   11  C21   D T1294     -14.364   1.327  -6.491  1.00 24.63     0.279 A 
HETATM   12  C7    D T1294     -11.197   3.076  -5.959  1.00 25.53     0.031 A 
HETATM   13  C16   D T1294     -12.310   1.293  -7.339  1.00 25.62     0.085 A 
HETATM   14  C15   D T1294     -10.020   2.846  -6.693  1.00 28.19     0.140 A 
HETATM   15  C5    D T1294      -9.935   1.850  -7.785  1.00 25.66     0.031 A 
HETATM   16  F29   D T1294      -8.990   3.506  -6.426  1.00 36.26    -0.204 F 
HETATM   17  C6    D T1294     -11.001   1.075  -8.088  1.00 26.69     0.021 A 
HETATM   18  N24   D T1294     -13.597   0.680  -7.458  1.00 23.74    -0.208 NA
HETATM   19  O27   D T1294     -15.489   1.039  -6.281  1.00 23.40    -0.265 OA
ENDBRANCH   5   8
BRANCH   6  20
HETATM   20  C22   D T1294     -17.847   3.916  -1.374  1.00 51.05     0.280 C 
HETATM   21  N25   D T1294     -17.939   5.196  -1.013  1.00 55.83    -0.209 NA
HETATM   22  O28   D T1294     -18.453   3.065  -0.792  1.00 56.66    -0.265 OA
BRANCH  21  23
HETATM   23  C37   D T1294     -18.686   5.664   0.060  1.00 58.65     0.101 C 
BRANCH  23  24
HETATM   24  C38   D T1294     -17.633   6.182   1.024  1.00 62.48     0.153 C 
BRANCH  24  25
HETATM   25  N4    D T1294     -16.956   5.263   2.017  1.00 67.11    -0.327 N 
BRANCH  25  26
HETATM   26  C39   D T1294     -15.498   5.033   1.483  1.00 68.16     0.049 C 
HETATM   27  C42   D T1294     -14.668   6.098   0.609  1.00 67.52     0.051 C 
ENDBRANCH  25  26
BRANCH  25  28
HETATM   28  C40   D T1294     -17.876   4.091   2.728  1.00 67.42     0.049 C 
HETATM   29  C41   D T1294     -18.143   3.816   4.229  1.00 66.32     0.051 C 
ENDBRANCH  25  28
ENDBRANCH  24  25
ENDBRANCH  23  24
ENDBRANCH  21  23
ENDBRANCH   6  20
TORSDOF 7
ENDMDL
MODEL 7
REMARK VINA RESULT:    -7.367      2.512      3.625
REMARK INTER + INTRA:         -11.536
REMARK INTER:                 -10.510
REMARK INTRA:                  -1.026
REMARK UNBOUND:                -1.154
REMARK  7 active torsions:
REMARK  status: ('A' for Active; 'I' for Inactive)
REMARK    1  A    between atoms: C22_10  and  C19_16 
REMARK       I    between atoms: C22_10  and  N25_19 
REMARK    2  A    between atoms: C12_12  and  C18_15 
REMARK    3  A    between atoms: N25_19  and  C37_23 
REMARK    4  A    between atoms: C37_23  and  C38_24 
REMARK    5  A    between atoms: C38_24  and  N4_25 
REMARK    6  A    between atoms: N4_25  and  C39_26 
REMARK    7  A    between atoms: N4_25  and  C40_27 
ROOT
HETATM    1  C4    D T1294     -14.891   3.672   0.122  1.00 32.29     0.052 C 
HETATM    2  C13   D T1294     -16.158   3.334  -3.413  1.00 33.66     0.002 A 
HETATM    3  C3    D T1294     -16.990   3.294  -4.704  1.00 26.27     0.033 C 
HETATM    4  C14   D T1294     -15.179   3.462  -1.324  1.00 36.57     0.064 A 
HETATM    5  C18   D T1294     -14.792   2.905  -3.409  1.00 31.41     0.077 A 
HETATM    6  C19   D T1294     -16.421   3.642  -2.075  1.00 39.79     0.069 A 
HETATM    7  N23   D T1294     -14.280   3.038  -2.180  1.00 32.77    -0.250 NA
ENDROOT
BRANCH   5   8
HETATM    8  C12   D T1294     -14.057   2.316  -4.661  1.00 29.19     0.024 C 
HETATM    9  C20   D T1294     -12.827   2.710  -5.199  1.00 28.62     0.061 A 
HETATM   10  C17   D T1294     -12.235   2.061  -6.295  1.00 28.15     0.025 A 
HETATM   11  C21   D T1294     -11.894   3.747  -4.841  1.00 24.63     0.279 A 
HETATM   12  C7    D T1294     -12.691   0.945  -7.053  1.00 25.53     0.031 A 
HETATM   13  C16   D T1294     -10.969   2.715  -6.577  1.00 25.62     0.085 A 
HETATM   14  C15   D T1294     -11.868   0.489  -8.097  1.00 28.19     0.140 A 
HETATM   15  C5    D T1294     -10.562   1.105  -8.420  1.00 25.66     0.031 A 
HETATM   16  F29   D T1294     -12.240  -0.484  -8.792  1.00 36.26    -0.204 F 
HETATM   17  C6    D T1294     -10.127   2.186  -7.734  1.00 26.69     0.021 A 
HETATM   18  N24   D T1294     -10.763   3.787  -5.654  1.00 23.74    -0.208 NA
HETATM   19  O27   D T1294     -12.080   4.531  -3.979  1.00 23.40    -0.265 OA
ENDBRANCH   5   8
BRANCH   6  20
HETATM   20  C22   D T1294     -17.647   4.056  -1.420  1.00 51.05     0.280 C 
HETATM   21  N25   D T1294     -17.693   5.354  -1.120  1.00 55.83    -0.209 NA
HETATM   22  O28   D T1294     -18.579   3.339  -1.202  1.00 56.66    -0.265 OA
BRANCH  21  23
HETATM   23  C37   D T1294     -18.766   5.988  -0.510  1.00 58.65     0.101 C 
BRANCH  23  24
HETATM   24  C38   D T1294     -18.111   6.834   0.568  1.00 62.48     0.153 C 
BRANCH  24  25
HETATM   25  N4    D T1294     -17.488   6.202   1.793  1.00 67.11    -0.327 N 
BRANCH  25  26
HETATM   26  C39   D T1294     -16.005   6.713   1.849  1.00 68.16     0.049 C 
HETATM   27  C42   D T1294     -15.242   7.434   0.631  1.00 67.52     0.051 C 
ENDBRANCH  25  26
BRANCH  25  28
HETATM   28  C40   D T1294     -17.953   4.667   2.184  1.00 67.42     0.049 C 
HETATM   29  C41   D T1294     -17.869   3.921   3.539  1.00 66.32     0.051 C 
ENDBRANCH  25  28
ENDBRANCH  24  25
ENDBRANCH  23  24
ENDBRANCH  21  23
ENDBRANCH   6  20
TORSDOF 7
ENDMDL
MODEL 8
REMARK VINA RESULT:    -7.363      3.453      6.142
REMARK INTER + INTRA:         -11.531
REMARK INTER:                 -10.591
REMARK INTRA:                  -0.940
REMARK UNBOUND:                -1.154
REMARK  7 active torsions:
REMARK  status: ('A' for Active; 'I' for Inactive)
REMARK    1  A    between atoms: C22_10  and  C19_16 
REMARK       I    between atoms: C22_10  and  N25_19 
REMARK    2  A    between atoms: C12_12  and  C18_15 
REMARK    3  A    between atoms: N25_19  and  C37_23 
REMARK    4  A    between atoms: C37_23  and  C38_24 
REMARK    5  A    between atoms: C38_24  and  N4_25 
REMARK    6  A    between atoms: N4_25  and  C39_26 
REMARK    7  A    between atoms: N4_25  and  C40_27 
ROOT
HETATM    1  C4    D T1294     -16.731   3.619  -4.317  1.00 32.29     0.052 C 
HETATM    2  C13   D T1294     -13.194   3.204  -5.554  1.00 33.66     0.002 A 
HETATM    3  C3    D T1294     -11.696   3.338  -5.868  1.00 26.27     0.033 C 
HETATM    4  C14   D T1294     -15.416   3.277  -4.927  1.00 36.57     0.064 A 
HETATM    5  C18   D T1294     -13.983   2.182  -6.174  1.00 31.41     0.077 A 
HETATM    6  C19   D T1294     -14.115   3.933  -4.798  1.00 39.79     0.069 A 
HETATM    7  N23   D T1294     -15.246   2.262  -5.741  1.00 32.77    -0.250 NA
ENDROOT
BRANCH   5   8
HETATM    8  C12   D T1294     -13.430   1.178  -7.242  1.00 29.19     0.024 C 
HETATM    9  C20   D T1294     -13.648  -0.202  -7.316  1.00 28.62     0.061 A 
HETATM   10  C17   D T1294     -13.148  -0.994  -8.362  1.00 28.15     0.025 A 
HETATM   11  C21   D T1294     -14.370  -1.122  -6.475  1.00 24.63     0.279 A 
HETATM   12  C7    D T1294     -12.376  -0.626  -9.501  1.00 25.53     0.031 A 
HETATM   13  C16   D T1294     -13.571  -2.366  -8.134  1.00 25.62     0.085 A 
HETATM   14  C15   D T1294     -12.030  -1.641 -10.409  1.00 28.19     0.140 A 
HETATM   15  C5    D T1294     -12.446  -3.051 -10.235  1.00 25.66     0.031 A 
HETATM   16  F29   D T1294     -11.343  -1.358 -11.416  1.00 36.26    -0.204 F 
HETATM   17  C6    D T1294     -13.150  -3.427  -9.144  1.00 26.69     0.021 A 
HETATM   18  N24   D T1294     -14.341  -2.438  -6.931  1.00 23.74    -0.208 NA
HETATM   19  O27   D T1294     -14.896  -0.815  -5.464  1.00 23.40    -0.265 OA
ENDBRANCH   5   8
BRANCH   6  20
HETATM   20  C22   D T1294     -13.953   5.137  -4.005  1.00 51.05     0.280 C 
HETATM   21  N25   D T1294     -13.788   4.911  -2.702  1.00 55.83    -0.209 NA
HETATM   22  O28   D T1294     -13.906   6.245  -4.451  1.00 56.66    -0.265 OA
BRANCH  21  23
HETATM   23  C37   D T1294     -13.593   5.900  -1.746  1.00 58.65     0.101 C 
BRANCH  23  24
HETATM   24  C38   D T1294     -12.094   5.867  -1.504  1.00 62.48     0.153 C 
BRANCH  24  25
HETATM   25  N4    D T1294     -11.207   7.023  -1.909  1.00 67.11    -0.327 N 
BRANCH  25  26
HETATM   26  C39   D T1294     -12.160   8.246  -2.158  1.00 68.16     0.049 C 
HETATM   27  C42   D T1294     -12.337   9.484  -1.148  1.00 67.52     0.051 C 
ENDBRANCH  25  26
BRANCH  25  28
HETATM   28  C40   D T1294      -9.878   6.684  -2.827  1.00 67.42     0.049 C 
HETATM   29  C41   D T1294      -9.693   5.635  -3.952  1.00 66.32     0.051 C 
ENDBRANCH  25  28
ENDBRANCH  24  25
ENDBRANCH  23  24
ENDBRANCH  21  23
ENDBRANCH   6  20
TORSDOF 7
ENDMDL
MODEL 9
REMARK VINA RESULT:    -7.168      2.107      3.101
REMARK INTER + INTRA:         -11.255
REMARK INTER:                 -10.626
REMARK INTRA:                  -0.629
REMARK UNBOUND:                -1.154
REMARK  7 active torsions:
REMARK  status: ('A' for Active; 'I' for Inactive)
REMARK    1  A    between atoms: C22_10  and  C19_16 
REMARK       I    between atoms: C22_10  and  N25_19 
REMARK    2  A    between atoms: C12_12  and  C18_15 
REMARK    3  A    between atoms: N25_19  and  C37_23 
REMARK    4  A    between atoms: C37_23  and  C38_24 
REMARK    5  A    between atoms: C38_24  and  N4_25 
REMARK    6  A    between atoms: N4_25  and  C39_26 
REMARK    7  A    between atoms: N4_25  and  C40_27 
ROOT
HETATM    1  C4    D T1294     -18.077   4.113  -3.025  1.00 32.29     0.052 C 
HETATM    2  C13   D T1294     -14.475   4.487  -1.977  1.00 33.66     0.002 A 
HETATM    3  C3    D T1294     -13.152   4.816  -1.269  1.00 26.27     0.033 C 
HETATM    4  C14   D T1294     -16.604   4.160  -2.813  1.00 36.57     0.064 A 
HETATM    5  C18   D T1294     -14.479   3.858  -3.264  1.00 31.41     0.077 A 
HETATM    6  C19   D T1294     -15.826   4.725  -1.711  1.00 39.79     0.069 A 
HETATM    7  N23   D T1294     -15.741   3.668  -3.670  1.00 32.77    -0.250 NA
ENDROOT
BRANCH   5   8
HETATM    8  C12   D T1294     -13.183   3.513  -4.074  1.00 29.19     0.024 C 
HETATM    9  C20   D T1294     -13.086   2.820  -5.285  1.00 28.62     0.061 A 
HETATM   10  C17   D T1294     -11.867   2.624  -5.952  1.00 28.15     0.025 A 
HETATM   11  C21   D T1294     -14.069   2.190  -6.128  1.00 24.63     0.279 A 
HETATM   12  C7    D T1294     -10.553   3.048  -5.601  1.00 25.53     0.031 A 
HETATM   13  C16   D T1294     -12.132   1.884  -7.174  1.00 25.62     0.085 A 
HETATM   14  C15   D T1294      -9.508   2.724  -6.482  1.00 28.19     0.140 A 
HETATM   15  C5    D T1294      -9.721   1.986  -7.747  1.00 25.66     0.031 A 
HETATM   16  F29   D T1294      -8.337   3.071  -6.202  1.00 36.26    -0.204 F 
HETATM   17  C6    D T1294     -10.955   1.546  -8.082  1.00 26.69     0.021 A 
HETATM   18  N24   D T1294     -13.532   1.608  -7.275  1.00 23.74    -0.208 NA
HETATM   19  O27   D T1294     -15.217   2.118  -5.863  1.00 23.40    -0.265 OA
ENDBRANCH   5   8
BRANCH   6  20
HETATM   20  C22   D T1294     -16.470   5.405  -0.603  1.00 51.05     0.280 C 
HETATM   21  N25   D T1294     -16.787   4.605   0.416  1.00 55.83    -0.209 NA
HETATM   22  O28   D T1294     -16.663   6.583  -0.547  1.00 56.66    -0.265 OA
BRANCH  21  23
HETATM   23  C37   D T1294     -17.391   5.026   1.593  1.00 58.65     0.101 C 
BRANCH  23  24
HETATM   24  C38   D T1294     -18.252   3.839   1.991  1.00 62.48     0.153 C 
BRANCH  24  25
HETATM   25  N4    D T1294     -19.675   3.700   1.498  1.00 67.11    -0.327 N 
BRANCH  25  26
HETATM   26  C39   D T1294     -19.797   2.251   0.905  1.00 68.16     0.049 C 
HETATM   27  C42   D T1294     -19.012   1.729  -0.397  1.00 67.52     0.051 C 
ENDBRANCH  25  26
BRANCH  25  28
HETATM   28  C40   D T1294     -20.391   5.032   0.838  1.00 67.42     0.049 C 
HETATM   29  C41   D T1294     -20.287   5.605  -0.598  1.00 66.32     0.051 C 
ENDBRANCH  25  28
ENDBRANCH  24  25
ENDBRANCH  23  24
ENDBRANCH  21  23
ENDBRANCH   6  20
TORSDOF 7
ENDMDL
