MODEL 1
REMARK VINA RESULT:    -8.932      0.000      0.000
REMARK INTER + INTRA:         -12.138
REMARK INTER:                 -11.543
REMARK INTRA:                  -0.595
REMARK UNBOUND:                -0.595
REMARK  5 active torsions:
REMARK  status: ('A' for Active; 'I' for Inactive)
REMARK    1  A    between atoms: C17_7  and  C21_10 
REMARK    2  A    between atoms: C21_10  and  O27_12 
REMARK    3  A    between atoms: O27_12  and  C15_13 
REMARK    4  A    between atoms: C14_19  and  C16_20 
REMARK    5  A    between atoms: N26_23  and  C20_25 
ROOT
HETATM    1  C15   D T9000       4.988  12.494   2.208  1.00 25.10     0.125 A 
HETATM    2  C4    D T9000       6.354  12.249   2.578  1.00 25.13     0.029 A 
HETATM    3  C19   D T9000       4.009  11.640   2.816  1.00 24.76     0.173 A 
HETATM    4  N22   D T9000       2.648  11.831   2.502  1.00 21.31    -0.078 NA
HETATM    5  N23   D T9000       4.303  10.646   3.692  1.00 23.34    -0.228 NA
HETATM    6  C5    D T9000       5.608  10.438   4.022  1.00 25.82     0.100 A 
HETATM    7  C14   D T9000       6.690  11.210   3.493  1.00 24.84     0.024 A 
ENDROOT
BRANCH   1   8
HETATM    8  O27   D T9000       4.553  13.502   1.339  1.00 27.54    -0.326 OA
BRANCH   8   9
HETATM    9  C21   D T9000       4.011  13.298  -0.015  1.00 30.12     0.145 C 
HETATM   10  C1    D T9000       4.981  12.331  -0.713  1.00 31.63     0.038 C 
BRANCH   9  11
HETATM   11  C17   D T9000       3.841  14.606  -0.864  1.00 31.84     0.029 A 
HETATM   12  C13   D T9000       2.521  14.991  -1.337  1.00 30.66     0.057 A 
HETATM   13 CL     D T9000       1.083  14.070  -1.004  1.00 30.46    -0.083 Cl
HETATM   14  C3    D T9000       2.355  16.173  -2.114  1.00 30.46     0.013 A 
HETATM   15  C2    D T9000       3.462  16.994  -2.444  1.00 31.74     0.031 A 
HETATM   16  C12   D T9000       4.769  16.656  -2.002  1.00 32.80     0.150 A 
HETATM   17  F     D T9000       5.794  17.458  -2.337  1.00 32.49    -0.203 F 
HETATM   18  C18   D T9000       4.979  15.472  -1.214  1.00 33.48     0.084 A 
HETATM   19 CL2    D T9000       6.623  15.138  -0.713  1.00 45.60    -0.080 Cl
ENDBRANCH   9  11
ENDBRANCH   8   9
ENDBRANCH   1   8
BRANCH   7  20
HETATM   20  C16   D T9000       8.135  10.957   3.880  1.00 28.58     0.041 A 
HETATM   21  C6    D T9000       9.279  11.861   3.721  1.00 32.07     0.122 A 
HETATM   22  N24   D T9000      10.336  11.280   4.175  1.00 34.71    -0.168 NA
HETATM   23  N26   D T9000      10.033  10.107   4.615  1.00 35.30    -0.252 N 
HETATM   24  C7    D T9000       8.664   9.815   4.468  1.00 31.45     0.097 A 
BRANCH  23  25
HETATM   25  C20   D T9000      11.047   9.198   5.202  1.00 38.85     0.110 C 
HETATM   26  C8    D T9000      11.281   9.543   6.687  1.00 41.27     0.063 C 
HETATM   27  C10   D T9000      12.341   8.583   7.277  1.00 43.11     0.292 C 
HETATM   28  N25   D T9000      13.615   8.603   6.499  1.00 43.93     0.339 N 
HETATM   29  C11   D T9000      13.409   8.317   5.050  1.00 43.41     0.292 C 
HETATM   30  C9    D T9000      12.376   9.273   4.410  1.00 42.01     0.063 C 
ENDBRANCH  23  25
ENDBRANCH   7  20
TORSDOF 5
ENDMDL
MODEL 2
REMARK VINA RESULT:    -8.867      2.122      3.933
REMARK INTER + INTRA:         -12.054
REMARK INTER:                 -11.010
REMARK INTRA:                  -1.044
REMARK UNBOUND:                -0.595
REMARK  5 active torsions:
REMARK  status: ('A' for Active; 'I' for Inactive)
REMARK    1  A    between atoms: C17_7  and  C21_10 
REMARK    2  A    between atoms: C21_10  and  O27_12 
REMARK    3  A    between atoms: O27_12  and  C15_13 
REMARK    4  A    between atoms: C14_19  and  C16_20 
REMARK    5  A    between atoms: N26_23  and  C20_25 
ROOT
HETATM    1  C15   D T9000       2.730  13.432   0.097  1.00 25.10     0.125 A 
HETATM    2  C4    D T9000       3.856  12.936   0.839  1.00 25.13     0.029 A 
HETATM    3  C19   D T9000       1.437  13.124   0.636  1.00 24.76     0.173 A 
HETATM    4  N22   D T9000       0.288  13.587  -0.039  1.00 21.31    -0.078 NA
HETATM    5  N23   D T9000       1.235  12.412   1.774  1.00 23.34    -0.228 NA
HETATM    6  C5    D T9000       2.323  11.956   2.454  1.00 25.82     0.100 A 
HETATM    7  C14   D T9000       3.671  12.183   2.034  1.00 24.84     0.024 A 
ENDROOT
BRANCH   1   8
HETATM    8  O27   D T9000       2.804  14.198  -1.072  1.00 27.54    -0.326 OA
BRANCH   8   9
HETATM    9  C21   D T9000       3.418  15.530  -1.193  1.00 30.12     0.145 C 
HETATM   10  C1    D T9000       2.525  16.316  -2.168  1.00 31.63     0.038 C 
BRANCH   9  11
HETATM   11  C17   D T9000       4.905  15.532  -1.694  1.00 31.84     0.029 A 
HETATM   12  C13   D T9000       5.804  16.595  -1.275  1.00 30.66     0.057 A 
HETATM   13 CL     D T9000       5.322  17.893  -0.221  1.00 30.46    -0.083 Cl
HETATM   14  C3    D T9000       7.154  16.611  -1.729  1.00 30.46     0.013 A 
HETATM   15  C2    D T9000       7.648  15.602  -2.593  1.00 31.74     0.031 A 
HETATM   16  C12   D T9000       6.805  14.545  -3.026  1.00 32.80     0.150 A 
HETATM   17  F     D T9000       7.309  13.608  -3.846  1.00 32.49    -0.203 F 
HETATM   18  C18   D T9000       5.436  14.491  -2.590  1.00 33.48     0.084 A 
HETATM   19 CL2    D T9000       4.473  13.151  -3.173  1.00 45.60    -0.080 Cl
ENDBRANCH   9  11
ENDBRANCH   8   9
ENDBRANCH   1   8
BRANCH   7  20
HETATM   20  C16   D T9000       4.865  11.664   2.814  1.00 28.58     0.041 A 
HETATM   21  C6    D T9000       4.876  10.639   3.864  1.00 32.07     0.122 A 
HETATM   22  N24   D T9000       6.086  10.478   4.276  1.00 34.71    -0.168 NA
HETATM   23  N26   D T9000       6.875  11.268   3.630  1.00 35.30    -0.252 N 
HETATM   24  C7    D T9000       6.191  12.057   2.686  1.00 31.45     0.097 A 
BRANCH  23  25
HETATM   25  C20   D T9000       8.335  11.306   3.887  1.00 38.85     0.110 C 
HETATM   26  C8    D T9000       9.109  11.464   2.563  1.00 41.27     0.063 C 
HETATM   27  C10   D T9000      10.627  11.502   2.856  1.00 43.11     0.292 C 
HETATM   28  N25   D T9000      11.084  10.306   3.622  1.00 43.93     0.339 N 
HETATM   29  C11   D T9000      10.319  10.105   4.886  1.00 43.41     0.292 C 
HETATM   30  C9    D T9000       8.795  10.033   4.638  1.00 42.01     0.063 C 
ENDBRANCH  23  25
ENDBRANCH   7  20
TORSDOF 5
ENDMDL
MODEL 3
REMARK VINA RESULT:    -8.736      5.905     10.208
REMARK INTER + INTRA:         -11.884
REMARK INTER:                 -11.177
REMARK INTRA:                  -0.708
REMARK UNBOUND:                -0.595
REMARK  5 active torsions:
REMARK  status: ('A' for Active; 'I' for Inactive)
REMARK    1  A    between atoms: C17_7  and  C21_10 
REMARK    2  A    between atoms: C21_10  and  O27_12 
REMARK    3  A    between atoms: O27_12  and  C15_13 
REMARK    4  A    between atoms: C14_19  and  C16_20 
REMARK    5  A    between atoms: N26_23  and  C20_25 
ROOT
HETATM    1  C15   D T9000       3.900  15.186  -2.234  1.00 25.10     0.125 A 
HETATM    2  C4    D T9000       4.770  15.655  -3.276  1.00 25.13     0.029 A 
HETATM    3  C19   D T9000       2.824  16.062  -1.871  1.00 24.76     0.173 A 
HETATM    4  N22   D T9000       1.928  15.660  -0.859  1.00 21.31    -0.078 NA
HETATM    5  N23   D T9000       2.598  17.272  -2.446  1.00 23.34    -0.228 NA
HETATM    6  C5    D T9000       3.442  17.688  -3.431  1.00 25.82     0.100 A 
HETATM    7  C14   D T9000       4.557  16.922  -3.893  1.00 24.84     0.024 A 
ENDROOT
BRANCH   1   8
HETATM    8  O27   D T9000       4.010  13.952  -1.582  1.00 27.54    -0.326 OA
BRANCH   8   9
HETATM    9  C21   D T9000       5.167  13.490  -0.798  1.00 30.12     0.145 C 
HETATM   10  C1    D T9000       5.861  12.427  -1.664  1.00 31.63     0.038 C 
BRANCH   9  11
HETATM   11  C17   D T9000       4.817  12.900   0.613  1.00 31.84     0.029 A 
HETATM   12  C13   D T9000       5.824  12.900   1.662  1.00 30.66     0.057 A 
HETATM   13 CL     D T9000       7.429  13.536   1.444  1.00 30.46    -0.083 Cl
HETATM   14  C3    D T9000       5.521  12.361   2.945  1.00 30.46     0.013 A 
HETATM   15  C2    D T9000       4.245  11.816   3.228  1.00 31.74     0.031 A 
HETATM   16  C12   D T9000       3.231  11.796   2.233  1.00 32.80     0.150 A 
HETATM   17  F     D T9000       2.033  11.269   2.538  1.00 32.49    -0.203 F 
HETATM   18  C18   D T9000       3.496  12.331   0.925  1.00 33.48     0.084 A 
HETATM   19 CL2    D T9000       2.186  12.266  -0.235  1.00 45.60    -0.080 Cl
ENDBRANCH   9  11
ENDBRANCH   8   9
ENDBRANCH   1   8
BRANCH   7  20
HETATM   20  C16   D T9000       5.479  17.410  -4.995  1.00 28.58     0.041 A 
HETATM   21  C6    D T9000       5.355  18.635  -5.793  1.00 32.07     0.122 A 
HETATM   22  N24   D T9000       6.340  18.692  -6.624  1.00 34.71    -0.168 NA
HETATM   23  N26   D T9000       7.097  17.660  -6.474  1.00 35.30    -0.252 N 
HETATM   24  C7    D T9000       6.630  16.793  -5.467  1.00 31.45     0.097 A 
BRANCH  23  25
HETATM   25  C20   D T9000       8.315  17.450  -7.293  1.00 38.85     0.110 C 
HETATM   26  C8    D T9000       8.623  15.944  -7.420  1.00 41.27     0.063 C 
HETATM   27  C10   D T9000       9.896  15.751  -8.278  1.00 43.11     0.292 C 
HETATM   28  N25   D T9000      11.062  16.509  -7.737  1.00 43.93     0.339 N 
HETATM   29  C11   D T9000      10.773  17.961  -7.561  1.00 43.41     0.292 C 
HETATM   30  C9    D T9000       9.523  18.203  -6.685  1.00 42.01     0.063 C 
ENDBRANCH  23  25
ENDBRANCH   7  20
TORSDOF 5
ENDMDL
MODEL 4
REMARK VINA RESULT:    -8.646      6.368      9.502
REMARK INTER + INTRA:         -11.768
REMARK INTER:                 -11.411
REMARK INTRA:                  -0.357
REMARK UNBOUND:                -0.595
REMARK  5 active torsions:
REMARK  status: ('A' for Active; 'I' for Inactive)
REMARK    1  A    between atoms: C17_7  and  C21_10 
REMARK    2  A    between atoms: C21_10  and  O27_12 
REMARK    3  A    between atoms: O27_12  and  C15_13 
REMARK    4  A    between atoms: C14_19  and  C16_20 
REMARK    5  A    between atoms: N26_23  and  C20_25 
ROOT
HETATM    1  C15   D T9000       4.231  15.159  -2.563  1.00 25.10     0.125 A 
HETATM    2  C4    D T9000       5.327  15.220  -3.491  1.00 25.13     0.029 A 
HETATM    3  C19   D T9000       3.417  16.337  -2.475  1.00 24.76     0.173 A 
HETATM    4  N22   D T9000       2.321  16.343  -1.588  1.00 21.31    -0.078 NA
HETATM    5  N23   D T9000       3.626  17.465  -3.201  1.00 23.34    -0.228 NA
HETATM    6  C5    D T9000       4.673  17.490  -4.072  1.00 25.82     0.100 A 
HETATM    7  C14   D T9000       5.569  16.392  -4.263  1.00 24.84     0.024 A 
ENDROOT
BRANCH   1   8
HETATM    8  O27   D T9000       3.895  14.050  -1.778  1.00 27.54    -0.326 OA
BRANCH   8   9
HETATM    9  C21   D T9000       4.767  13.399  -0.787  1.00 30.12     0.145 C 
HETATM   10  C1    D T9000       5.588  12.361  -1.571  1.00 31.63     0.038 C 
BRANCH   9  11
HETATM   11  C17   D T9000       4.015  12.710   0.405  1.00 31.84     0.029 A 
HETATM   12  C13   D T9000       2.601  12.396   0.278  1.00 30.66     0.057 A 
HETATM   13 CL     D T9000       1.672  12.739  -1.153  1.00 30.46    -0.083 Cl
HETATM   14  C3    D T9000       1.906  11.776   1.356  1.00 30.46     0.013 A 
HETATM   15  C2    D T9000       2.568  11.457   2.567  1.00 31.74     0.031 A 
HETATM   16  C12   D T9000       3.949  11.746   2.734  1.00 32.80     0.150 A 
HETATM   17  F     D T9000       4.542  11.429   3.898  1.00 32.49    -0.203 F 
HETATM   18  C18   D T9000       4.688  12.369   1.670  1.00 33.48     0.084 A 
HETATM   19 CL2    D T9000       6.384  12.684   1.964  1.00 45.60    -0.080 Cl
ENDBRANCH   9  11
ENDBRANCH   8   9
ENDBRANCH   1   8
BRANCH   7  20
HETATM   20  C16   D T9000       6.727  16.448  -5.243  1.00 28.58     0.041 A 
HETATM   21  C6    D T9000       6.669  16.685  -6.689  1.00 32.07     0.122 A 
HETATM   22  N24   D T9000       7.867  16.660  -7.163  1.00 34.71    -0.168 NA
HETATM   23  N26   D T9000       8.708  16.437  -6.212  1.00 35.30    -0.252 N 
HETATM   24  C7    D T9000       8.077  16.288  -4.962  1.00 31.45     0.097 A 
BRANCH  23  25
HETATM   25  C20   D T9000      10.169  16.354  -6.454  1.00 38.85     0.110 C 
HETATM   26  C8    D T9000      10.449  15.936  -7.911  1.00 41.27     0.063 C 
HETATM   27  C10   D T9000      11.977  15.857  -8.139  1.00 43.11     0.292 C 
HETATM   28  N25   D T9000      12.646  14.945  -7.165  1.00 43.93     0.339 N 
HETATM   29  C11   D T9000      12.353  15.300  -5.748  1.00 43.41     0.292 C 
HETATM   30  C9    D T9000      10.834  15.364  -5.466  1.00 42.01     0.063 C 
ENDBRANCH  23  25
ENDBRANCH   7  20
TORSDOF 5
ENDMDL
MODEL 5
REMARK VINA RESULT:    -8.638      2.037      3.750
REMARK INTER + INTRA:         -11.758
REMARK INTER:                 -10.814
REMARK INTRA:                  -0.944
REMARK UNBOUND:                -0.595
REMARK  5 active torsions:
REMARK  status: ('A' for Active; 'I' for Inactive)
REMARK    1  A    between atoms: C17_7  and  C21_10 
REMARK    2  A    between atoms: C21_10  and  O27_12 
REMARK    3  A    between atoms: O27_12  and  C15_13 
REMARK    4  A    between atoms: C14_19  and  C16_20 
REMARK    5  A    between atoms: N26_23  and  C20_25 
ROOT
HETATM    1  C15   D T9000       2.674  13.372   0.120  1.00 25.10     0.125 A 
HETATM    2  C4    D T9000       3.817  12.902   0.854  1.00 25.13     0.029 A 
HETATM    3  C19   D T9000       1.393  13.040   0.672  1.00 24.76     0.173 A 
HETATM    4  N22   D T9000       0.229  13.476   0.006  1.00 21.31    -0.078 NA
HETATM    5  N23   D T9000       1.215  12.327   1.814  1.00 23.34    -0.228 NA
HETATM    6  C5    D T9000       2.319  11.896   2.486  1.00 25.82     0.100 A 
HETATM    7  C14   D T9000       3.658  12.150   2.054  1.00 24.84     0.024 A 
ENDROOT
BRANCH   1   8
HETATM    8  O27   D T9000       2.723  14.135  -1.052  1.00 27.54    -0.326 OA
BRANCH   8   9
HETATM    9  C21   D T9000       3.416  15.424  -1.214  1.00 30.12     0.145 C 
HETATM   10  C1    D T9000       2.545  16.249  -2.176  1.00 31.63     0.038 C 
BRANCH   9  11
HETATM   11  C17   D T9000       4.883  15.322  -1.761  1.00 31.84     0.029 A 
HETATM   12  C13   D T9000       5.239  14.243  -2.669  1.00 30.66     0.057 A 
HETATM   13 CL     D T9000       4.108  13.034  -3.205  1.00 30.46    -0.083 Cl
HETATM   14  C3    D T9000       6.570  14.136  -3.167  1.00 30.46     0.013 A 
HETATM   15  C2    D T9000       7.569  15.067  -2.791  1.00 31.74     0.031 A 
HETATM   16  C12   D T9000       7.265  16.136  -1.907  1.00 32.80     0.150 A 
HETATM   17  F     D T9000       8.240  16.999  -1.572  1.00 32.49    -0.203 F 
HETATM   18  C18   D T9000       5.934  16.281  -1.383  1.00 33.48     0.084 A 
HETATM   19 CL2    D T9000       5.652  17.630  -0.303  1.00 45.60    -0.080 Cl
ENDBRANCH   9  11
ENDBRANCH   8   9
ENDBRANCH   1   8
BRANCH   7  20
HETATM   20  C16   D T9000       4.869  11.658   2.824  1.00 28.58     0.041 A 
HETATM   21  C6    D T9000       4.913  10.626   3.866  1.00 32.07     0.122 A 
HETATM   22  N24   D T9000       6.130  10.496   4.272  1.00 34.71    -0.168 NA
HETATM   23  N26   D T9000       6.893  11.312   3.630  1.00 35.30    -0.252 N 
HETATM   24  C7    D T9000       6.183  12.089   2.694  1.00 31.45     0.097 A 
BRANCH  23  25
HETATM   25  C20   D T9000       8.353  11.389   3.881  1.00 38.85     0.110 C 
HETATM   26  C8    D T9000       9.083  11.941   2.639  1.00 41.27     0.063 C 
HETATM   27  C10   D T9000      10.601  12.012   2.925  1.00 43.11     0.292 C 
HETATM   28  N25   D T9000      11.157  10.695   3.353  1.00 43.93     0.339 N 
HETATM   29  C11   D T9000      10.438  10.119   4.524  1.00 43.41     0.292 C 
HETATM   30  C9    D T9000       8.917  10.002   4.273  1.00 42.01     0.063 C 
ENDBRANCH  23  25
ENDBRANCH   7  20
TORSDOF 5
ENDMDL
MODEL 6
REMARK VINA RESULT:    -8.551      1.071      2.019
REMARK INTER + INTRA:         -11.645
REMARK INTER:                 -11.041
REMARK INTRA:                  -0.604
REMARK UNBOUND:                -0.595
REMARK  5 active torsions:
REMARK  status: ('A' for Active; 'I' for Inactive)
REMARK    1  A    between atoms: C17_7  and  C21_10 
REMARK    2  A    between atoms: C21_10  and  O27_12 
REMARK    3  A    between atoms: O27_12  and  C15_13 
REMARK    4  A    between atoms: C14_19  and  C16_20 
REMARK    5  A    between atoms: N26_23  and  C20_25 
ROOT
HETATM    1  C15   D T9000       5.378  12.486   2.204  1.00 25.10     0.125 A 
HETATM    2  C4    D T9000       6.747  12.117   2.442  1.00 25.13     0.029 A 
HETATM    3  C19   D T9000       4.389  11.712   2.897  1.00 24.76     0.173 A 
HETATM    4  N22   D T9000       3.027  12.025   2.714  1.00 21.31    -0.078 NA
HETATM    5  N23   D T9000       4.675  10.684   3.736  1.00 23.34    -0.228 NA
HETATM    6  C5    D T9000       5.983  10.359   3.940  1.00 25.82     0.100 A 
HETATM    7  C14   D T9000       7.074  11.040   3.315  1.00 24.84     0.024 A 
ENDROOT
BRANCH   1   8
HETATM    8  O27   D T9000       4.954  13.539   1.386  1.00 27.54    -0.326 OA
BRANCH   8   9
HETATM    9  C21   D T9000       4.419  13.409   0.021  1.00 30.12     0.145 C 
HETATM   10  C1    D T9000       5.327  12.391  -0.689  1.00 31.63     0.038 C 
BRANCH   9  11
HETATM   11  C17   D T9000       4.356  14.747  -0.797  1.00 31.84     0.029 A 
HETATM   12  C13   D T9000       5.556  15.556  -0.944  1.00 30.66     0.057 A 
HETATM   13 CL     D T9000       7.093  15.117  -0.258  1.00 30.46    -0.083 Cl
HETATM   14  C3    D T9000       5.510  16.776  -1.678  1.00 30.46     0.013 A 
HETATM   15  C2    D T9000       4.307  17.227  -2.275  1.00 31.74     0.031 A 
HETATM   16  C12   D T9000       3.113  16.467  -2.157  1.00 32.80     0.150 A 
HETATM   17  F     D T9000       1.991  16.928  -2.736  1.00 32.49    -0.203 F 
HETATM   18  C18   D T9000       3.116  15.229  -1.426  1.00 33.48     0.084 A 
HETATM   19 CL2    D T9000       1.599  14.361  -1.335  1.00 45.60    -0.080 Cl
ENDBRANCH   9  11
ENDBRANCH   8   9
ENDBRANCH   1   8
BRANCH   7  20
HETATM   20  C16   D T9000       8.521  10.657   3.563  1.00 28.58     0.041 A 
HETATM   21  C6    D T9000       9.663  10.829   2.658  1.00 32.07     0.122 A 
HETATM   22  N24   D T9000      10.724  10.381   3.238  1.00 34.71    -0.168 NA
HETATM   23  N26   D T9000      10.426   9.936   4.410  1.00 35.30    -0.252 N 
HETATM   24  C7    D T9000       9.054  10.068   4.702  1.00 31.45     0.097 A 
BRANCH  23  25
HETATM   25  C20   D T9000      11.446   9.357   5.317  1.00 38.85     0.110 C 
HETATM   26  C8    D T9000      10.839   9.095   6.710  1.00 41.27     0.063 C 
HETATM   27  C10   D T9000      11.921   8.492   7.637  1.00 43.11     0.292 C 
HETATM   28  N25   D T9000      13.137   9.353   7.719  1.00 43.93     0.339 N 
HETATM   29  C11   D T9000      13.717   9.659   6.380  1.00 43.41     0.292 C 
HETATM   30  C9    D T9000      12.677  10.290   5.427  1.00 42.01     0.063 C 
ENDBRANCH  23  25
ENDBRANCH   7  20
TORSDOF 5
ENDMDL
MODEL 7
REMARK VINA RESULT:    -8.525      1.910      2.954
REMARK INTER + INTRA:         -11.611
REMARK INTER:                 -11.086
REMARK INTRA:                  -0.525
REMARK UNBOUND:                -0.595
REMARK  5 active torsions:
REMARK  status: ('A' for Active; 'I' for Inactive)
REMARK    1  A    between atoms: C17_7  and  C21_10 
REMARK    2  A    between atoms: C21_10  and  O27_12 
REMARK    3  A    between atoms: O27_12  and  C15_13 
REMARK    4  A    between atoms: C14_19  and  C16_20 
REMARK    5  A    between atoms: N26_23  and  C20_25 
ROOT
HETATM    1  C15   D T9000       4.641  12.391   2.245  1.00 25.10     0.125 A 
HETATM    2  C4    D T9000       6.029  12.295   2.602  1.00 25.13     0.029 A 
HETATM    3  C19   D T9000       3.775  11.403   2.820  1.00 24.76     0.173 A 
HETATM    4  N22   D T9000       2.398  11.443   2.517  1.00 21.31    -0.078 NA
HETATM    5  N23   D T9000       4.191  10.416   3.654  1.00 23.34    -0.228 NA
HETATM    6  C5    D T9000       5.514  10.353   3.972  1.00 25.82     0.100 A 
HETATM    7  C14   D T9000       6.493  11.268   3.473  1.00 24.84     0.024 A 
ENDROOT
BRANCH   1   8
HETATM    8  O27   D T9000       4.083  13.374   1.419  1.00 27.54    -0.326 OA
BRANCH   8   9
HETATM    9  C21   D T9000       3.810  13.236  -0.021  1.00 30.12     0.145 C 
HETATM   10  C1    D T9000       4.800  12.178  -0.535  1.00 31.63     0.038 C 
BRANCH   9  11
HETATM   11  C17   D T9000       3.949  14.560  -0.851  1.00 31.84     0.029 A 
HETATM   12  C13   D T9000       5.256  15.180  -1.003  1.00 30.66     0.057 A 
HETATM   13 CL     D T9000       6.710  14.523  -0.309  1.00 30.46    -0.083 Cl
HETATM   14  C3    D T9000       5.394  16.386  -1.749  1.00 30.46     0.013 A 
HETATM   15  C2    D T9000       4.272  17.006  -2.353  1.00 31.74     0.031 A 
HETATM   16  C12   D T9000       2.978  16.434  -2.230  1.00 32.80     0.150 A 
HETATM   17  F     D T9000       1.938  17.052  -2.817  1.00 32.49    -0.203 F 
HETATM   18  C18   D T9000       2.795  15.217  -1.488  1.00 33.48     0.084 A 
HETATM   19 CL2    D T9000       1.165  14.585  -1.393  1.00 45.60    -0.080 Cl
ENDBRANCH   9  11
ENDBRANCH   8   9
ENDBRANCH   1   8
BRANCH   7  20
HETATM   20  C16   D T9000       7.961  11.174   3.847  1.00 28.58     0.041 A 
HETATM   21  C6    D T9000       8.613  10.152   4.673  1.00 32.07     0.122 A 
HETATM   22  N24   D T9000       9.871  10.423   4.752  1.00 34.71    -0.168 NA
HETATM   23  N26   D T9000      10.130  11.493   4.083  1.00 35.30    -0.252 N 
HETATM   24  C7    D T9000       8.982  12.039   3.477  1.00 31.45     0.097 A 
BRANCH  23  25
HETATM   25  C20   D T9000      11.500  12.053   3.988  1.00 38.85     0.110 C 
HETATM   26  C8    D T9000      11.746  13.067   5.124  1.00 41.27     0.063 C 
HETATM   27  C10   D T9000      13.179  13.635   5.004  1.00 43.11     0.292 C 
HETATM   28  N25   D T9000      13.438  14.236   3.663  1.00 43.93     0.339 N 
HETATM   29  C11   D T9000      13.163  13.290   2.545  1.00 43.41     0.292 C 
HETATM   30  C9    D T9000      11.729  12.716   2.608  1.00 42.01     0.063 C 
ENDBRANCH  23  25
ENDBRANCH   7  20
TORSDOF 5
ENDMDL
MODEL 8
REMARK VINA RESULT:    -8.472      2.751      4.849
REMARK INTER + INTRA:         -11.544
REMARK INTER:                 -10.857
REMARK INTRA:                  -0.687
REMARK UNBOUND:                -0.595
REMARK  5 active torsions:
REMARK  status: ('A' for Active; 'I' for Inactive)
REMARK    1  A    between atoms: C17_7  and  C21_10 
REMARK    2  A    between atoms: C21_10  and  O27_12 
REMARK    3  A    between atoms: O27_12  and  C15_13 
REMARK    4  A    between atoms: C14_19  and  C16_20 
REMARK    5  A    between atoms: N26_23  and  C20_25 
ROOT
HETATM    1  C15   D T9000       2.927  14.695  -1.235  1.00 25.10     0.125 A 
HETATM    2  C4    D T9000       4.218  14.244  -0.793  1.00 25.13     0.029 A 
HETATM    3  C19   D T9000       1.822  13.833  -0.930  1.00 24.76     0.173 A 
HETATM    4  N22   D T9000       0.526  14.219  -1.329  1.00 21.31    -0.078 NA
HETATM    5  N23   D T9000       1.935  12.653  -0.267  1.00 23.34    -0.228 NA
HETATM    6  C5    D T9000       3.173  12.254   0.137  1.00 25.82     0.100 A 
HETATM    7  C14   D T9000       4.364  13.009  -0.099  1.00 24.84     0.024 A 
ENDROOT
BRANCH   1   8
HETATM    8  O27   D T9000       2.675  15.900  -1.902  1.00 27.54    -0.326 OA
BRANCH   8   9
HETATM    9  C21   D T9000       3.517  17.106  -1.852  1.00 30.12     0.145 C 
HETATM   10  C1    D T9000       2.639  18.204  -1.230  1.00 31.63     0.038 C 
BRANCH   9  11
HETATM   11  C17   D T9000       4.079  17.579  -3.239  1.00 31.84     0.029 A 
HETATM   12  C13   D T9000       5.474  17.336  -3.570  1.00 30.66     0.057 A 
HETATM   13 CL     D T9000       6.582  16.527  -2.500  1.00 30.46    -0.083 Cl
HETATM   14  C3    D T9000       5.997  17.766  -4.823  1.00 30.46     0.013 A 
HETATM   15  C2    D T9000       5.180  18.436  -5.767  1.00 31.74     0.031 A 
HETATM   16  C12   D T9000       3.812  18.694  -5.484  1.00 32.80     0.150 A 
HETATM   17  F     D T9000       3.069  19.333  -6.404  1.00 32.49    -0.203 F 
HETATM   18  C18   D T9000       3.244  18.274  -4.232  1.00 33.48     0.084 A 
HETATM   19 CL2    D T9000       1.550  18.632  -3.973  1.00 45.60    -0.080 Cl
ENDBRANCH   9  11
ENDBRANCH   8   9
ENDBRANCH   1   8
BRANCH   7  20
HETATM   20  C16   D T9000       5.731  12.540   0.366  1.00 28.58     0.041 A 
HETATM   21  C6    D T9000       6.919  12.280  -0.454  1.00 32.07     0.122 A 
HETATM   22  N24   D T9000       7.881  11.900   0.315  1.00 34.71    -0.168 NA
HETATM   23  N26   D T9000       7.477  11.877   1.539  1.00 35.30    -0.252 N 
HETATM   24  C7    D T9000       6.130  12.265   1.667  1.00 31.45     0.097 A 
BRANCH  23  25
HETATM   25  C20   D T9000       8.368  11.479   2.656  1.00 38.85     0.110 C 
HETATM   26  C8    D T9000       9.663  10.845   2.110  1.00 41.27     0.063 C 
HETATM   27  C10   D T9000      10.574  10.439   3.292  1.00 43.11     0.292 C 
HETATM   28  N25   D T9000       9.880   9.534   4.255  1.00 43.93     0.339 N 
HETATM   29  C11   D T9000       8.601  10.106   4.762  1.00 43.41     0.292 C 
HETATM   30  C9    D T9000       7.644  10.501   3.614  1.00 42.01     0.063 C 
ENDBRANCH  23  25
ENDBRANCH   7  20
TORSDOF 5
ENDMDL
MODEL 9
REMARK VINA RESULT:    -8.293      2.544      3.994
REMARK INTER + INTRA:         -11.312
REMARK INTER:                 -10.750
REMARK INTRA:                  -0.562
REMARK UNBOUND:                -0.595
REMARK  5 active torsions:
REMARK  status: ('A' for Active; 'I' for Inactive)
REMARK    1  A    between atoms: C17_7  and  C21_10 
REMARK    2  A    between atoms: C21_10  and  O27_12 
REMARK    3  A    between atoms: O27_12  and  C15_13 
REMARK    4  A    between atoms: C14_19  and  C16_20 
REMARK    5  A    between atoms: N26_23  and  C20_25 
ROOT
HETATM    1  C15   D T9000       3.673  14.090  -0.636  1.00 25.10     0.125 A 
HETATM    2  C4    D T9000       4.619  13.433   0.224  1.00 25.13     0.029 A 
HETATM    3  C19   D T9000       2.292  13.942  -0.280  1.00 24.76     0.173 A 
HETATM    4  N22   D T9000       1.311  14.566  -1.077  1.00 21.31    -0.078 NA
HETATM    5  N23   D T9000       1.852  13.236   0.794  1.00 23.34    -0.228 NA
HETATM    6  C5    D T9000       2.774  12.625   1.588  1.00 25.82     0.100 A 
HETATM    7  C14   D T9000       4.183  12.683   1.354  1.00 24.84     0.024 A 
ENDROOT
BRANCH   1   8
HETATM    8  O27   D T9000       3.999  14.866  -1.754  1.00 27.54    -0.326 OA
BRANCH   8   9
HETATM    9  C21   D T9000       5.346  15.338  -2.114  1.00 30.12     0.145 C 
HETATM   10  C1    D T9000       5.724  16.377  -1.046  1.00 31.63     0.038 C 
BRANCH   9  11
HETATM   11  C17   D T9000       5.467  15.962  -3.548  1.00 31.84     0.029 A 
HETATM   12  C13   D T9000       4.628  17.093  -3.914  1.00 30.66     0.057 A 
HETATM   13 CL     D T9000       3.476  17.816  -2.829  1.00 30.46    -0.083 Cl
HETATM   14  C3    D T9000       4.725  17.664  -5.215  1.00 30.46     0.013 A 
HETATM   15  C2    D T9000       5.630  17.150  -6.176  1.00 31.74     0.031 A 
HETATM   16  C12   D T9000       6.468  16.047  -5.861  1.00 32.80     0.150 A 
HETATM   17  F     D T9000       7.313  15.586  -6.799  1.00 32.49    -0.203 F 
HETATM   18  C18   D T9000       6.403  15.442  -4.558  1.00 33.48     0.084 A 
HETATM   19 CL2    D T9000       7.476  14.091  -4.260  1.00 45.60    -0.080 Cl
ENDBRANCH   9  11
ENDBRANCH   8   9
ENDBRANCH   1   8
BRANCH   7  20
HETATM   20  C16   D T9000       5.188  11.994   2.259  1.00 28.58     0.041 A 
HETATM   21  C6    D T9000       4.917  11.209   3.469  1.00 32.07     0.122 A 
HETATM   22  N24   D T9000       6.036  10.788   3.951  1.00 34.71    -0.168 NA
HETATM   23  N26   D T9000       7.010  11.196   3.212  1.00 35.30    -0.252 N 
HETATM   24  C7    D T9000       6.569  11.967   2.119  1.00 31.45     0.097 A 
BRANCH  23  25
HETATM   25  C20   D T9000       8.423  10.865   3.517  1.00 38.85     0.110 C 
HETATM   26  C8    D T9000       8.516  10.066   4.832  1.00 41.27     0.063 C 
HETATM   27  C10   D T9000       9.997   9.734   5.128  1.00 43.11     0.292 C 
HETATM   28  N25   D T9000      10.854  10.955   5.163  1.00 43.93     0.339 N 
HETATM   29  C11   D T9000      10.746  11.770   3.919  1.00 43.41     0.292 C 
HETATM   30  C9    D T9000       9.283  12.151   3.598  1.00 42.01     0.063 C 
ENDBRANCH  23  25
ENDBRANCH   7  20
TORSDOF 5
ENDMDL
