MODEL 1
REMARK VINA RESULT:    -8.420      0.000      0.000
REMARK INTER + INTRA:         -11.744
REMARK INTER:                 -10.881
REMARK INTRA:                  -0.863
REMARK UNBOUND:                -0.863
REMARK  5 active torsions:
REMARK  status: ('A' for Active; 'I' for Inactive)
REMARK    1  A    between atoms: C17_7  and  C21_10 
REMARK    2  A    between atoms: C21_10  and  O27_12 
REMARK    3  A    between atoms: O27_12  and  C15_13 
REMARK    4  A    between atoms: C14_19  and  C16_20 
REMARK    5  A    between atoms: N26_23  and  C20_25 
ROOT
HETATM    1  C15   D T9000      -3.728   2.394  13.328  1.00 25.10     0.125 A 
HETATM    2  C4    D T9000      -2.729   1.575  13.955  1.00 25.13     0.029 A 
HETATM    3  C19   D T9000      -5.071   1.896  13.382  1.00 24.76     0.173 A 
HETATM    4  N22   D T9000      -6.105   2.653  12.791  1.00 21.31    -0.078 NA
HETATM    5  N23   D T9000      -5.430   0.729  13.976  1.00 23.34    -0.228 NA
HETATM    6  C5    D T9000      -4.457  -0.025  14.561  1.00 25.82     0.100 A 
HETATM    7  C14   D T9000      -3.076   0.345  14.583  1.00 24.84     0.024 A 
ENDROOT
BRANCH   1   8
HETATM    8  O27   D T9000      -3.494   3.626  12.707  1.00 27.54    -0.326 OA
BRANCH   8   9
HETATM    9  C21   D T9000      -2.320   4.490  12.920  1.00 30.12     0.145 C 
HETATM   10  C1    D T9000      -2.852   5.932  12.893  1.00 31.63     0.038 C 
BRANCH   9  11
HETATM   11  C17   D T9000      -1.169   4.314  11.867  1.00 31.84     0.029 A 
HETATM   12  C13   D T9000      -1.397   4.699  10.483  1.00 30.66     0.057 A 
HETATM   13 CL     D T9000      -2.898   5.365   9.912  1.00 30.46    -0.083 Cl
HETATM   14  C3    D T9000      -0.362   4.539   9.517  1.00 30.46     0.013 A 
HETATM   15  C2    D T9000       0.900   4.003   9.878  1.00 31.74     0.031 A 
HETATM   16  C12   D T9000       1.163   3.614  11.217  1.00 32.80     0.150 A 
HETATM   17  F     D T9000       2.372   3.109  11.520  1.00 32.49    -0.203 F 
HETATM   18  C18   D T9000       0.148   3.762  12.224  1.00 33.48     0.084 A 
HETATM   19 CL2    D T9000       0.565   3.259  13.848  1.00 45.60    -0.080 Cl
ENDBRANCH   9  11
ENDBRANCH   8   9
ENDBRANCH   1   8
BRANCH   7  20
HETATM   20  C16   D T9000      -2.015  -0.514  15.245  1.00 28.58     0.041 A 
HETATM   21  C6    D T9000      -0.560  -0.425  15.088  1.00 32.07     0.122 A 
HETATM   22  N24   D T9000      -0.005  -1.327  15.820  1.00 34.71    -0.168 NA
HETATM   23  N26   D T9000      -0.911  -2.002  16.442  1.00 35.30    -0.252 N 
HETATM   24  C7    D T9000      -2.213  -1.560  16.139  1.00 31.45     0.097 A 
BRANCH  23  25
HETATM   25  C20   D T9000      -0.574  -3.111  17.366  1.00 38.85     0.110 C 
HETATM   26  C8    D T9000       0.535  -3.996  16.760  1.00 41.27     0.063 C 
HETATM   27  C10   D T9000       0.869  -5.145  17.739  1.00 43.11     0.292 C 
HETATM   28  N25   D T9000      -0.336  -5.944  18.105  1.00 43.93     0.339 N 
HETATM   29  C11   D T9000      -1.440  -5.105  18.651  1.00 43.41     0.292 C 
HETATM   30  C9    D T9000      -1.829  -3.958  17.691  1.00 42.01     0.063 C 
ENDBRANCH  23  25
ENDBRANCH   7  20
TORSDOF 5
ENDMDL
MODEL 2
REMARK VINA RESULT:    -8.280      2.043      2.761
REMARK INTER + INTRA:         -11.563
REMARK INTER:                 -10.705
REMARK INTRA:                  -0.859
REMARK UNBOUND:                -0.863
REMARK  5 active torsions:
REMARK  status: ('A' for Active; 'I' for Inactive)
REMARK    1  A    between atoms: C17_7  and  C21_10 
REMARK    2  A    between atoms: C21_10  and  O27_12 
REMARK    3  A    between atoms: O27_12  and  C15_13 
REMARK    4  A    between atoms: C14_19  and  C16_20 
REMARK    5  A    between atoms: N26_23  and  C20_25 
ROOT
HETATM    1  C15   D T9000      -1.992   1.925  14.268  1.00 25.10     0.125 A 
HETATM    2  C4    D T9000      -1.461   0.744  14.890  1.00 25.13     0.029 A 
HETATM    3  C19   D T9000      -3.418   1.974  14.131  1.00 24.76     0.173 A 
HETATM    4  N22   D T9000      -4.009   3.107  13.534  1.00 21.31    -0.078 NA
HETATM    5  N23   D T9000      -4.260   0.992  14.546  1.00 23.34    -0.228 NA
HETATM    6  C5    D T9000      -3.724  -0.116  15.131  1.00 25.82     0.100 A 
HETATM    7  C14   D T9000      -2.320  -0.302  15.332  1.00 24.84     0.024 A 
ENDROOT
BRANCH   1   8
HETATM    8  O27   D T9000      -1.237   3.015  13.822  1.00 27.54    -0.326 OA
BRANCH   8   9
HETATM    9  C21   D T9000       0.170   2.971  13.389  1.00 30.12     0.145 C 
HETATM   10  C1    D T9000       0.980   3.595  14.537  1.00 31.63     0.038 C 
BRANCH   9  11
HETATM   11  C17   D T9000       0.471   3.717  12.041  1.00 31.84     0.029 A 
HETATM   12  C13   D T9000       1.257   3.053  11.013  1.00 30.66     0.057 A 
HETATM   13 CL     D T9000       1.890   1.443  11.186  1.00 30.46    -0.083 Cl
HETATM   14  C3    D T9000       1.542   3.721   9.788  1.00 30.46     0.013 A 
HETATM   15  C2    D T9000       1.074   5.038   9.545  1.00 31.74     0.031 A 
HETATM   16  C12   D T9000       0.305   5.722  10.523  1.00 32.80     0.150 A 
HETATM   17  F     D T9000      -0.119   6.970  10.257  1.00 32.49    -0.203 F 
HETATM   18  C18   D T9000      -0.008   5.082  11.772  1.00 33.48     0.084 A 
HETATM   19 CL2    D T9000      -0.965   6.002  12.914  1.00 45.60    -0.080 Cl
ENDBRANCH   9  11
ENDBRANCH   8   9
ENDBRANCH   1   8
BRANCH   7  20
HETATM   20  C16   D T9000      -1.752  -1.546  15.990  1.00 28.58     0.041 A 
HETATM   21  C6    D T9000      -0.364  -2.021  15.966  1.00 32.07     0.122 A 
HETATM   22  N24   D T9000      -0.285  -3.111  16.647  1.00 34.71    -0.168 NA
HETATM   23  N26   D T9000      -1.446  -3.417  17.117  1.00 35.30    -0.252 N 
HETATM   24  C7    D T9000      -2.436  -2.485  16.751  1.00 31.45     0.097 A 
BRANCH  23  25
HETATM   25  C20   D T9000      -1.668  -4.625  17.947  1.00 38.85     0.110 C 
HETATM   26  C8    D T9000      -3.168  -4.790  18.265  1.00 41.27     0.063 C 
HETATM   27  C10   D T9000      -3.375  -6.055  19.130  1.00 43.11     0.292 C 
HETATM   28  N25   D T9000      -2.547  -6.032  20.371  1.00 43.93     0.339 N 
HETATM   29  C11   D T9000      -1.097  -5.828  20.093  1.00 43.41     0.292 C 
HETATM   30  C9    D T9000      -0.839  -4.556  19.253  1.00 42.01     0.063 C 
ENDBRANCH  23  25
ENDBRANCH   7  20
TORSDOF 5
ENDMDL
MODEL 3
REMARK VINA RESULT:    -8.094      1.924      2.416
REMARK INTER + INTRA:         -11.323
REMARK INTER:                 -10.593
REMARK INTRA:                  -0.731
REMARK UNBOUND:                -0.863
REMARK  5 active torsions:
REMARK  status: ('A' for Active; 'I' for Inactive)
REMARK    1  A    between atoms: C17_7  and  C21_10 
REMARK    2  A    between atoms: C21_10  and  O27_12 
REMARK    3  A    between atoms: O27_12  and  C15_13 
REMARK    4  A    between atoms: C14_19  and  C16_20 
REMARK    5  A    between atoms: N26_23  and  C20_25 
ROOT
HETATM    1  C15   D T9000      -1.992   1.949  14.236  1.00 25.10     0.125 A 
HETATM    2  C4    D T9000      -1.453   0.767  14.849  1.00 25.13     0.029 A 
HETATM    3  C19   D T9000      -3.422   2.031  14.184  1.00 24.76     0.173 A 
HETATM    4  N22   D T9000      -4.020   3.168  13.601  1.00 21.31    -0.078 NA
HETATM    5  N23   D T9000      -4.260   1.079  14.668  1.00 23.34    -0.228 NA
HETATM    6  C5    D T9000      -3.716  -0.031  15.242  1.00 25.82     0.100 A 
HETATM    7  C14   D T9000      -2.308  -0.248  15.362  1.00 24.84     0.024 A 
ENDROOT
BRANCH   1   8
HETATM    8  O27   D T9000      -1.240   3.012  13.723  1.00 27.54    -0.326 OA
BRANCH   8   9
HETATM    9  C21   D T9000       0.200   2.979  13.414  1.00 30.12     0.145 C 
HETATM   10  C1    D T9000       0.897   3.677  14.594  1.00 31.63     0.038 C 
BRANCH   9  11
HETATM   11  C17   D T9000       0.601   3.666  12.061  1.00 31.84     0.029 A 
HETATM   12  C13   D T9000       0.085   4.989  11.745  1.00 30.66     0.057 A 
HETATM   13 CL     D T9000      -0.966   5.880  12.804  1.00 30.46    -0.083 Cl
HETATM   14  C3    D T9000       0.438   5.620  10.518  1.00 30.46     0.013 A 
HETATM   15  C2    D T9000       1.289   4.978   9.582  1.00 31.74     0.031 A 
HETATM   16  C12   D T9000       1.813   3.687   9.851  1.00 32.80     0.150 A 
HETATM   17  F     D T9000       2.616   3.111   8.939  1.00 32.49    -0.203 F 
HETATM   18  C18   D T9000       1.485   3.016  11.080  1.00 33.48     0.084 A 
HETATM   19 CL2    D T9000       2.181   1.428  11.324  1.00 45.60    -0.080 Cl
ENDBRANCH   9  11
ENDBRANCH   8   9
ENDBRANCH   1   8
BRANCH   7  20
HETATM   20  C16   D T9000      -1.731  -1.494  16.010  1.00 28.58     0.041 A 
HETATM   21  C6    D T9000      -0.340  -1.958  15.982  1.00 32.07     0.122 A 
HETATM   22  N24   D T9000      -0.253  -3.054  16.654  1.00 34.71    -0.168 NA
HETATM   23  N26   D T9000      -1.412  -3.372  17.121  1.00 35.30    -0.252 N 
HETATM   24  C7    D T9000      -2.409  -2.445  16.763  1.00 31.45     0.097 A 
BRANCH  23  25
HETATM   25  C20   D T9000      -1.625  -4.589  17.940  1.00 38.85     0.110 C 
HETATM   26  C8    D T9000      -3.123  -4.760  18.268  1.00 41.27     0.063 C 
HETATM   27  C10   D T9000      -3.320  -6.034  19.122  1.00 43.11     0.292 C 
HETATM   28  N25   D T9000      -2.484  -6.021  20.357  1.00 43.93     0.339 N 
HETATM   29  C11   D T9000      -1.036  -5.812  20.070  1.00 43.41     0.292 C 
HETATM   30  C9    D T9000      -0.787  -4.531  19.241  1.00 42.01     0.063 C 
ENDBRANCH  23  25
ENDBRANCH   7  20
TORSDOF 5
ENDMDL
MODEL 4
REMARK VINA RESULT:    -7.879      4.967      7.212
REMARK INTER + INTRA:         -11.045
REMARK INTER:                 -10.671
REMARK INTRA:                  -0.375
REMARK UNBOUND:                -0.863
REMARK  5 active torsions:
REMARK  status: ('A' for Active; 'I' for Inactive)
REMARK    1  A    between atoms: C17_7  and  C21_10 
REMARK    2  A    between atoms: C21_10  and  O27_12 
REMARK    3  A    between atoms: O27_12  and  C15_13 
REMARK    4  A    between atoms: C14_19  and  C16_20 
REMARK    5  A    between atoms: N26_23  and  C20_25 
ROOT
HETATM    1  C15   D T9000       0.431   3.961  11.819  1.00 25.10     0.125 A 
HETATM    2  C4    D T9000       1.336   2.862  12.009  1.00 25.13     0.029 A 
HETATM    3  C19   D T9000       0.584   4.695  10.597  1.00 24.76     0.173 A 
HETATM    4  N22   D T9000      -0.276   5.784  10.342  1.00 21.31    -0.078 NA
HETATM    5  N23   D T9000       1.510   4.410   9.646  1.00 23.34    -0.228 NA
HETATM    6  C5    D T9000       2.354   3.362   9.858  1.00 25.82     0.100 A 
HETATM    7  C14   D T9000       2.319   2.543  11.030  1.00 24.84     0.024 A 
ENDROOT
BRANCH   1   8
HETATM    8  O27   D T9000      -0.581   4.340  12.707  1.00 27.54    -0.326 OA
BRANCH   8   9
HETATM    9  C21   D T9000      -2.024   4.371  12.410  1.00 30.12     0.145 C 
HETATM   10  C1    D T9000      -2.549   5.680  13.020  1.00 31.63     0.038 C 
BRANCH   9  11
HETATM   11  C17   D T9000      -2.838   3.147  12.961  1.00 31.84     0.029 A 
HETATM   12  C13   D T9000      -4.123   2.813  12.365  1.00 30.66     0.057 A 
HETATM   13 CL     D T9000      -4.823   3.701  11.045  1.00 30.46    -0.083 Cl
HETATM   14  C3    D T9000      -4.875   1.709  12.860  1.00 30.46     0.013 A 
HETATM   15  C2    D T9000      -4.395   0.919  13.936  1.00 31.74     0.031 A 
HETATM   16  C12   D T9000      -3.147   1.212  14.546  1.00 32.80     0.150 A 
HETATM   17  F     D T9000      -2.727   0.441  15.564  1.00 32.49    -0.203 F 
HETATM   18  C18   D T9000      -2.355   2.316  14.075  1.00 33.48     0.084 A 
HETATM   19 CL2    D T9000      -0.829   2.598  14.886  1.00 45.60    -0.080 Cl
ENDBRANCH   9  11
ENDBRANCH   8   9
ENDBRANCH   1   8
BRANCH   7  20
HETATM   20  C16   D T9000       3.271   1.379  11.237  1.00 28.58     0.041 A 
HETATM   21  C6    D T9000       3.449   0.570  12.446  1.00 32.07     0.122 A 
HETATM   22  N24   D T9000       4.349  -0.324  12.221  1.00 34.71    -0.168 NA
HETATM   23  N26   D T9000       4.788  -0.206  11.014  1.00 35.30    -0.252 N 
HETATM   24  C7    D T9000       4.165   0.846  10.316  1.00 31.45     0.097 A 
BRANCH  23  25
HETATM   25  C20   D T9000       5.832  -1.102  10.463  1.00 38.85     0.110 C 
HETATM   26  C8    D T9000       6.073  -2.294  11.413  1.00 41.27     0.063 C 
HETATM   27  C10   D T9000       7.165  -3.213  10.818  1.00 43.11     0.292 C 
HETATM   28  N25   D T9000       8.429  -2.475  10.528  1.00 43.93     0.339 N 
HETATM   29  C11   D T9000       8.215  -1.291   9.648  1.00 43.41     0.292 C 
HETATM   30  C9    D T9000       7.150  -0.327  10.218  1.00 42.01     0.063 C 
ENDBRANCH  23  25
ENDBRANCH   7  20
TORSDOF 5
ENDMDL
MODEL 5
REMARK VINA RESULT:    -7.762      1.978      2.674
REMARK INTER + INTRA:         -10.894
REMARK INTER:                 -10.176
REMARK INTRA:                  -0.718
REMARK UNBOUND:                -0.863
REMARK  5 active torsions:
REMARK  status: ('A' for Active; 'I' for Inactive)
REMARK    1  A    between atoms: C17_7  and  C21_10 
REMARK    2  A    between atoms: C21_10  and  O27_12 
REMARK    3  A    between atoms: O27_12  and  C15_13 
REMARK    4  A    between atoms: C14_19  and  C16_20 
REMARK    5  A    between atoms: N26_23  and  C20_25 
ROOT
HETATM    1  C15   D T9000      -1.909   1.690  14.253  1.00 25.10     0.125 A 
HETATM    2  C4    D T9000      -1.354   0.530  14.892  1.00 25.13     0.029 A 
HETATM    3  C19   D T9000      -3.339   1.786  14.261  1.00 24.76     0.173 A 
HETATM    4  N22   D T9000      -3.952   2.903  13.656  1.00 21.31    -0.078 NA
HETATM    5  N23   D T9000      -4.163   0.866  14.824  1.00 23.34    -0.228 NA
HETATM    6  C5    D T9000      -3.605  -0.224  15.422  1.00 25.82     0.100 A 
HETATM    7  C14   D T9000      -2.195  -0.453  15.488  1.00 24.84     0.024 A 
ENDROOT
BRANCH   1   8
HETATM    8  O27   D T9000      -1.170   2.720  13.661  1.00 27.54    -0.326 OA
BRANCH   8   9
HETATM    9  C21   D T9000       0.279   2.704  13.401  1.00 30.12     0.145 C 
HETATM   10  C1    D T9000       0.933   3.344  14.636  1.00 31.63     0.038 C 
BRANCH   9  11
HETATM   11  C17   D T9000       0.726   3.455  12.097  1.00 31.84     0.029 A 
HETATM   12  C13   D T9000       0.272   4.817  11.861  1.00 30.66     0.057 A 
HETATM   13 CL     D T9000      -0.752   5.686  12.965  1.00 30.46    -0.083 Cl
HETATM   14  C3    D T9000       0.666   5.508  10.679  1.00 30.46     0.013 A 
HETATM   15  C2    D T9000       1.500   4.889   9.713  1.00 31.74     0.031 A 
HETATM   16  C12   D T9000       1.964   3.561   9.904  1.00 32.80     0.150 A 
HETATM   17  F     D T9000       2.751   3.009   8.965  1.00 32.49    -0.203 F 
HETATM   18  C18   D T9000       1.593   2.830  11.085  1.00 33.48     0.084 A 
HETATM   19 CL2    D T9000       2.216   1.201  11.235  1.00 45.60    -0.080 Cl
ENDBRANCH   9  11
ENDBRANCH   8   9
ENDBRANCH   1   8
BRANCH   7  20
HETATM   20  C16   D T9000      -1.601  -1.675  16.163  1.00 28.58     0.041 A 
HETATM   21  C6    D T9000      -2.315  -2.766  16.834  1.00 32.07     0.122 A 
HETATM   22  N24   D T9000      -1.455  -3.618  17.275  1.00 34.71    -0.168 NA
HETATM   23  N26   D T9000      -0.263  -3.227  16.980  1.00 35.30    -0.252 N 
HETATM   24  C7    D T9000      -0.256  -2.006  16.278  1.00 31.45     0.097 A 
BRANCH  23  25
HETATM   25  C20   D T9000       0.940  -4.008  17.356  1.00 38.85     0.110 C 
HETATM   26  C8    D T9000       2.172  -3.084  17.446  1.00 41.27     0.063 C 
HETATM   27  C10   D T9000       3.413  -3.920  17.840  1.00 43.11     0.292 C 
HETATM   28  N25   D T9000       3.645  -5.060  16.907  1.00 43.93     0.339 N 
HETATM   29  C11   D T9000       2.452  -5.943  16.767  1.00 43.41     0.292 C 
HETATM   30  C9    D T9000       1.191  -5.154  16.346  1.00 42.01     0.063 C 
ENDBRANCH  23  25
ENDBRANCH   7  20
TORSDOF 5
ENDMDL
MODEL 6
REMARK VINA RESULT:    -7.472      5.197      8.155
REMARK INTER + INTRA:         -10.519
REMARK INTER:                 -10.308
REMARK INTRA:                  -0.211
REMARK UNBOUND:                -0.863
REMARK  5 active torsions:
REMARK  status: ('A' for Active; 'I' for Inactive)
REMARK    1  A    between atoms: C17_7  and  C21_10 
REMARK    2  A    between atoms: C21_10  and  O27_12 
REMARK    3  A    between atoms: O27_12  and  C15_13 
REMARK    4  A    between atoms: C14_19  and  C16_20 
REMARK    5  A    between atoms: N26_23  and  C20_25 
ROOT
HETATM    1  C15   D T9000       0.512   4.423  11.742  1.00 25.10     0.125 A 
HETATM    2  C4    D T9000       1.469   3.355  11.660  1.00 25.13     0.029 A 
HETATM    3  C19   D T9000       0.568   5.397  10.691  1.00 24.76     0.173 A 
HETATM    4  N22   D T9000      -0.347   6.471  10.705  1.00 21.31    -0.078 NA
HETATM    5  N23   D T9000       1.451   5.358   9.660  1.00 23.34    -0.228 NA
HETATM    6  C5    D T9000       2.346   4.332   9.613  1.00 25.82     0.100 A 
HETATM    7  C14   D T9000       2.408   3.292  10.592  1.00 24.84     0.024 A 
ENDROOT
BRANCH   1   8
HETATM    8  O27   D T9000      -0.464   4.563  12.735  1.00 27.54    -0.326 OA
BRANCH   8   9
HETATM    9  C21   D T9000      -1.872   4.149  12.625  1.00 30.12     0.145 C 
HETATM   10  C1    D T9000      -2.703   5.382  13.015  1.00 31.63     0.038 C 
BRANCH   9  11
HETATM   11  C17   D T9000      -2.271   2.919  13.515  1.00 31.84     0.029 A 
HETATM   12  C13   D T9000      -1.357   2.451  14.546  1.00 30.66     0.057 A 
HETATM   13 CL     D T9000       0.182   3.194  14.864  1.00 30.46    -0.083 Cl
HETATM   14  C3    D T9000      -1.705   1.333  15.356  1.00 30.46     0.013 A 
HETATM   15  C2    D T9000      -2.937   0.654  15.178  1.00 31.74     0.031 A 
HETATM   16  C12   D T9000      -3.857   1.077  14.183  1.00 32.80     0.150 A 
HETATM   17  F     D T9000      -5.014   0.407  14.043  1.00 32.49    -0.203 F 
HETATM   18  C18   D T9000      -3.546   2.204  13.346  1.00 33.48     0.084 A 
HETATM   19 CL2    D T9000      -4.743   2.654  12.150  1.00 45.60    -0.080 Cl
ENDBRANCH   9  11
ENDBRANCH   8   9
ENDBRANCH   1   8
BRANCH   7  20
HETATM   20  C16   D T9000       3.415   2.159  10.511  1.00 28.58     0.041 A 
HETATM   21  C6    D T9000       3.155   0.718  10.597  1.00 32.07     0.122 A 
HETATM   22  N24   D T9000       4.271   0.085  10.480  1.00 34.71    -0.168 NA
HETATM   23  N26   D T9000       5.236   0.927  10.327  1.00 35.30    -0.252 N 
HETATM   24  C7    D T9000       4.789   2.263  10.336  1.00 31.45     0.097 A 
BRANCH  23  25
HETATM   25  C20   D T9000       6.643   0.493  10.163  1.00 38.85     0.110 C 
HETATM   26  C8    D T9000       7.277   1.179   8.935  1.00 41.27     0.063 C 
HETATM   27  C10   D T9000       8.743   0.711   8.785  1.00 43.11     0.292 C 
HETATM   28  N25   D T9000       8.858  -0.774   8.707  1.00 43.93     0.339 N 
HETATM   29  C11   D T9000       8.212  -1.463   9.860  1.00 43.41     0.292 C 
HETATM   30  C9    D T9000       6.733  -1.047  10.033  1.00 42.01     0.063 C 
ENDBRANCH  23  25
ENDBRANCH   7  20
TORSDOF 5
ENDMDL
MODEL 7
REMARK VINA RESULT:    -7.420      5.257     10.871
REMARK INTER + INTRA:         -10.452
REMARK INTER:                  -9.879
REMARK INTRA:                  -0.573
REMARK UNBOUND:                -0.863
REMARK  5 active torsions:
REMARK  status: ('A' for Active; 'I' for Inactive)
REMARK    1  A    between atoms: C17_7  and  C21_10 
REMARK    2  A    between atoms: C21_10  and  O27_12 
REMARK    3  A    between atoms: O27_12  and  C15_13 
REMARK    4  A    between atoms: C14_19  and  C16_20 
REMARK    5  A    between atoms: N26_23  and  C20_25 
ROOT
HETATM    1  C15   D T9000      -1.723  -3.511  17.445  1.00 25.10     0.125 A 
HETATM    2  C4    D T9000      -2.528  -2.451  16.906  1.00 25.13     0.029 A 
HETATM    3  C19   D T9000      -0.365  -3.560  16.991  1.00 24.76     0.173 A 
HETATM    4  N22   D T9000       0.484  -4.573  17.484  1.00 21.31    -0.078 NA
HETATM    5  N23   D T9000       0.177  -2.683  16.108  1.00 23.34    -0.228 NA
HETATM    6  C5    D T9000      -0.614  -1.688  15.615  1.00 25.82     0.100 A 
HETATM    7  C14   D T9000      -1.987  -1.519  15.976  1.00 24.84     0.024 A 
ENDROOT
BRANCH   1   8
HETATM    8  O27   D T9000      -2.153  -4.461  18.379  1.00 27.54    -0.326 OA
BRANCH   8   9
HETATM    9  C21   D T9000      -3.144  -5.523  18.135  1.00 30.12     0.145 C 
HETATM   10  C1    D T9000      -4.486  -4.805  17.927  1.00 31.63     0.038 C 
BRANCH   9  11
HETATM   11  C17   D T9000      -3.268  -6.588  19.282  1.00 31.84     0.029 A 
HETATM   12  C13   D T9000      -3.157  -8.003  18.965  1.00 30.66     0.057 A 
HETATM   13 CL     D T9000      -2.879  -8.601  17.356  1.00 30.46    -0.083 Cl
HETATM   14  C3    D T9000      -3.274  -8.979  19.996  1.00 30.46     0.013 A 
HETATM   15  C2    D T9000      -3.502  -8.597  21.343  1.00 31.74     0.031 A 
HETATM   16  C12   D T9000      -3.618  -7.227  21.695  1.00 32.80     0.150 A 
HETATM   17  F     D T9000      -3.836  -6.905  22.982  1.00 32.49    -0.203 F 
HETATM   18  C18   D T9000      -3.503  -6.210  20.685  1.00 33.48     0.084 A 
HETATM   19 CL2    D T9000      -3.656  -4.548  21.215  1.00 45.60    -0.080 Cl
ENDBRANCH   9  11
ENDBRANCH   8   9
ENDBRANCH   1   8
BRANCH   7  20
HETATM   20  C16   D T9000      -2.843  -0.399  15.412  1.00 28.58     0.041 A 
HETATM   21  C6    D T9000      -4.288  -0.207  15.571  1.00 32.07     0.122 A 
HETATM   22  N24   D T9000      -4.638   0.863  14.945  1.00 34.71    -0.168 NA
HETATM   23  N26   D T9000      -3.605   1.402  14.392  1.00 35.30    -0.252 N 
HETATM   24  C7    D T9000      -2.425   0.671  14.632  1.00 31.45     0.097 A 
BRANCH  23  25
HETATM   25  C20   D T9000      -3.695   2.652  13.601  1.00 38.85     0.110 C 
HETATM   26  C8    D T9000      -4.412   2.388  12.261  1.00 41.27     0.063 C 
HETATM   27  C10   D T9000      -4.494   3.705  11.454  1.00 43.11     0.292 C 
HETATM   28  N25   D T9000      -3.154   4.327  11.250  1.00 43.93     0.339 N 
HETATM   29  C11   D T9000      -2.421   4.551  12.529  1.00 43.41     0.292 C 
HETATM   30  C9    D T9000      -2.289   3.253  13.358  1.00 42.01     0.063 C 
ENDBRANCH  23  25
ENDBRANCH   7  20
TORSDOF 5
ENDMDL
MODEL 8
REMARK VINA RESULT:    -7.412      6.236     11.005
REMARK INTER + INTRA:         -10.441
REMARK INTER:                  -9.607
REMARK INTRA:                  -0.834
REMARK UNBOUND:                -0.863
REMARK  5 active torsions:
REMARK  status: ('A' for Active; 'I' for Inactive)
REMARK    1  A    between atoms: C17_7  and  C21_10 
REMARK    2  A    between atoms: C21_10  and  O27_12 
REMARK    3  A    between atoms: O27_12  and  C15_13 
REMARK    4  A    between atoms: C14_19  and  C16_20 
REMARK    5  A    between atoms: N26_23  and  C20_25 
ROOT
HETATM    1  C15   D T9000       1.562   4.043  11.359  1.00 25.10     0.125 A 
HETATM    2  C4    D T9000       2.317   5.006  10.606  1.00 25.13     0.029 A 
HETATM    3  C19   D T9000       1.937   2.671  11.178  1.00 24.76     0.173 A 
HETATM    4  N22   D T9000       1.241   1.673  11.891  1.00 21.31    -0.078 NA
HETATM    5  N23   D T9000       2.935   2.255  10.358  1.00 23.34    -0.228 NA
HETATM    6  C5    D T9000       3.632   3.194   9.657  1.00 25.82     0.100 A 
HETATM    7  C14   D T9000       3.367   4.597   9.737  1.00 24.84     0.024 A 
ENDROOT
BRANCH   1   8
HETATM    8  O27   D T9000       0.530   4.344  12.255  1.00 27.54    -0.326 OA
BRANCH   8   9
HETATM    9  C21   D T9000      -0.725   5.040  11.924  1.00 30.12     0.145 C 
HETATM   10  C1    D T9000      -0.753   6.296  12.810  1.00 31.63     0.038 C 
BRANCH   9  11
HETATM   11  C17   D T9000      -2.029   4.193  12.138  1.00 31.84     0.029 A 
HETATM   12  C13   D T9000      -3.150   4.357  11.225  1.00 30.66     0.057 A 
HETATM   13 CL     D T9000      -3.129   5.452   9.876  1.00 30.46    -0.083 Cl
HETATM   14  C3    D T9000      -4.341   3.598  11.413  1.00 30.46     0.013 A 
HETATM   15  C2    D T9000      -4.462   2.677  12.484  1.00 31.74     0.031 A 
HETATM   16  C12   D T9000      -3.392   2.488  13.398  1.00 32.80     0.150 A 
HETATM   17  F     D T9000      -3.545   1.607  14.402  1.00 32.49    -0.203 F 
HETATM   18  C18   D T9000      -2.171   3.231  13.243  1.00 33.48     0.084 A 
HETATM   19 CL2    D T9000      -0.906   2.929  14.415  1.00 45.60    -0.080 Cl
ENDBRANCH   9  11
ENDBRANCH   8   9
ENDBRANCH   1   8
BRANCH   7  20
HETATM   20  C16   D T9000       4.162   5.620   8.946  1.00 28.58     0.041 A 
HETATM   21  C6    D T9000       5.347   6.366   9.379  1.00 32.07     0.122 A 
HETATM   22  N24   D T9000       5.731   7.134   8.418  1.00 34.71    -0.168 NA
HETATM   23  N26   D T9000       4.947   6.988   7.405  1.00 35.30    -0.252 N 
HETATM   24  C7    D T9000       3.923   6.052   7.647  1.00 31.45     0.097 A 
BRANCH  23  25
HETATM   25  C20   D T9000       5.140   7.743   6.144  1.00 38.85     0.110 C 
HETATM   26  C8    D T9000       6.539   7.461   5.558  1.00 41.27     0.063 C 
HETATM   27  C10   D T9000       6.716   8.257   4.244  1.00 43.11     0.292 C 
HETATM   28  N25   D T9000       6.483   9.718   4.434  1.00 43.93     0.339 N 
HETATM   29  C11   D T9000       5.154  10.015   5.042  1.00 43.41     0.292 C 
HETATM   30  C9    D T9000       4.943   9.262   6.374  1.00 42.01     0.063 C 
ENDBRANCH  23  25
ENDBRANCH   7  20
TORSDOF 5
ENDMDL
MODEL 9
REMARK VINA RESULT:    -7.300      5.361     10.963
REMARK INTER + INTRA:         -10.296
REMARK INTER:                  -9.614
REMARK INTRA:                  -0.683
REMARK UNBOUND:                -0.863
REMARK  5 active torsions:
REMARK  status: ('A' for Active; 'I' for Inactive)
REMARK    1  A    between atoms: C17_7  and  C21_10 
REMARK    2  A    between atoms: C21_10  and  O27_12 
REMARK    3  A    between atoms: O27_12  and  C15_13 
REMARK    4  A    between atoms: C14_19  and  C16_20 
REMARK    5  A    between atoms: N26_23  and  C20_25 
ROOT
HETATM    1  C15   D T9000      -1.702  -3.741  17.666  1.00 25.10     0.125 A 
HETATM    2  C4    D T9000      -2.215  -2.548  17.053  1.00 25.13     0.029 A 
HETATM    3  C19   D T9000      -0.361  -4.102  17.310  1.00 24.76     0.173 A 
HETATM    4  N22   D T9000       0.209  -5.259  17.879  1.00 21.31    -0.078 NA
HETATM    5  N23   D T9000       0.418  -3.394  16.452  1.00 23.34    -0.228 NA
HETATM    6  C5    D T9000      -0.100  -2.267  15.887  1.00 25.82     0.100 A 
HETATM    7  C14   D T9000      -1.422  -1.788  16.148  1.00 24.84     0.024 A 
ENDROOT
BRANCH   1   8
HETATM    8  O27   D T9000      -2.391  -4.543  18.583  1.00 27.54    -0.326 OA
BRANCH   8   9
HETATM    9  C21   D T9000      -3.314  -5.640  18.247  1.00 30.12     0.145 C 
HETATM   10  C1    D T9000      -4.711  -5.003  18.167  1.00 31.63     0.038 C 
BRANCH   9  11
HETATM   11  C17   D T9000      -3.318  -6.836  19.264  1.00 31.84     0.029 A 
HETATM   12  C13   D T9000      -3.500  -6.571  20.683  1.00 30.66     0.057 A 
HETATM   13 CL     D T9000      -3.727  -4.976  21.335  1.00 30.46    -0.083 Cl
HETATM   14  C3    D T9000      -3.499  -7.648  21.616  1.00 30.46     0.013 A 
HETATM   15  C2    D T9000      -3.320  -8.988  21.189  1.00 31.74     0.031 A 
HETATM   16  C12   D T9000      -3.139  -9.289  19.814  1.00 32.80     0.150 A 
HETATM   17  F     D T9000      -2.971 -10.572  19.448  1.00 32.49    -0.203 F 
HETATM   18  C18   D T9000      -3.136  -8.233  18.838  1.00 33.48     0.084 A 
HETATM   19 CL2    D T9000      -2.909  -8.701  17.166  1.00 45.60    -0.080 Cl
ENDBRANCH   9  11
ENDBRANCH   8   9
ENDBRANCH   1   8
BRANCH   7  20
HETATM   20  C16   D T9000      -1.971  -0.527  15.505  1.00 28.58     0.041 A 
HETATM   21  C6    D T9000      -3.363  -0.232  15.152  1.00 32.07     0.122 A 
HETATM   22  N24   D T9000      -3.421   0.944  14.630  1.00 34.71    -0.168 NA
HETATM   23  N26   D T9000      -2.241   1.463  14.595  1.00 35.30    -0.252 N 
HETATM   24  C7    D T9000      -1.259   0.604  15.125  1.00 31.45     0.097 A 
BRANCH  23  25
HETATM   25  C20   D T9000      -1.992   2.819  14.048  1.00 38.85     0.110 C 
HETATM   26  C8    D T9000      -3.126   3.226  13.085  1.00 41.27     0.063 C 
HETATM   27  C10   D T9000      -2.844   4.640  12.528  1.00 43.11     0.292 C 
HETATM   28  N25   D T9000      -1.506   4.735  11.875  1.00 43.93     0.339 N 
HETATM   29  C11   D T9000      -0.396   4.303  12.772  1.00 43.41     0.292 C 
HETATM   30  C9    D T9000      -0.621   2.880  13.331  1.00 42.01     0.063 C 
ENDBRANCH  23  25
ENDBRANCH   7  20
TORSDOF 5
ENDMDL
