MODEL 1
REMARK VINA RESULT:    -7.762      0.000      0.000
REMARK INTER + INTRA:         -10.810
REMARK INTER:                 -10.031
REMARK INTRA:                  -0.779
REMARK UNBOUND:                -0.779
REMARK  5 active torsions:
REMARK  status: ('A' for Active; 'I' for Inactive)
REMARK    1  A    between atoms: C17_7  and  C21_10 
REMARK    2  A    between atoms: C21_10  and  O27_12 
REMARK    3  A    between atoms: O27_12  and  C15_13 
REMARK    4  A    between atoms: C14_19  and  C16_20 
REMARK    5  A    between atoms: N26_23  and  C20_25 
ROOT
HETATM    1  C15   D T9000      -4.623  -5.299  -6.356  1.00 25.10     0.125 A 
HETATM    2  C4    D T9000      -5.419  -4.169  -6.751  1.00 25.13     0.029 A 
HETATM    3  C19   D T9000      -3.480  -5.008  -5.543  1.00 24.76     0.173 A 
HETATM    4  N22   D T9000      -2.657  -6.070  -5.114  1.00 21.31    -0.078 NA
HETATM    5  N23   D T9000      -3.126  -3.760  -5.140  1.00 23.34    -0.228 NA
HETATM    6  C5    D T9000      -3.902  -2.710  -5.532  1.00 25.82     0.100 A 
HETATM    7  C14   D T9000      -5.070  -2.850  -6.346  1.00 24.84     0.024 A 
ENDROOT
BRANCH   1   8
HETATM    8  O27   D T9000      -4.893  -6.632  -6.683  1.00 27.54    -0.326 OA
BRANCH   8   9
HETATM    9  C21   D T9000      -6.208  -7.289  -6.612  1.00 30.12     0.145 C 
HETATM   10  C1    D T9000      -6.504  -7.476  -5.115  1.00 31.63     0.038 C 
BRANCH   9  11
HETATM   11  C17   D T9000      -6.301  -8.666  -7.360  1.00 31.84     0.029 A 
HETATM   12  C13   D T9000      -7.560  -9.073  -7.966  1.00 30.66     0.057 A 
HETATM   13 CL     D T9000      -9.000  -8.098  -7.915  1.00 30.46    -0.083 Cl
HETATM   14  C3    D T9000      -7.659 -10.322  -8.642  1.00 30.46     0.013 A 
HETATM   15  C2    D T9000      -6.544 -11.191  -8.740  1.00 31.74     0.031 A 
HETATM   16  C12   D T9000      -5.296 -10.834  -8.164  1.00 32.80     0.150 A 
HETATM   17  F     D T9000      -4.263 -11.687  -8.276  1.00 32.49    -0.203 F 
HETATM   18  C18   D T9000      -5.154  -9.581  -7.474  1.00 33.48     0.084 A 
HETATM   19 CL2    D T9000      -3.577  -9.225  -6.799  1.00 45.60    -0.080 Cl
ENDBRANCH   9  11
ENDBRANCH   8   9
ENDBRANCH   1   8
BRANCH   7  20
HETATM   20  C16   D T9000      -5.916  -1.661  -6.763  1.00 28.58     0.041 A 
HETATM   21  C6    D T9000      -5.864  -0.922  -8.029  1.00 32.07     0.122 A 
HETATM   22  N24   D T9000      -6.745   0.017  -8.000  1.00 34.71    -0.168 NA
HETATM   23  N26   D T9000      -7.373  -0.009  -6.873  1.00 35.30    -0.252 N 
HETATM   24  C7    D T9000      -6.914  -1.036  -6.027  1.00 31.45     0.097 A 
BRANCH  23  25
HETATM   25  C20   D T9000      -8.450   0.956  -6.550  1.00 38.85     0.110 C 
HETATM   26  C8    D T9000      -9.678   0.713  -7.451  1.00 41.27     0.063 C 
HETATM   27  C10   D T9000     -10.787   1.731  -7.096  1.00 43.11     0.292 C 
HETATM   28  N25   D T9000     -10.308   3.141  -7.185  1.00 43.93     0.339 N 
HETATM   29  C11   D T9000      -9.093   3.392  -6.357  1.00 43.41     0.292 C 
HETATM   30  C9    D T9000      -7.946   2.414  -6.699  1.00 42.01     0.063 C 
ENDBRANCH  23  25
ENDBRANCH   7  20
TORSDOF 5
ENDMDL
MODEL 2
REMARK VINA RESULT:    -7.706      1.222      2.242
REMARK INTER + INTRA:         -10.737
REMARK INTER:                 -10.300
REMARK INTRA:                  -0.437
REMARK UNBOUND:                -0.779
REMARK  5 active torsions:
REMARK  status: ('A' for Active; 'I' for Inactive)
REMARK    1  A    between atoms: C17_7  and  C21_10 
REMARK    2  A    between atoms: C21_10  and  O27_12 
REMARK    3  A    between atoms: O27_12  and  C15_13 
REMARK    4  A    between atoms: C14_19  and  C16_20 
REMARK    5  A    between atoms: N26_23  and  C20_25 
ROOT
HETATM    1  C15   D T9000      -4.344  -5.995  -6.259  1.00 25.10     0.125 A 
HETATM    2  C4    D T9000      -5.103  -4.857  -6.701  1.00 25.13     0.029 A 
HETATM    3  C19   D T9000      -3.152  -5.706  -5.518  1.00 24.76     0.173 A 
HETATM    4  N22   D T9000      -2.362  -6.775  -5.047  1.00 21.31    -0.078 NA
HETATM    5  N23   D T9000      -2.722  -4.451  -5.222  1.00 23.34    -0.228 NA
HETATM    6  C5    D T9000      -3.464  -3.394  -5.657  1.00 25.82     0.100 A 
HETATM    7  C14   D T9000      -4.673  -3.532  -6.408  1.00 24.84     0.024 A 
ENDROOT
BRANCH   1   8
HETATM    8  O27   D T9000      -4.692  -7.333  -6.475  1.00 27.54    -0.326 OA
BRANCH   8   9
HETATM    9  C21   D T9000      -6.051  -7.844  -6.716  1.00 30.12     0.145 C 
HETATM   10  C1    D T9000      -6.684  -8.024  -5.327  1.00 31.63     0.038 C 
BRANCH   9  11
HETATM   11  C17   D T9000      -6.119  -9.189  -7.523  1.00 31.84     0.029 A 
HETATM   12  C13   D T9000      -4.921 -10.003  -7.667  1.00 30.66     0.057 A 
HETATM   13 CL     D T9000      -3.384  -9.568  -6.977  1.00 30.46    -0.083 Cl
HETATM   14  C3    D T9000      -4.968 -11.222  -8.401  1.00 30.46     0.013 A 
HETATM   15  C2    D T9000      -6.171 -11.667  -9.004  1.00 31.74     0.031 A 
HETATM   16  C12   D T9000      -7.364 -10.904  -8.888  1.00 32.80     0.150 A 
HETATM   17  F     D T9000      -8.483 -11.359  -9.476  1.00 32.49    -0.203 F 
HETATM   18  C18   D T9000      -7.359  -9.668  -8.154  1.00 33.48     0.084 A 
HETATM   19 CL2    D T9000      -8.876  -8.798  -8.062  1.00 45.60    -0.080 Cl
ENDBRANCH   9  11
ENDBRANCH   8   9
ENDBRANCH   1   8
BRANCH   7  20
HETATM   20  C16   D T9000      -5.480  -2.335  -6.876  1.00 28.58     0.041 A 
HETATM   21  C6    D T9000      -5.085  -1.309  -7.848  1.00 32.07     0.122 A 
HETATM   22  N24   D T9000      -6.048  -0.464  -7.977  1.00 34.71    -0.168 NA
HETATM   23  N26   D T9000      -7.031  -0.802  -7.211  1.00 35.30    -0.252 N 
HETATM   24  C7    D T9000      -6.759  -1.972  -6.476  1.00 31.45     0.097 A 
BRANCH  23  25
HETATM   25  C20   D T9000      -8.285  -0.016  -7.146  1.00 38.85     0.110 C 
HETATM   26  C8    D T9000      -7.977   1.493  -7.217  1.00 41.27     0.063 C 
HETATM   27  C10   D T9000      -9.299   2.292  -7.146  1.00 43.11     0.292 C 
HETATM   28  N25   D T9000     -10.101   1.950  -5.935  1.00 43.93     0.339 N 
HETATM   29  C11   D T9000     -10.374   0.489  -5.818  1.00 43.41     0.292 C 
HETATM   30  C9    D T9000      -9.076  -0.349  -5.856  1.00 42.01     0.063 C 
ENDBRANCH  23  25
ENDBRANCH   7  20
TORSDOF 5
ENDMDL
MODEL 3
REMARK VINA RESULT:    -7.693      4.249      9.450
REMARK INTER + INTRA:         -10.721
REMARK INTER:                  -9.637
REMARK INTRA:                  -1.084
REMARK UNBOUND:                -0.779
REMARK  5 active torsions:
REMARK  status: ('A' for Active; 'I' for Inactive)
REMARK    1  A    between atoms: C17_7  and  C21_10 
REMARK    2  A    between atoms: C21_10  and  O27_12 
REMARK    3  A    between atoms: O27_12  and  C15_13 
REMARK    4  A    between atoms: C14_19  and  C16_20 
REMARK    5  A    between atoms: N26_23  and  C20_25 
ROOT
HETATM    1  C15   D T9000      -9.123  -2.999  -8.025  1.00 25.10     0.125 A 
HETATM    2  C4    D T9000      -8.291  -4.141  -7.767  1.00 25.13     0.029 A 
HETATM    3  C19   D T9000     -10.484  -3.279  -8.373  1.00 24.76     0.173 A 
HETATM    4  N22   D T9000     -11.359  -2.203  -8.634  1.00 21.31    -0.078 NA
HETATM    5  N23   D T9000     -11.008  -4.529  -8.465  1.00 23.34    -0.228 NA
HETATM    6  C5    D T9000     -10.192  -5.592  -8.214  1.00 25.82     0.100 A 
HETATM    7  C14   D T9000      -8.812  -5.463  -7.859  1.00 24.84     0.024 A 
ENDROOT
BRANCH   1   8
HETATM    8  O27   D T9000      -8.713  -1.663  -7.940  1.00 27.54    -0.326 OA
BRANCH   8   9
HETATM    9  C21   D T9000      -8.265  -0.974  -6.719  1.00 30.12     0.145 C 
HETATM   10  C1    D T9000      -8.417   0.529  -7.006  1.00 31.63     0.038 C 
BRANCH   9  11
HETATM   11  C17   D T9000      -6.793  -1.297  -6.279  1.00 31.84     0.029 A 
HETATM   12  C13   D T9000      -6.536  -1.786  -4.933  1.00 30.66     0.057 A 
HETATM   13 CL     D T9000      -7.791  -2.047  -3.757  1.00 30.46    -0.083 Cl
HETATM   14  C3    D T9000      -5.205  -2.077  -4.519  1.00 30.46     0.013 A 
HETATM   15  C2    D T9000      -4.109  -1.897  -5.401  1.00 31.74     0.031 A 
HETATM   16  C12   D T9000      -4.315  -1.422  -6.723  1.00 32.80     0.150 A 
HETATM   17  F     D T9000      -3.250  -1.263  -7.527  1.00 32.49    -0.203 F 
HETATM   18  C18   D T9000      -5.643  -1.118  -7.180  1.00 33.48     0.084 A 
HETATM   19 CL2    D T9000      -5.800  -0.542  -8.826  1.00 45.60    -0.080 Cl
ENDBRANCH   9  11
ENDBRANCH   8   9
ENDBRANCH   1   8
BRANCH   7  20
HETATM   20  C16   D T9000      -7.929  -6.666  -7.582  1.00 28.58     0.041 A 
HETATM   21  C6    D T9000      -6.757  -6.737  -6.702  1.00 32.07     0.122 A 
HETATM   22  N24   D T9000      -6.284  -7.933  -6.734  1.00 34.71    -0.168 NA
HETATM   23  N26   D T9000      -6.996  -8.664  -7.525  1.00 35.30    -0.252 N 
HETATM   24  C7    D T9000      -8.057  -7.945  -8.108  1.00 31.45     0.097 A 
BRANCH  23  25
HETATM   25  C20   D T9000      -6.692 -10.094  -7.763  1.00 38.85     0.110 C 
HETATM   26  C8    D T9000      -7.035 -10.931  -6.514  1.00 41.27     0.063 C 
HETATM   27  C10   D T9000      -6.709 -12.418  -6.787  1.00 43.11     0.292 C 
HETATM   28  N25   D T9000      -5.292 -12.617  -7.212  1.00 43.93     0.339 N 
HETATM   29  C11   D T9000      -4.922 -11.783  -8.391  1.00 43.41     0.292 C 
HETATM   30  C9    D T9000      -5.204 -10.283  -8.154  1.00 42.01     0.063 C 
ENDBRANCH  23  25
ENDBRANCH   7  20
TORSDOF 5
ENDMDL
MODEL 4
REMARK VINA RESULT:    -7.650      3.928      8.456
REMARK INTER + INTRA:         -10.665
REMARK INTER:                  -9.618
REMARK INTRA:                  -1.047
REMARK UNBOUND:                -0.779
REMARK  5 active torsions:
REMARK  status: ('A' for Active; 'I' for Inactive)
REMARK    1  A    between atoms: C17_7  and  C21_10 
REMARK    2  A    between atoms: C21_10  and  O27_12 
REMARK    3  A    between atoms: O27_12  and  C15_13 
REMARK    4  A    between atoms: C14_19  and  C16_20 
REMARK    5  A    between atoms: N26_23  and  C20_25 
ROOT
HETATM    1  C15   D T9000      -5.774  -2.024  -5.708  1.00 25.10     0.125 A 
HETATM    2  C4    D T9000      -5.894  -3.432  -5.967  1.00 25.13     0.029 A 
HETATM    3  C19   D T9000      -4.452  -1.548  -5.424  1.00 24.76     0.173 A 
HETATM    4  N22   D T9000      -4.260  -0.175  -5.166  1.00 21.31    -0.078 NA
HETATM    5  N23   D T9000      -3.347  -2.336  -5.391  1.00 23.34    -0.228 NA
HETATM    6  C5    D T9000      -3.495  -3.668  -5.641  1.00 25.82     0.100 A 
HETATM    7  C14   D T9000      -4.752  -4.283  -5.936  1.00 24.84     0.024 A 
ENDROOT
BRANCH   1   8
HETATM    8  O27   D T9000      -6.827  -1.103  -5.735  1.00 27.54    -0.326 OA
BRANCH   8   9
HETATM    9  C21   D T9000      -7.516  -0.616  -6.941  1.00 30.12     0.145 C 
HETATM   10  C1    D T9000      -7.734   0.890  -6.720  1.00 31.63     0.038 C 
BRANCH   9  11
HETATM   11  C17   D T9000      -8.883  -1.322  -7.253  1.00 31.84     0.029 A 
HETATM   12  C13   D T9000      -9.295  -1.512  -8.636  1.00 30.66     0.057 A 
HETATM   13 CL     D T9000      -8.339  -0.997  -9.995  1.00 30.46    -0.083 Cl
HETATM   14  C3    D T9000     -10.535  -2.146  -8.932  1.00 30.46     0.013 A 
HETATM   15  C2    D T9000     -11.390  -2.602  -7.898  1.00 31.74     0.031 A 
HETATM   16  C12   D T9000     -11.027  -2.437  -6.535  1.00 32.80     0.150 A 
HETATM   17  F     D T9000     -11.865  -2.881  -5.583  1.00 32.49    -0.203 F 
HETATM   18  C18   D T9000      -9.783  -1.804  -6.193  1.00 33.48     0.084 A 
HETATM   19 CL2    D T9000      -9.418  -1.648  -4.487  1.00 45.60    -0.080 Cl
ENDBRANCH   9  11
ENDBRANCH   8   9
ENDBRANCH   1   8
BRANCH   7  20
HETATM   20  C16   D T9000      -4.886  -5.769  -6.214  1.00 28.58     0.041 A 
HETATM   21  C6    D T9000      -3.825  -6.783  -6.206  1.00 32.07     0.122 A 
HETATM   22  N24   D T9000      -4.342  -7.928  -6.486  1.00 34.71    -0.168 NA
HETATM   23  N26   D T9000      -5.611  -7.799  -6.680  1.00 35.30    -0.252 N 
HETATM   24  C7    D T9000      -6.043  -6.467  -6.531  1.00 31.45     0.097 A 
BRANCH  23  25
HETATM   25  C20   D T9000      -6.477  -8.951  -7.020  1.00 38.85     0.110 C 
HETATM   26  C8    D T9000      -5.688  -9.994  -7.837  1.00 41.27     0.063 C 
HETATM   27  C10   D T9000      -6.612 -11.185  -8.181  1.00 43.11     0.292 C 
HETATM   28  N25   D T9000      -7.852 -10.753  -8.890  1.00 43.93     0.339 N 
HETATM   29  C11   D T9000      -8.611  -9.710  -8.141  1.00 43.41     0.292 C 
HETATM   30  C9    D T9000      -7.733  -8.485  -7.800  1.00 42.01     0.063 C 
ENDBRANCH  23  25
ENDBRANCH   7  20
TORSDOF 5
ENDMDL
MODEL 5
REMARK VINA RESULT:    -7.567      4.140      8.778
REMARK INTER + INTRA:         -10.558
REMARK INTER:                  -9.397
REMARK INTRA:                  -1.160
REMARK UNBOUND:                -0.779
REMARK  5 active torsions:
REMARK  status: ('A' for Active; 'I' for Inactive)
REMARK    1  A    between atoms: C17_7  and  C21_10 
REMARK    2  A    between atoms: C21_10  and  O27_12 
REMARK    3  A    between atoms: O27_12  and  C15_13 
REMARK    4  A    between atoms: C14_19  and  C16_20 
REMARK    5  A    between atoms: N26_23  and  C20_25 
ROOT
HETATM    1  C15   D T9000      -4.217  -4.250  -6.423  1.00 25.10     0.125 A 
HETATM    2  C4    D T9000      -4.679  -5.544  -6.843  1.00 25.13     0.029 A 
HETATM    3  C19   D T9000      -3.234  -4.242  -5.380  1.00 24.76     0.173 A 
HETATM    4  N22   D T9000      -2.732  -3.006  -4.923  1.00 21.31    -0.078 NA
HETATM    5  N23   D T9000      -2.734  -5.360  -4.793  1.00 23.34    -0.228 NA
HETATM    6  C5    D T9000      -3.193  -6.572  -5.214  1.00 25.82     0.100 A 
HETATM    7  C14   D T9000      -4.175  -6.733  -6.242  1.00 24.84     0.024 A 
ENDROOT
BRANCH   1   8
HETATM    8  O27   D T9000      -4.632  -3.028  -6.963  1.00 27.54    -0.326 OA
BRANCH   8   9
HETATM    9  C21   D T9000      -5.984  -2.717  -7.456  1.00 30.12     0.145 C 
HETATM   10  C1    D T9000      -5.993  -1.204  -7.728  1.00 31.63     0.038 C 
BRANCH   9  11
HETATM   11  C17   D T9000      -7.150  -3.100  -6.477  1.00 31.84     0.029 A 
HETATM   12  C13   D T9000      -8.255  -3.914  -6.959  1.00 30.66     0.057 A 
HETATM   13 CL     D T9000      -8.361  -4.508  -8.591  1.00 30.46    -0.083 Cl
HETATM   14  C3    D T9000      -9.322  -4.263  -6.083  1.00 30.46     0.013 A 
HETATM   15  C2    D T9000      -9.333  -3.829  -4.733  1.00 31.74     0.031 A 
HETATM   16  C12   D T9000      -8.274  -3.033  -4.222  1.00 32.80     0.150 A 
HETATM   17  F     D T9000      -8.322  -2.639  -2.937  1.00 32.49    -0.203 F 
HETATM   18  C18   D T9000      -7.177  -2.660  -5.073  1.00 33.48     0.084 A 
HETATM   19 CL2    D T9000      -5.916  -1.681  -4.354  1.00 45.60    -0.080 Cl
ENDBRANCH   9  11
ENDBRANCH   8   9
ENDBRANCH   1   8
BRANCH   7  20
HETATM   20  C16   D T9000      -4.664  -8.097  -6.693  1.00 28.58     0.041 A 
HETATM   21  C6    D T9000      -3.864  -9.213  -7.210  1.00 32.07     0.122 A 
HETATM   22  N24   D T9000      -4.648 -10.198  -7.478  1.00 34.71    -0.168 NA
HETATM   23  N26   D T9000      -5.867  -9.874  -7.202  1.00 35.30    -0.252 N 
HETATM   24  C7    D T9000      -5.972  -8.563  -6.702  1.00 31.45     0.097 A 
BRANCH  23  25
HETATM   25  C20   D T9000      -6.996 -10.811  -7.406  1.00 38.85     0.110 C 
HETATM   26  C8    D T9000      -6.891 -12.000  -6.429  1.00 41.27     0.063 C 
HETATM   27  C10   D T9000      -8.079 -12.963  -6.661  1.00 43.11     0.292 C 
HETATM   28  N25   D T9000      -8.166 -13.421  -8.079  1.00 43.93     0.339 N 
HETATM   29  C11   D T9000      -8.222 -12.289  -9.048  1.00 43.41     0.292 C 
HETATM   30  C9    D T9000      -7.037 -11.313  -8.871  1.00 42.01     0.063 C 
ENDBRANCH  23  25
ENDBRANCH   7  20
TORSDOF 5
ENDMDL
MODEL 6
REMARK VINA RESULT:    -7.384      3.627      8.531
REMARK INTER + INTRA:         -10.322
REMARK INTER:                  -9.309
REMARK INTRA:                  -1.013
REMARK UNBOUND:                -0.779
REMARK  5 active torsions:
REMARK  status: ('A' for Active; 'I' for Inactive)
REMARK    1  A    between atoms: C17_7  and  C21_10 
REMARK    2  A    between atoms: C21_10  and  O27_12 
REMARK    3  A    between atoms: O27_12  and  C15_13 
REMARK    4  A    between atoms: C14_19  and  C16_20 
REMARK    5  A    between atoms: N26_23  and  C20_25 
ROOT
HETATM    1  C15   D T9000      -4.949  -2.271  -6.802  1.00 25.10     0.125 A 
HETATM    2  C4    D T9000      -5.068  -3.692  -6.979  1.00 25.13     0.029 A 
HETATM    3  C19   D T9000      -4.063  -1.840  -5.762  1.00 24.76     0.173 A 
HETATM    4  N22   D T9000      -3.893  -0.458  -5.536  1.00 21.31    -0.078 NA
HETATM    5  N23   D T9000      -3.353  -2.681  -4.965  1.00 23.34    -0.228 NA
HETATM    6  C5    D T9000      -3.488  -4.023  -5.159  1.00 25.82     0.100 A 
HETATM    7  C14   D T9000      -4.338  -4.596  -6.156  1.00 24.84     0.024 A 
ENDROOT
BRANCH   1   8
HETATM    8  O27   D T9000      -5.604  -1.302  -7.570  1.00 27.54    -0.326 OA
BRANCH   8   9
HETATM    9  C21   D T9000      -6.943  -1.433  -8.166  1.00 30.12     0.145 C 
HETATM   10  C1    D T9000      -7.140  -0.181  -9.037  1.00 31.63     0.038 C 
BRANCH   9  11
HETATM   11  C17   D T9000      -8.118  -1.566  -7.133  1.00 31.84     0.029 A 
HETATM   12  C13   D T9000      -8.464  -0.433  -6.288  1.00 30.66     0.057 A 
HETATM   13 CL     D T9000      -7.641   1.098  -6.362  1.00 30.46    -0.083 Cl
HETATM   14  C3    D T9000      -9.524  -0.543  -5.343  1.00 30.46     0.013 A 
HETATM   15  C2    D T9000     -10.258  -1.747  -5.203  1.00 31.74     0.031 A 
HETATM   16  C12   D T9000      -9.953  -2.878  -6.007  1.00 32.80     0.150 A 
HETATM   17  F     D T9000     -10.670  -4.002  -5.842  1.00 32.49    -0.203 F 
HETATM   18  C18   D T9000      -8.892  -2.808  -6.974  1.00 33.48     0.084 A 
HETATM   19 CL2    D T9000      -8.591  -4.249  -7.922  1.00 45.60    -0.080 Cl
ENDBRANCH   9  11
ENDBRANCH   8   9
ENDBRANCH   1   8
BRANCH   7  20
HETATM   20  C16   D T9000      -4.466  -6.096  -6.351  1.00 28.58     0.041 A 
HETATM   21  C6    D T9000      -3.433  -7.119  -6.151  1.00 32.07     0.122 A 
HETATM   22  N24   D T9000      -3.935  -8.275  -6.416  1.00 34.71    -0.168 NA
HETATM   23  N26   D T9000      -5.170  -8.145  -6.766  1.00 35.30    -0.252 N 
HETATM   24  C7    D T9000      -5.591  -6.801  -6.756  1.00 31.45     0.097 A 
BRANCH  23  25
HETATM   25  C20   D T9000      -6.012  -9.308  -7.130  1.00 38.85     0.110 C 
HETATM   26  C8    D T9000      -5.225 -10.279  -8.032  1.00 41.27     0.063 C 
HETATM   27  C10   D T9000      -6.124 -11.483  -8.400  1.00 43.11     0.292 C 
HETATM   28  N25   D T9000      -7.405 -11.058  -9.035  1.00 43.93     0.339 N 
HETATM   29  C11   D T9000      -8.165 -10.082  -8.202  1.00 43.41     0.292 C 
HETATM   30  C9    D T9000      -7.314  -8.846  -7.834  1.00 42.01     0.063 C 
ENDBRANCH  23  25
ENDBRANCH   7  20
TORSDOF 5
ENDMDL
MODEL 7
REMARK VINA RESULT:    -7.334      4.197      8.695
REMARK INTER + INTRA:         -10.257
REMARK INTER:                  -9.188
REMARK INTRA:                  -1.069
REMARK UNBOUND:                -0.779
REMARK  5 active torsions:
REMARK  status: ('A' for Active; 'I' for Inactive)
REMARK    1  A    between atoms: C17_7  and  C21_10 
REMARK    2  A    between atoms: C21_10  and  O27_12 
REMARK    3  A    between atoms: O27_12  and  C15_13 
REMARK    4  A    between atoms: C14_19  and  C16_20 
REMARK    5  A    between atoms: N26_23  and  C20_25 
ROOT
HETATM    1  C15   D T9000      -5.250  -2.247  -6.745  1.00 25.10     0.125 A 
HETATM    2  C4    D T9000      -5.448  -3.660  -6.919  1.00 25.13     0.029 A 
HETATM    3  C19   D T9000      -4.248  -1.866  -5.794  1.00 24.76     0.173 A 
HETATM    4  N22   D T9000      -3.997  -0.495  -5.578  1.00 21.31    -0.078 NA
HETATM    5  N23   D T9000      -3.501  -2.745  -5.077  1.00 23.34    -0.228 NA
HETATM    6  C5    D T9000      -3.714  -4.078  -5.265  1.00 25.82     0.100 A 
HETATM    7  C14   D T9000      -4.681  -4.604  -6.178  1.00 24.84     0.024 A 
ENDROOT
BRANCH   1   8
HETATM    8  O27   D T9000      -5.934  -1.243  -7.439  1.00 27.54    -0.326 OA
BRANCH   8   9
HETATM    9  C21   D T9000      -7.227  -1.395  -8.125  1.00 30.12     0.145 C 
HETATM   10  C1    D T9000      -7.240  -0.333  -9.237  1.00 31.63     0.038 C 
BRANCH   9  11
HETATM   11  C17   D T9000      -8.488  -1.233  -7.205  1.00 31.84     0.029 A 
HETATM   12  C13   D T9000      -9.418  -2.343  -7.056  1.00 30.66     0.057 A 
HETATM   13 CL     D T9000      -9.206  -3.876  -7.850  1.00 30.46    -0.083 Cl
HETATM   14  C3    D T9000     -10.568  -2.206  -6.228  1.00 30.46     0.013 A 
HETATM   15  C2    D T9000     -10.834  -0.998  -5.537  1.00 31.74     0.031 A 
HETATM   16  C12   D T9000      -9.953   0.111  -5.654  1.00 32.80     0.150 A 
HETATM   17  F     D T9000     -10.241   1.240  -4.985  1.00 32.49    -0.203 F 
HETATM   18  C18   D T9000      -8.780   0.013  -6.478  1.00 33.48     0.084 A 
HETATM   19 CL2    D T9000      -7.751   1.429  -6.559  1.00 45.60    -0.080 Cl
ENDBRANCH   9  11
ENDBRANCH   8   9
ENDBRANCH   1   8
BRANCH   7  20
HETATM   20  C16   D T9000      -4.893  -6.095  -6.369  1.00 28.58     0.041 A 
HETATM   21  C6    D T9000      -3.878  -7.154  -6.358  1.00 32.07     0.122 A 
HETATM   22  N24   D T9000      -4.458  -8.288  -6.551  1.00 34.71    -0.168 NA
HETATM   23  N26   D T9000      -5.729  -8.110  -6.688  1.00 35.30    -0.252 N 
HETATM   24  C7    D T9000      -6.094  -6.755  -6.590  1.00 31.45     0.097 A 
BRANCH  23  25
HETATM   25  C20   D T9000      -6.661  -9.238  -6.923  1.00 38.85     0.110 C 
HETATM   26  C8    D T9000      -7.746  -8.835  -7.941  1.00 41.27     0.063 C 
HETATM   27  C10   D T9000      -8.706 -10.026  -8.168  1.00 43.11     0.292 C 
HETATM   28  N25   D T9000      -9.303 -10.522  -6.894  1.00 43.93     0.339 N 
HETATM   29  C11   D T9000      -8.274 -10.876  -5.874  1.00 43.41     0.292 C 
HETATM   30  C9    D T9000      -7.307  -9.703  -5.593  1.00 42.01     0.063 C 
ENDBRANCH  23  25
ENDBRANCH   7  20
TORSDOF 5
ENDMDL
MODEL 8
REMARK VINA RESULT:    -7.264      4.275      9.434
REMARK INTER + INTRA:         -10.167
REMARK INTER:                  -9.354
REMARK INTRA:                  -0.813
REMARK UNBOUND:                -0.779
REMARK  5 active torsions:
REMARK  status: ('A' for Active; 'I' for Inactive)
REMARK    1  A    between atoms: C17_7  and  C21_10 
REMARK    2  A    between atoms: C21_10  and  O27_12 
REMARK    3  A    between atoms: O27_12  and  C15_13 
REMARK    4  A    between atoms: C14_19  and  C16_20 
REMARK    5  A    between atoms: N26_23  and  C20_25 
ROOT
HETATM    1  C15   D T9000      -5.749  -2.882  -6.041  1.00 25.10     0.125 A 
HETATM    2  C4    D T9000      -5.714  -4.280  -6.370  1.00 25.13     0.029 A 
HETATM    3  C19   D T9000      -4.638  -2.386  -5.284  1.00 24.76     0.173 A 
HETATM    4  N22   D T9000      -4.605  -1.021  -4.931  1.00 21.31    -0.078 NA
HETATM    5  N23   D T9000      -3.588  -3.148  -4.880  1.00 23.34    -0.228 NA
HETATM    6  C5    D T9000      -3.584  -4.470  -5.209  1.00 25.82     0.100 A 
HETATM    7  C14   D T9000      -4.627  -5.102  -5.957  1.00 24.84     0.024 A 
ENDROOT
BRANCH   1   8
HETATM    8  O27   D T9000      -6.757  -1.987  -6.417  1.00 27.54    -0.326 OA
BRANCH   8   9
HETATM    9  C21   D T9000      -8.206  -2.219  -6.299  1.00 30.12     0.145 C 
HETATM   10  C1    D T9000      -8.664  -2.721  -7.679  1.00 31.63     0.038 C 
BRANCH   9  11
HETATM   11  C17   D T9000      -9.045  -0.963  -5.873  1.00 31.84     0.029 A 
HETATM   12  C13   D T9000      -9.989  -1.069  -4.770  1.00 30.66     0.057 A 
HETATM   13 CL     D T9000     -10.244  -2.537  -3.871  1.00 30.46    -0.083 Cl
HETATM   14  C3    D T9000     -10.760   0.062  -4.377  1.00 30.46     0.013 A 
HETATM   15  C2    D T9000     -10.629   1.305  -5.045  1.00 31.74     0.031 A 
HETATM   16  C12   D T9000      -9.720   1.453  -6.126  1.00 32.80     0.150 A 
HETATM   17  F     D T9000      -9.626   2.647  -6.735  1.00 32.49    -0.203 F 
HETATM   18  C18   D T9000      -8.921   0.336  -6.553  1.00 33.48     0.084 A 
HETATM   19 CL2    D T9000      -7.826   0.614  -7.891  1.00 45.60    -0.080 Cl
ENDBRANCH   9  11
ENDBRANCH   8   9
ENDBRANCH   1   8
BRANCH   7  20
HETATM   20  C16   D T9000      -4.594  -6.578  -6.311  1.00 28.58     0.041 A 
HETATM   21  C6    D T9000      -3.430  -7.472  -6.327  1.00 32.07     0.122 A 
HETATM   22  N24   D T9000      -3.815  -8.649  -6.677  1.00 34.71    -0.168 NA
HETATM   23  N26   D T9000      -5.087  -8.647  -6.894  1.00 35.30    -0.252 N 
HETATM   24  C7    D T9000      -5.663  -7.379  -6.690  1.00 31.45     0.097 A 
BRANCH  23  25
HETATM   25  C20   D T9000      -5.817  -9.866  -7.312  1.00 38.85     0.110 C 
HETATM   26  C8    D T9000      -4.936 -10.729  -8.239  1.00 41.27     0.063 C 
HETATM   27  C10   D T9000      -5.719 -11.994  -8.661  1.00 43.11     0.292 C 
HETATM   28  N25   D T9000      -7.028 -11.662  -9.298  1.00 43.93     0.339 N 
HETATM   29  C11   D T9000      -7.881 -10.790  -8.441  1.00 43.41     0.292 C 
HETATM   30  C9    D T9000      -7.148  -9.497  -8.016  1.00 42.01     0.063 C 
ENDBRANCH  23  25
ENDBRANCH   7  20
TORSDOF 5
ENDMDL
MODEL 9
REMARK VINA RESULT:    -7.020      4.174      9.193
REMARK INTER + INTRA:          -9.851
REMARK INTER:                  -9.032
REMARK INTRA:                  -0.819
REMARK UNBOUND:                -0.779
REMARK  5 active torsions:
REMARK  status: ('A' for Active; 'I' for Inactive)
REMARK    1  A    between atoms: C17_7  and  C21_10 
REMARK    2  A    between atoms: C21_10  and  O27_12 
REMARK    3  A    between atoms: O27_12  and  C15_13 
REMARK    4  A    between atoms: C14_19  and  C16_20 
REMARK    5  A    between atoms: N26_23  and  C20_25 
ROOT
HETATM    1  C15   D T9000      -5.202  -3.689  -5.984  1.00 25.10     0.125 A 
HETATM    2  C4    D T9000      -5.884  -4.887  -6.390  1.00 25.13     0.029 A 
HETATM    3  C19   D T9000      -3.869  -3.863  -5.487  1.00 24.76     0.173 A 
HETATM    4  N22   D T9000      -3.138  -2.728  -5.076  1.00 21.31    -0.078 NA
HETATM    5  N23   D T9000      -3.241  -5.063  -5.388  1.00 23.34    -0.228 NA
HETATM    6  C5    D T9000      -3.915  -6.180  -5.782  1.00 25.82     0.100 A 
HETATM    7  C14   D T9000      -5.251  -6.159  -6.295  1.00 24.84     0.024 A 
ENDROOT
BRANCH   1   8
HETATM    8  O27   D T9000      -5.726  -2.394  -6.059  1.00 27.54    -0.326 OA
BRANCH   8   9
HETATM    9  C21   D T9000      -6.666  -1.901  -7.078  1.00 30.12     0.145 C 
HETATM   10  C1    D T9000      -6.261  -0.443  -7.353  1.00 31.63     0.038 C 
BRANCH   9  11
HETATM   11  C17   D T9000      -8.181  -1.976  -6.674  1.00 31.84     0.029 A 
HETATM   12  C13   D T9000      -9.203  -1.989  -7.709  1.00 30.66     0.057 A 
HETATM   13 CL     D T9000      -8.838  -1.932  -9.409  1.00 30.46    -0.083 Cl
HETATM   14  C3    D T9000     -10.581  -2.052  -7.355  1.00 30.46     0.013 A 
HETATM   15  C2    D T9000     -10.986  -2.101  -5.997  1.00 31.74     0.031 A 
HETATM   16  C12   D T9000     -10.022  -2.090  -4.954  1.00 32.80     0.150 A 
HETATM   17  F     D T9000     -10.446  -2.136  -3.680  1.00 32.49    -0.203 F 
HETATM   18  C18   D T9000      -8.621  -2.030  -5.270  1.00 33.48     0.084 A 
HETATM   19 CL2    D T9000      -7.507  -2.025  -3.919  1.00 45.60    -0.080 Cl
ENDBRANCH   9  11
ENDBRANCH   8   9
ENDBRANCH   1   8
BRANCH   7  20
HETATM   20  C16   D T9000      -5.975  -7.420  -6.728  1.00 28.58     0.041 A 
HETATM   21  C6    D T9000      -7.381  -7.557  -7.125  1.00 32.07     0.122 A 
HETATM   22  N24   D T9000      -7.611  -8.787  -7.427  1.00 34.71    -0.168 NA
HETATM   23  N26   D T9000      -6.533  -9.481  -7.280  1.00 35.30    -0.252 N 
HETATM   24  C7    D T9000      -5.448  -8.699  -6.839  1.00 31.45     0.097 A 
BRANCH  23  25
HETATM   25  C20   D T9000      -6.489 -10.936  -7.556  1.00 38.85     0.110 C 
HETATM   26  C8    D T9000      -6.974 -11.731  -6.326  1.00 41.27     0.063 C 
HETATM   27  C10   D T9000      -6.919 -13.244  -6.638  1.00 43.11     0.292 C 
HETATM   28  N25   D T9000      -5.561 -13.682  -7.075  1.00 43.93     0.339 N 
HETATM   29  C11   D T9000      -5.048 -12.898  -8.235  1.00 43.41     0.292 C 
HETATM   30  C9    D T9000      -5.059 -11.377  -7.958  1.00 42.01     0.063 C 
ENDBRANCH  23  25
ENDBRANCH   7  20
TORSDOF 5
ENDMDL
