MODEL 1
REMARK VINA RESULT:    -8.701      0.000      0.000
REMARK INTER + INTRA:         -12.144
REMARK INTER:                 -11.245
REMARK INTRA:                  -0.900
REMARK UNBOUND:                -0.900
REMARK  5 active torsions:
REMARK  status: ('A' for Active; 'I' for Inactive)
REMARK    1  A    between atoms: C17_7  and  C21_10 
REMARK    2  A    between atoms: C21_10  and  O27_12 
REMARK    3  A    between atoms: O27_12  and  C15_13 
REMARK    4  A    between atoms: C14_19  and  C16_20 
REMARK    5  A    between atoms: N26_23  and  C20_25 
ROOT
HETATM    1  C15   D T9000     -14.780   5.733  -0.937  1.00 25.10     0.125 A 
HETATM    2  C4    D T9000     -14.327   5.010  -2.092  1.00 25.13     0.029 A 
HETATM    3  C19   D T9000     -14.037   6.914  -0.605  1.00 24.76     0.173 A 
HETATM    4  N22   D T9000     -14.432   7.678   0.514  1.00 21.31    -0.078 NA
HETATM    5  N23   D T9000     -12.966   7.364  -1.306  1.00 23.34    -0.228 NA
HETATM    6  C5    D T9000     -12.561   6.654  -2.396  1.00 25.82     0.100 A 
HETATM    7  C14   D T9000     -13.203   5.457  -2.843  1.00 24.84     0.024 A 
ENDROOT
BRANCH   1   8
HETATM    8  O27   D T9000     -15.883   5.390  -0.147  1.00 27.54    -0.326 OA
BRANCH   8   9
HETATM    9  C21   D T9000     -17.278   5.296  -0.607  1.00 30.12     0.145 C 
HETATM   10  C1    D T9000     -17.860   6.713  -0.474  1.00 31.63     0.038 C 
BRANCH   9  11
HETATM   11  C17   D T9000     -18.166   4.267   0.176  1.00 31.84     0.029 A 
HETATM   12  C13   D T9000     -18.922   3.264  -0.559  1.00 30.66     0.057 A 
HETATM   13 CL     D T9000     -18.897   3.130  -2.293  1.00 30.46    -0.083 Cl
HETATM   14  C3    D T9000     -19.737   2.327   0.140  1.00 30.46     0.013 A 
HETATM   15  C2    D T9000     -19.830   2.351   1.555  1.00 31.74     0.031 A 
HETATM   16  C12   D T9000     -19.108   3.312   2.311  1.00 32.80     0.150 A 
HETATM   17  F     D T9000     -19.224   3.303   3.650  1.00 32.49    -0.203 F 
HETATM   18  C18   D T9000     -18.273   4.274   1.643  1.00 33.48     0.084 A 
HETATM   19 CL2    D T9000     -17.420   5.417   2.658  1.00 45.60    -0.080 Cl
ENDBRANCH   9  11
ENDBRANCH   8   9
ENDBRANCH   1   8
BRANCH   7  20
HETATM   20  C16   D T9000     -12.731   4.687  -4.063  1.00 28.58     0.041 A 
HETATM   21  C6    D T9000     -13.552   4.063  -5.105  1.00 32.07     0.122 A 
HETATM   22  N24   D T9000     -12.777   3.509  -5.972  1.00 34.71    -0.168 NA
HETATM   23  N26   D T9000     -11.545   3.690  -5.633  1.00 35.30    -0.252 N 
HETATM   24  C7    D T9000     -11.420   4.423  -4.438  1.00 31.45     0.097 A 
BRANCH  23  25
HETATM   25  C20   D T9000     -10.420   3.166  -6.443  1.00 38.85     0.110 C 
HETATM   26  C8    D T9000     -10.895   1.994  -7.327  1.00 41.27     0.063 C 
HETATM   27  C10   D T9000      -9.705   1.465  -8.161  1.00 43.11     0.292 C 
HETATM   28  N25   D T9000      -8.545   1.075  -7.306  1.00 43.93     0.339 N 
HETATM   29  C11   D T9000      -8.096   2.177  -6.409  1.00 43.41     0.292 C 
HETATM   30  C9    D T9000      -9.248   2.721  -5.533  1.00 42.01     0.063 C 
ENDBRANCH  23  25
ENDBRANCH   7  20
TORSDOF 5
ENDMDL
MODEL 2
REMARK VINA RESULT:    -8.483      3.237      4.806
REMARK INTER + INTRA:         -11.863
REMARK INTER:                 -11.217
REMARK INTRA:                  -0.645
REMARK UNBOUND:                -0.900
REMARK  5 active torsions:
REMARK  status: ('A' for Active; 'I' for Inactive)
REMARK    1  A    between atoms: C17_7  and  C21_10 
REMARK    2  A    between atoms: C21_10  and  O27_12 
REMARK    3  A    between atoms: O27_12  and  C15_13 
REMARK    4  A    between atoms: C14_19  and  C16_20 
REMARK    5  A    between atoms: N26_23  and  C20_25 
ROOT
HETATM    1  C15   D T9000     -11.926   5.080  -3.670  1.00 25.10     0.125 A 
HETATM    2  C4    D T9000     -12.083   4.053  -4.662  1.00 25.13     0.029 A 
HETATM    3  C19   D T9000     -10.609   5.636  -3.546  1.00 24.76     0.173 A 
HETATM    4  N22   D T9000     -10.384   6.654  -2.596  1.00 21.31    -0.078 NA
HETATM    5  N23   D T9000      -9.545   5.252  -4.295  1.00 23.34    -0.228 NA
HETATM    6  C5    D T9000      -9.728   4.274  -5.226  1.00 25.82     0.100 A 
HETATM    7  C14   D T9000     -10.982   3.628  -5.459  1.00 24.84     0.024 A 
ENDROOT
BRANCH   1   8
HETATM    8  O27   D T9000     -12.946   5.582  -2.854  1.00 27.54    -0.326 OA
BRANCH   8   9
HETATM    9  C21   D T9000     -14.130   4.837  -2.397  1.00 30.12     0.145 C 
HETATM   10  C1    D T9000     -15.249   5.175  -3.396  1.00 31.63     0.038 C 
BRANCH   9  11
HETATM   11  C17   D T9000     -14.593   5.161  -0.933  1.00 31.84     0.029 A 
HETATM   12  C13   D T9000     -15.365   4.177  -0.190  1.00 30.66     0.057 A 
HETATM   13 CL     D T9000     -15.811   2.626  -0.837  1.00 30.46    -0.083 Cl
HETATM   14  C3    D T9000     -15.795   4.461   1.139  1.00 30.46     0.013 A 
HETATM   15  C2    D T9000     -15.486   5.697   1.760  1.00 31.74     0.031 A 
HETATM   16  C12   D T9000     -14.734   6.685   1.070  1.00 32.80     0.150 A 
HETATM   17  F     D T9000     -14.463   7.845   1.693  1.00 32.49    -0.203 F 
HETATM   18  C18   D T9000     -14.279   6.436  -0.271  1.00 33.48     0.084 A 
HETATM   19 CL2    D T9000     -13.358   7.711  -1.040  1.00 45.60    -0.080 Cl
ENDBRANCH   9  11
ENDBRANCH   8   9
ENDBRANCH   1   8
BRANCH   7  20
HETATM   20  C16   D T9000     -11.157   2.543  -6.506  1.00 28.58     0.041 A 
HETATM   21  C6    D T9000     -10.205   2.132  -7.541  1.00 32.07     0.122 A 
HETATM   22  N24   D T9000     -10.724   1.175  -8.230  1.00 34.71    -0.168 NA
HETATM   23  N26   D T9000     -11.901   0.901  -7.777  1.00 35.30    -0.252 N 
HETATM   24  C7    D T9000     -12.260   1.718  -6.688  1.00 31.45     0.097 A 
BRANCH  23  25
HETATM   25  C20   D T9000     -12.746  -0.163  -8.370  1.00 38.85     0.110 C 
HETATM   26  C8    D T9000     -13.096  -1.224  -7.307  1.00 41.27     0.063 C 
HETATM   27  C10   D T9000     -13.976  -2.321  -7.949  1.00 43.11     0.292 C 
HETATM   28  N25   D T9000     -13.332  -2.934  -9.147  1.00 43.93     0.339 N 
HETATM   29  C11   D T9000     -12.942  -1.923 -10.171  1.00 43.41     0.292 C 
HETATM   30  C9    D T9000     -12.036  -0.818  -9.580  1.00 42.01     0.063 C 
ENDBRANCH  23  25
ENDBRANCH   7  20
TORSDOF 5
ENDMDL
MODEL 3
REMARK VINA RESULT:    -8.359      1.863      2.151
REMARK INTER + INTRA:         -11.702
REMARK INTER:                 -10.905
REMARK INTRA:                  -0.797
REMARK UNBOUND:                -0.900
REMARK  5 active torsions:
REMARK  status: ('A' for Active; 'I' for Inactive)
REMARK    1  A    between atoms: C17_7  and  C21_10 
REMARK    2  A    between atoms: C21_10  and  O27_12 
REMARK    3  A    between atoms: O27_12  and  C15_13 
REMARK    4  A    between atoms: C14_19  and  C16_20 
REMARK    5  A    between atoms: N26_23  and  C20_25 
ROOT
HETATM    1  C15   D T9000     -13.722   6.672  -0.675  1.00 25.10     0.125 A 
HETATM    2  C4    D T9000     -13.351   5.743  -1.706  1.00 25.13     0.029 A 
HETATM    3  C19   D T9000     -13.189   7.998  -0.805  1.00 24.76     0.173 A 
HETATM    4  N22   D T9000     -13.517   8.965   0.168  1.00 21.31    -0.078 NA
HETATM    5  N23   D T9000     -12.382   8.400  -1.820  1.00 23.34    -0.228 NA
HETATM    6  C5    D T9000     -12.049   7.493  -2.781  1.00 25.82     0.100 A 
HETATM    7  C14   D T9000     -12.503   6.137  -2.779  1.00 24.84     0.024 A 
ENDROOT
BRANCH   1   8
HETATM    8  O27   D T9000     -14.564   6.391   0.406  1.00 27.54    -0.326 OA
BRANCH   8   9
HETATM    9  C21   D T9000     -15.978   6.784   0.523  1.00 30.12     0.145 C 
HETATM   10  C1    D T9000     -16.214   7.060   2.017  1.00 31.63     0.038 C 
BRANCH   9  11
HETATM   11  C17   D T9000     -17.006   5.723  -0.004  1.00 31.84     0.029 A 
HETATM   12  C13   D T9000     -18.295   6.163  -0.516  1.00 30.66     0.057 A 
HETATM   13 CL     D T9000     -18.774   7.834  -0.588  1.00 30.46    -0.083 Cl
HETATM   14  C3    D T9000     -19.240   5.209  -0.992  1.00 30.46     0.013 A 
HETATM   15  C2    D T9000     -18.950   3.821  -0.977  1.00 31.74     0.031 A 
HETATM   16  C12   D T9000     -17.704   3.349  -0.486  1.00 32.80     0.150 A 
HETATM   17  F     D T9000     -17.468   2.026  -0.486  1.00 32.49    -0.203 F 
HETATM   18  C18   D T9000     -16.723   4.280   0.002  1.00 33.48     0.084 A 
HETATM   19 CL2    D T9000     -15.216   3.604   0.584  1.00 45.60    -0.080 Cl
ENDBRANCH   9  11
ENDBRANCH   8   9
ENDBRANCH   1   8
BRANCH   7  20
HETATM   20  C16   D T9000     -12.118   5.148  -3.865  1.00 28.58     0.041 A 
HETATM   21  C6    D T9000     -13.000   4.255  -4.620  1.00 32.07     0.122 A 
HETATM   22  N24   D T9000     -12.292   3.575  -5.455  1.00 34.71    -0.168 NA
HETATM   23  N26   D T9000     -11.050   3.909  -5.345  1.00 35.30    -0.252 N 
HETATM   24  C7    D T9000     -10.845   4.897  -4.363  1.00 31.45     0.097 A 
BRANCH  23  25
HETATM   25  C20   D T9000      -9.992   3.295  -6.181  1.00 38.85     0.110 C 
HETATM   26  C8    D T9000     -10.573   2.137  -7.018  1.00 41.27     0.063 C 
HETATM   27  C10   D T9000      -9.452   1.513  -7.880  1.00 43.11     0.292 C 
HETATM   28  N25   D T9000      -8.288   1.069  -7.058  1.00 43.93     0.339 N 
HETATM   29  C11   D T9000      -7.736   2.160  -6.206  1.00 43.41     0.292 C 
HETATM   30  C9    D T9000      -8.818   2.797  -5.303  1.00 42.01     0.063 C 
ENDBRANCH  23  25
ENDBRANCH   7  20
TORSDOF 5
ENDMDL
MODEL 4
REMARK VINA RESULT:    -8.294      1.907      2.744
REMARK INTER + INTRA:         -11.618
REMARK INTER:                 -10.670
REMARK INTRA:                  -0.948
REMARK UNBOUND:                -0.900
REMARK  5 active torsions:
REMARK  status: ('A' for Active; 'I' for Inactive)
REMARK    1  A    between atoms: C17_7  and  C21_10 
REMARK    2  A    between atoms: C21_10  and  O27_12 
REMARK    3  A    between atoms: O27_12  and  C15_13 
REMARK    4  A    between atoms: C14_19  and  C16_20 
REMARK    5  A    between atoms: N26_23  and  C20_25 
ROOT
HETATM    1  C15   D T9000     -15.185   5.048   0.577  1.00 25.10     0.125 A 
HETATM    2  C4    D T9000     -14.770   4.294  -0.573  1.00 25.13     0.029 A 
HETATM    3  C19   D T9000     -14.740   6.410   0.627  1.00 24.76     0.173 A 
HETATM    4  N22   D T9000     -15.116   7.212   1.725  1.00 21.31    -0.078 NA
HETATM    5  N23   D T9000     -13.975   6.999  -0.327  1.00 23.34    -0.228 NA
HETATM    6  C5    D T9000     -13.599   6.256  -1.405  1.00 25.82     0.100 A 
HETATM    7  C14   D T9000     -13.964   4.885  -1.587  1.00 24.84     0.024 A 
ENDROOT
BRANCH   1   8
HETATM    8  O27   D T9000     -15.992   4.567   1.614  1.00 27.54    -0.326 OA
BRANCH   8   9
HETATM    9  C21   D T9000     -17.352   5.031   1.934  1.00 30.12     0.145 C 
HETATM   10  C1    D T9000     -17.896   4.044   2.980  1.00 31.63     0.038 C 
BRANCH   9  11
HETATM   11  C17   D T9000     -18.328   5.119   0.709  1.00 31.84     0.029 A 
HETATM   12  C13   D T9000     -19.005   6.374   0.419  1.00 30.66     0.057 A 
HETATM   13 CL     D T9000     -18.788   7.817   1.365  1.00 30.46    -0.083 Cl
HETATM   14  C3    D T9000     -19.898   6.466  -0.688  1.00 30.46     0.013 A 
HETATM   15  C2    D T9000     -20.147   5.347  -1.522  1.00 31.74     0.031 A 
HETATM   16  C12   D T9000     -19.507   4.104  -1.274  1.00 32.80     0.150 A 
HETATM   17  F     D T9000     -19.770   3.066  -2.087  1.00 32.49    -0.203 F 
HETATM   18  C18   D T9000     -18.597   3.970  -0.169  1.00 33.48     0.084 A 
HETATM   19 CL2    D T9000     -17.854   2.401   0.056  1.00 45.60    -0.080 Cl
ENDBRANCH   9  11
ENDBRANCH   8   9
ENDBRANCH   1   8
BRANCH   7  20
HETATM   20  C16   D T9000     -13.532   4.082  -2.800  1.00 28.58     0.041 A 
HETATM   21  C6    D T9000     -14.015   2.764  -3.224  1.00 32.07     0.122 A 
HETATM   22  N24   D T9000     -13.405   2.424  -4.306  1.00 34.71    -0.168 NA
HETATM   23  N26   D T9000     -12.579   3.354  -4.651  1.00 35.30    -0.252 N 
HETATM   24  C7    D T9000     -12.590   4.440  -3.756  1.00 31.45     0.097 A 
BRANCH  23  25
HETATM   25  C20   D T9000     -11.732   3.246  -5.863  1.00 38.85     0.110 C 
HETATM   26  C8    D T9000     -12.227   2.095  -6.763  1.00 41.27     0.063 C 
HETATM   27  C10   D T9000     -11.329   2.002  -8.018  1.00 43.11     0.292 C 
HETATM   28  N25   D T9000      -9.885   1.848  -7.671  1.00 43.93     0.339 N 
HETATM   29  C11   D T9000      -9.394   2.925  -6.764  1.00 43.41     0.292 C 
HETATM   30  C9    D T9000     -10.246   3.036  -5.478  1.00 42.01     0.063 C 
ENDBRANCH  23  25
ENDBRANCH   7  20
TORSDOF 5
ENDMDL
MODEL 5
REMARK VINA RESULT:    -8.239      4.327      9.429
REMARK INTER + INTRA:         -11.547
REMARK INTER:                 -11.430
REMARK INTRA:                  -0.117
REMARK UNBOUND:                -0.900
REMARK  5 active torsions:
REMARK  status: ('A' for Active; 'I' for Inactive)
REMARK    1  A    between atoms: C17_7  and  C21_10 
REMARK    2  A    between atoms: C21_10  and  O27_12 
REMARK    3  A    between atoms: O27_12  and  C15_13 
REMARK    4  A    between atoms: C14_19  and  C16_20 
REMARK    5  A    between atoms: N26_23  and  C20_25 
ROOT
HETATM    1  C15   D T9000     -12.156   5.698  -2.753  1.00 25.10     0.125 A 
HETATM    2  C4    D T9000     -13.200   5.621  -1.770  1.00 25.13     0.029 A 
HETATM    3  C19   D T9000     -11.538   6.983  -2.911  1.00 24.76     0.173 A 
HETATM    4  N22   D T9000     -10.499   7.130  -3.854  1.00 21.31    -0.078 NA
HETATM    5  N23   D T9000     -11.879   8.087  -2.199  1.00 23.34    -0.228 NA
HETATM    6  C5    D T9000     -12.874   7.979  -1.274  1.00 25.82     0.100 A 
HETATM    7  C14   D T9000     -13.582   6.764  -1.012  1.00 24.84     0.024 A 
ENDROOT
BRANCH   1   8
HETATM    8  O27   D T9000     -11.695   4.631  -3.532  1.00 27.54    -0.326 OA
BRANCH   8   9
HETATM    9  C21   D T9000     -12.444   3.960  -4.607  1.00 30.12     0.145 C 
HETATM   10  C1    D T9000     -13.341   2.925  -3.909  1.00 31.63     0.038 C 
BRANCH   9  11
HETATM   11  C17   D T9000     -11.557   3.264  -5.697  1.00 31.84     0.029 A 
HETATM   12  C13   D T9000     -12.194   2.557  -6.798  1.00 30.66     0.057 A 
HETATM   13 CL     D T9000     -13.920   2.438  -6.985  1.00 30.46    -0.083 Cl
HETATM   14  C3    D T9000     -11.400   1.916  -7.792  1.00 30.46     0.013 A 
HETATM   15  C2    D T9000      -9.984   1.950  -7.732  1.00 31.74     0.031 A 
HETATM   16  C12   D T9000      -9.322   2.630  -6.676  1.00 32.80     0.150 A 
HETATM   17  F     D T9000      -7.978   2.639  -6.653  1.00 32.49    -0.203 F 
HETATM   18  C18   D T9000     -10.087   3.291  -5.654  1.00 33.48     0.084 A 
HETATM   19 CL2    D T9000      -9.183   4.105  -4.394  1.00 45.60    -0.080 Cl
ENDBRANCH   9  11
ENDBRANCH   8   9
ENDBRANCH   1   8
BRANCH   7  20
HETATM   20  C16   D T9000     -14.685   6.673   0.027  1.00 28.58     0.041 A 
HETATM   21  C6    D T9000     -14.808   7.430   1.275  1.00 32.07     0.122 A 
HETATM   22  N24   D T9000     -15.887   7.068   1.879  1.00 34.71    -0.168 NA
HETATM   23  N26   D T9000     -16.493   6.166   1.184  1.00 35.30    -0.252 N 
HETATM   24  C7    D T9000     -15.804   5.851  -0.003  1.00 31.45     0.097 A 
BRANCH  23  25
HETATM   25  C20   D T9000     -17.769   5.555   1.626  1.00 38.85     0.110 C 
HETATM   26  C8    D T9000     -17.503   4.221   2.353  1.00 41.27     0.063 C 
HETATM   27  C10   D T9000     -18.848   3.605   2.803  1.00 43.11     0.292 C 
HETATM   28  N25   D T9000     -19.799   3.433   1.666  1.00 43.93     0.339 N 
HETATM   29  C11   D T9000     -20.038   4.700   0.918  1.00 43.41     0.292 C 
HETATM   30  C9    D T9000     -18.721   5.340   0.423  1.00 42.01     0.063 C 
ENDBRANCH  23  25
ENDBRANCH   7  20
TORSDOF 5
ENDMDL
MODEL 6
REMARK VINA RESULT:    -8.091      1.152      1.619
REMARK INTER + INTRA:         -11.355
REMARK INTER:                 -10.455
REMARK INTRA:                  -0.900
REMARK UNBOUND:                -0.900
REMARK  5 active torsions:
REMARK  status: ('A' for Active; 'I' for Inactive)
REMARK    1  A    between atoms: C17_7  and  C21_10 
REMARK    2  A    between atoms: C21_10  and  O27_12 
REMARK    3  A    between atoms: O27_12  and  C15_13 
REMARK    4  A    between atoms: C14_19  and  C16_20 
REMARK    5  A    between atoms: N26_23  and  C20_25 
ROOT
HETATM    1  C15   D T9000     -14.601   5.883  -1.001  1.00 25.10     0.125 A 
HETATM    2  C4    D T9000     -14.001   5.161  -2.089  1.00 25.13     0.029 A 
HETATM    3  C19   D T9000     -13.940   7.094  -0.612  1.00 24.76     0.173 A 
HETATM    4  N22   D T9000     -14.479   7.858   0.444  1.00 21.31    -0.078 NA
HETATM    5  N23   D T9000     -12.816   7.574  -1.203  1.00 23.34    -0.228 NA
HETATM    6  C5    D T9000     -12.272   6.865  -2.231  1.00 25.82     0.100 A 
HETATM    7  C14   D T9000     -12.819   5.639  -2.724  1.00 24.84     0.024 A 
ENDROOT
BRANCH   1   8
HETATM    8  O27   D T9000     -15.769   5.510  -0.328  1.00 27.54    -0.326 OA
BRANCH   8   9
HETATM    9  C21   D T9000     -17.118   5.441  -0.914  1.00 30.12     0.145 C 
HETATM   10  C1    D T9000     -17.821   6.745  -0.502  1.00 31.63     0.038 C 
BRANCH   9  11
HETATM   11  C17   D T9000     -17.970   4.200  -0.471  1.00 31.84     0.029 A 
HETATM   12  C13   D T9000     -18.450   3.263  -1.476  1.00 30.66     0.057 A 
HETATM   13 CL     D T9000     -18.123   3.434  -3.175  1.00 30.46    -0.083 Cl
HETATM   14  C3    D T9000     -19.229   2.135  -1.087  1.00 30.46     0.013 A 
HETATM   15  C2    D T9000     -19.554   1.903   0.273  1.00 31.74     0.031 A 
HETATM   16  C12   D T9000     -19.105   2.792   1.285  1.00 32.80     0.150 A 
HETATM   17  F     D T9000     -19.435   2.539   2.563  1.00 32.49    -0.203 F 
HETATM   18  C18   D T9000     -18.315   3.941   0.935  1.00 33.48     0.084 A 
HETATM   19 CL2    D T9000     -17.805   4.979   2.250  1.00 45.60    -0.080 Cl
ENDBRANCH   9  11
ENDBRANCH   8   9
ENDBRANCH   1   8
BRANCH   7  20
HETATM   20  C16   D T9000     -12.193   4.872  -3.873  1.00 28.58     0.041 A 
HETATM   21  C6    D T9000     -10.787   4.866  -4.289  1.00 32.07     0.122 A 
HETATM   22  N24   D T9000     -10.655   4.085  -5.305  1.00 34.71    -0.168 NA
HETATM   23  N26   D T9000     -11.799   3.573  -5.612  1.00 35.30    -0.252 N 
HETATM   24  C7    D T9000     -12.830   4.015  -4.762  1.00 31.45     0.097 A 
BRANCH  23  25
HETATM   25  C20   D T9000     -11.962   2.628  -6.743  1.00 38.85     0.110 C 
HETATM   26  C8    D T9000     -12.907   1.475  -6.347  1.00 41.27     0.063 C 
HETATM   27  C10   D T9000     -13.061   0.505  -7.541  1.00 43.11     0.292 C 
HETATM   28  N25   D T9000     -11.745  -0.004  -8.029  1.00 43.93     0.339 N 
HETATM   29  C11   D T9000     -10.797   1.093  -8.375  1.00 43.41     0.292 C 
HETATM   30  C9    D T9000     -10.590   2.075  -7.199  1.00 42.01     0.063 C 
ENDBRANCH  23  25
ENDBRANCH   7  20
TORSDOF 5
ENDMDL
MODEL 7
REMARK VINA RESULT:    -8.044      4.471      9.159
REMARK INTER + INTRA:         -11.295
REMARK INTER:                 -11.204
REMARK INTRA:                  -0.091
REMARK UNBOUND:                -0.900
REMARK  5 active torsions:
REMARK  status: ('A' for Active; 'I' for Inactive)
REMARK    1  A    between atoms: C17_7  and  C21_10 
REMARK    2  A    between atoms: C21_10  and  O27_12 
REMARK    3  A    between atoms: O27_12  and  C15_13 
REMARK    4  A    between atoms: C14_19  and  C16_20 
REMARK    5  A    between atoms: N26_23  and  C20_25 
ROOT
HETATM    1  C15   D T9000     -11.577   3.914  -5.022  1.00 25.10     0.125 A 
HETATM    2  C4    D T9000     -12.431   4.472  -4.011  1.00 25.13     0.029 A 
HETATM    3  C19   D T9000     -10.217   4.369  -5.015  1.00 24.76     0.173 A 
HETATM    4  N22   D T9000      -9.319   3.857  -5.975  1.00 21.31    -0.078 NA
HETATM    5  N23   D T9000      -9.717   5.268  -4.128  1.00 23.34    -0.228 NA
HETATM    6  C5    D T9000     -10.555   5.778  -3.182  1.00 25.82     0.100 A 
HETATM    7  C14   D T9000     -11.935   5.420  -3.072  1.00 24.84     0.024 A 
ENDROOT
BRANCH   1   8
HETATM    8  O27   D T9000     -11.961   2.964  -5.975  1.00 27.54    -0.326 OA
BRANCH   8   9
HETATM    9  C21   D T9000     -13.155   2.106  -5.904  1.00 30.12     0.145 C 
HETATM   10  C1    D T9000     -13.088   1.405  -4.537  1.00 31.63     0.038 C 
BRANCH   9  11
HETATM   11  C17   D T9000     -13.278   1.046  -7.054  1.00 31.84     0.029 A 
HETATM   12  C13   D T9000     -14.524   0.315  -7.227  1.00 30.66     0.057 A 
HETATM   13 CL     D T9000     -15.920   0.554  -6.217  1.00 30.46    -0.083 Cl
HETATM   14  C3    D T9000     -14.647  -0.655  -8.264  1.00 30.46     0.013 A 
HETATM   15  C2    D T9000     -13.568  -0.928  -9.142  1.00 31.74     0.031 A 
HETATM   16  C12   D T9000     -12.335  -0.237  -9.009  1.00 32.80     0.150 A 
HETATM   17  F     D T9000     -11.335  -0.525  -9.859  1.00 32.49    -0.203 F 
HETATM   18  C18   D T9000     -12.171   0.751  -7.976  1.00 33.48     0.084 A 
HETATM   19 CL2    D T9000     -10.617   1.553  -7.891  1.00 45.60    -0.080 Cl
ENDBRANCH   9  11
ENDBRANCH   8   9
ENDBRANCH   1   8
BRANCH   7  20
HETATM   20  C16   D T9000     -12.844   6.004  -2.006  1.00 28.58     0.041 A 
HETATM   21  C6    D T9000     -12.830   7.364  -1.459  1.00 32.07     0.122 A 
HETATM   22  N24   D T9000     -13.762   7.469  -0.575  1.00 34.71    -0.168 NA
HETATM   23  N26   D T9000     -14.390   6.346  -0.471  1.00 35.30    -0.252 N 
HETATM   24  C7    D T9000     -13.877   5.361  -1.336  1.00 31.45     0.097 A 
BRANCH  23  25
HETATM   25  C20   D T9000     -15.521   6.161   0.470  1.00 38.85     0.110 C 
HETATM   26  C8    D T9000     -15.639   4.679   0.882  1.00 41.27     0.063 C 
HETATM   27  C10   D T9000     -16.823   4.512   1.862  1.00 43.11     0.292 C 
HETATM   28  N25   D T9000     -18.103   5.030   1.295  1.00 43.93     0.339 N 
HETATM   29  C11   D T9000     -18.001   6.448   0.847  1.00 43.41     0.292 C 
HETATM   30  C9    D T9000     -16.846   6.659  -0.158  1.00 42.01     0.063 C 
ENDBRANCH  23  25
ENDBRANCH   7  20
TORSDOF 5
ENDMDL
MODEL 8
REMARK VINA RESULT:    -8.011      2.326      2.902
REMARK INTER + INTRA:         -11.253
REMARK INTER:                 -10.371
REMARK INTRA:                  -0.881
REMARK UNBOUND:                -0.900
REMARK  5 active torsions:
REMARK  status: ('A' for Active; 'I' for Inactive)
REMARK    1  A    between atoms: C17_7  and  C21_10 
REMARK    2  A    between atoms: C21_10  and  O27_12 
REMARK    3  A    between atoms: O27_12  and  C15_13 
REMARK    4  A    between atoms: C14_19  and  C16_20 
REMARK    5  A    between atoms: N26_23  and  C20_25 
ROOT
HETATM    1  C15   D T9000     -14.359   4.064  -1.754  1.00 25.10     0.125 A 
HETATM    2  C4    D T9000     -14.128   3.305  -2.951  1.00 25.13     0.029 A 
HETATM    3  C19   D T9000     -13.473   5.170  -1.532  1.00 24.76     0.173 A 
HETATM    4  N22   D T9000     -13.647   5.965  -0.379  1.00 21.31    -0.078 NA
HETATM    5  N23   D T9000     -12.464   5.520  -2.369  1.00 23.34    -0.228 NA
HETATM    6  C5    D T9000     -12.271   4.777  -3.496  1.00 25.82     0.100 A 
HETATM    7  C14   D T9000     -13.074   3.646  -3.845  1.00 24.84     0.024 A 
ENDROOT
BRANCH   1   8
HETATM    8  O27   D T9000     -15.378   3.824  -0.825  1.00 27.54    -0.326 OA
BRANCH   8   9
HETATM    9  C21   D T9000     -16.823   3.959  -1.075  1.00 30.12     0.145 C 
HETATM   10  C1    D T9000     -17.042   5.425  -1.484  1.00 31.63     0.038 C 
BRANCH   9  11
HETATM   11  C17   D T9000     -17.743   3.589   0.141  1.00 31.84     0.029 A 
HETATM   12  C13   D T9000     -18.901   2.735  -0.069  1.00 30.66     0.057 A 
HETATM   13 CL     D T9000     -19.336   2.078  -1.620  1.00 30.46    -0.083 Cl
HETATM   14  C3    D T9000     -19.748   2.395   1.026  1.00 30.46     0.013 A 
HETATM   15  C2    D T9000     -19.484   2.880   2.332  1.00 31.74     0.031 A 
HETATM   16  C12   D T9000     -18.364   3.716   2.581  1.00 32.80     0.150 A 
HETATM   17  F     D T9000     -18.149   4.156   3.832  1.00 32.49    -0.203 F 
HETATM   18  C18   D T9000     -17.484   4.079   1.503  1.00 33.48     0.084 A 
HETATM   19 CL2    D T9000     -16.128   5.111   1.906  1.00 45.60    -0.080 Cl
ENDBRANCH   9  11
ENDBRANCH   8   9
ENDBRANCH   1   8
BRANCH   7  20
HETATM   20  C16   D T9000     -12.837   2.839  -5.108  1.00 28.58     0.041 A 
HETATM   21  C6    D T9000     -11.826   3.068  -6.144  1.00 32.07     0.122 A 
HETATM   22  N24   D T9000     -11.946   2.163  -7.053  1.00 34.71    -0.168 NA
HETATM   23  N26   D T9000     -12.912   1.363  -6.746  1.00 35.30    -0.252 N 
HETATM   24  C7    D T9000     -13.534   1.715  -5.533  1.00 31.45     0.097 A 
BRANCH  23  25
HETATM   25  C20   D T9000     -13.288   0.216  -7.605  1.00 38.85     0.110 C 
HETATM   26  C8    D T9000     -13.604  -1.022  -6.740  1.00 41.27     0.063 C 
HETATM   27  C10   D T9000     -13.993  -2.204  -7.657  1.00 43.11     0.292 C 
HETATM   28  N25   D T9000     -12.943  -2.498  -8.677  1.00 43.93     0.339 N 
HETATM   29  C11   D T9000     -12.588  -1.304  -9.496  1.00 43.41     0.292 C 
HETATM   30  C9    D T9000     -12.164  -0.102  -8.621  1.00 42.01     0.063 C 
ENDBRANCH  23  25
ENDBRANCH   7  20
TORSDOF 5
ENDMDL
MODEL 9
REMARK VINA RESULT:    -7.980      2.867      4.609
REMARK INTER + INTRA:         -11.213
REMARK INTER:                 -10.618
REMARK INTRA:                  -0.595
REMARK UNBOUND:                -0.900
REMARK  5 active torsions:
REMARK  status: ('A' for Active; 'I' for Inactive)
REMARK    1  A    between atoms: C17_7  and  C21_10 
REMARK    2  A    between atoms: C21_10  and  O27_12 
REMARK    3  A    between atoms: O27_12  and  C15_13 
REMARK    4  A    between atoms: C14_19  and  C16_20 
REMARK    5  A    between atoms: N26_23  and  C20_25 
ROOT
HETATM    1  C15   D T9000     -12.748   5.052  -3.658  1.00 25.10     0.125 A 
HETATM    2  C4    D T9000     -12.742   4.018  -4.655  1.00 25.13     0.029 A 
HETATM    3  C19   D T9000     -11.481   5.665  -3.382  1.00 24.76     0.173 A 
HETATM    4  N22   D T9000     -11.415   6.694  -2.419  1.00 21.31    -0.078 NA
HETATM    5  N23   D T9000     -10.319   5.327  -3.997  1.00 23.34    -0.228 NA
HETATM    6  C5    D T9000     -10.348   4.341  -4.938  1.00 25.82     0.100 A 
HETATM    7  C14   D T9000     -11.537   3.640  -5.313  1.00 24.84     0.024 A 
ENDROOT
BRANCH   1   8
HETATM    8  O27   D T9000     -13.879   5.510  -2.972  1.00 27.54    -0.326 OA
BRANCH   8   9
HETATM    9  C21   D T9000     -14.149   5.328  -1.536  1.00 30.12     0.145 C 
HETATM   10  C1    D T9000     -13.756   3.876  -1.217  1.00 31.63     0.038 C 
BRANCH   9  11
HETATM   11  C17   D T9000     -15.632   5.598  -1.102  1.00 31.84     0.029 A 
HETATM   12  C13   D T9000     -15.916   6.636  -0.123  1.00 30.66     0.057 A 
HETATM   13 CL     D T9000     -14.683   7.623   0.608  1.00 30.46    -0.083 Cl
HETATM   14  C3    D T9000     -17.258   6.889   0.284  1.00 30.46     0.013 A 
HETATM   15  C2    D T9000     -18.337   6.140  -0.249  1.00 31.74     0.031 A 
HETATM   16  C12   D T9000     -18.105   5.119  -1.208  1.00 32.80     0.150 A 
HETATM   17  F     D T9000     -19.154   4.430  -1.689  1.00 32.49    -0.203 F 
HETATM   18  C18   D T9000     -16.765   4.835  -1.646  1.00 33.48     0.084 A 
HETATM   19 CL2    D T9000     -16.577   3.560  -2.832  1.00 45.60    -0.080 Cl
ENDBRANCH   9  11
ENDBRANCH   8   9
ENDBRANCH   1   8
BRANCH   7  20
HETATM   20  C16   D T9000     -11.539   2.548  -6.366  1.00 28.58     0.041 A 
HETATM   21  C6    D T9000     -10.474   2.215  -7.317  1.00 32.07     0.122 A 
HETATM   22  N24   D T9000     -10.858   1.221  -8.043  1.00 34.71    -0.168 NA
HETATM   23  N26   D T9000     -12.044   0.856  -7.689  1.00 35.30    -0.252 N 
HETATM   24  C7    D T9000     -12.555   1.640  -6.637  1.00 31.45     0.097 A 
BRANCH  23  25
HETATM   25  C20   D T9000     -12.751  -0.269  -8.346  1.00 38.85     0.110 C 
HETATM   26  C8    D T9000     -12.955  -1.429  -7.350  1.00 41.27     0.063 C 
HETATM   27  C10   D T9000     -13.693  -2.588  -8.058  1.00 43.11     0.292 C 
HETATM   28  N25   D T9000     -12.986  -3.039  -9.293  1.00 43.93     0.339 N 
HETATM   29  C11   D T9000     -12.736  -1.926 -10.252  1.00 43.41     0.292 C 
HETATM   30  C9    D T9000     -11.973  -0.752  -9.595  1.00 42.01     0.063 C 
ENDBRANCH  23  25
ENDBRANCH   7  20
TORSDOF 5
ENDMDL
