MODEL 1
REMARK VINA RESULT:    -8.099      0.000      0.000
REMARK INTER + INTRA:         -11.180
REMARK INTER:                 -10.466
REMARK INTRA:                  -0.714
REMARK UNBOUND:                -0.714
REMARK  5 active torsions:
REMARK  status: ('A' for Active; 'I' for Inactive)
REMARK    1  A    between atoms: C17_7  and  C21_10 
REMARK    2  A    between atoms: C21_10  and  O27_12 
REMARK    3  A    between atoms: O27_12  and  C15_13 
REMARK    4  A    between atoms: C14_19  and  C16_20 
REMARK    5  A    between atoms: N26_23  and  C20_25 
ROOT
HETATM    1  C15   D T9000       9.888  -3.158  -2.959  1.00 25.10     0.125 A 
HETATM    2  C4    D T9000      10.176  -2.971  -1.563  1.00 25.13     0.029 A 
HETATM    3  C19   D T9000       9.739  -4.516  -3.393  1.00 24.76     0.173 A 
HETATM    4  N22   D T9000       9.449  -4.773  -4.749  1.00 21.31    -0.078 NA
HETATM    5  N23   D T9000       9.853  -5.595  -2.576  1.00 23.34    -0.228 NA
HETATM    6  C5    D T9000      10.129  -5.384  -1.258  1.00 25.82     0.100 A 
HETATM    7  C14   D T9000      10.305  -4.086  -0.687  1.00 24.84     0.024 A 
ENDROOT
BRANCH   1   8
HETATM    8  O27   D T9000       9.720  -2.132  -3.896  1.00 27.54    -0.326 OA
BRANCH   8   9
HETATM    9  C21   D T9000       8.936  -0.902  -3.697  1.00 30.12     0.145 C 
HETATM   10  C1    D T9000       7.624  -1.345  -3.030  1.00 31.63     0.038 C 
BRANCH   9  11
HETATM   11  C17   D T9000       8.633  -0.091  -5.006  1.00 31.84     0.029 A 
HETATM   12  C13   D T9000       9.107   1.280  -5.129  1.00 30.66     0.057 A 
HETATM   13 CL     D T9000      10.016   2.090  -3.886  1.00 30.46    -0.083 Cl
HETATM   14  C3    D T9000       8.834   2.028  -6.309  1.00 30.46     0.013 A 
HETATM   15  C2    D T9000       8.099   1.462  -7.381  1.00 31.74     0.031 A 
HETATM   16  C12   D T9000       7.618   0.129  -7.303  1.00 32.80     0.150 A 
HETATM   17  F     D T9000       6.924  -0.371  -8.340  1.00 32.49    -0.203 F 
HETATM   18  C18   D T9000       7.874  -0.662  -6.130  1.00 33.48     0.084 A 
HETATM   19 CL2    D T9000       7.245  -2.296  -6.126  1.00 45.60    -0.080 Cl
ENDBRANCH   9  11
ENDBRANCH   8   9
ENDBRANCH   1   8
BRANCH   7  20
HETATM   20  C16   D T9000      10.608  -3.880   0.787  1.00 28.58     0.041 A 
HETATM   21  C6    D T9000      11.632  -3.014   1.381  1.00 32.07     0.122 A 
HETATM   22  N24   D T9000      11.568  -3.114   2.664  1.00 34.71    -0.168 NA
HETATM   23  N26   D T9000      10.631  -3.937   2.991  1.00 35.30    -0.252 N 
HETATM   24  C7    D T9000       9.969  -4.472   1.869  1.00 31.45     0.097 A 
BRANCH  23  25
HETATM   25  C20   D T9000      10.319  -4.254   4.405  1.00 38.85     0.110 C 
HETATM   26  C8    D T9000      11.464  -5.071   5.037  1.00 41.27     0.063 C 
HETATM   27  C10   D T9000      11.115  -5.390   6.510  1.00 43.11     0.292 C 
HETATM   28  N25   D T9000       9.803  -6.087   6.642  1.00 43.93     0.339 N 
HETATM   29  C11   D T9000       8.686  -5.339   5.998  1.00 43.41     0.292 C 
HETATM   30  C9    D T9000       8.978  -5.022   4.514  1.00 42.01     0.063 C 
ENDBRANCH  23  25
ENDBRANCH   7  20
TORSDOF 5
ENDMDL
MODEL 2
REMARK VINA RESULT:    -7.940      2.262      3.340
REMARK INTER + INTRA:         -10.975
REMARK INTER:                 -10.158
REMARK INTRA:                  -0.817
REMARK UNBOUND:                -0.714
REMARK  5 active torsions:
REMARK  status: ('A' for Active; 'I' for Inactive)
REMARK    1  A    between atoms: C17_7  and  C21_10 
REMARK    2  A    between atoms: C21_10  and  O27_12 
REMARK    3  A    between atoms: O27_12  and  C15_13 
REMARK    4  A    between atoms: C14_19  and  C16_20 
REMARK    5  A    between atoms: N26_23  and  C20_25 
ROOT
HETATM    1  C15   D T9000      10.054  -2.974  -2.603  1.00 25.10     0.125 A 
HETATM    2  C4    D T9000      10.507  -2.500  -1.323  1.00 25.13     0.029 A 
HETATM    3  C19   D T9000       9.996  -4.397  -2.760  1.00 24.76     0.173 A 
HETATM    4  N22   D T9000       9.554  -4.931  -3.989  1.00 21.31    -0.078 NA
HETATM    5  N23   D T9000      10.334  -5.287  -1.792  1.00 23.34    -0.228 NA
HETATM    6  C5    D T9000      10.761  -4.806  -0.591  1.00 25.82     0.100 A 
HETATM    7  C14   D T9000      10.872  -3.412  -0.293  1.00 24.84     0.024 A 
ENDROOT
BRANCH   1   8
HETATM    8  O27   D T9000       9.652  -2.163  -3.670  1.00 27.54    -0.326 OA
BRANCH   8   9
HETATM    9  C21   D T9000       8.812  -0.958  -3.570  1.00 30.12     0.145 C 
HETATM   10  C1    D T9000       7.495  -1.419  -2.925  1.00 31.63     0.038 C 
BRANCH   9  11
HETATM   11  C17   D T9000       8.527  -0.234  -4.933  1.00 31.84     0.029 A 
HETATM   12  C13   D T9000       8.966   1.140  -5.124  1.00 30.66     0.057 A 
HETATM   13 CL     D T9000       9.814   2.048  -3.907  1.00 30.46    -0.083 Cl
HETATM   14  C3    D T9000       8.708   1.809  -6.353  1.00 30.46     0.013 A 
HETATM   15  C2    D T9000       8.021   1.160  -7.411  1.00 31.74     0.031 A 
HETATM   16  C12   D T9000       7.575  -0.180  -7.267  1.00 32.80     0.150 A 
HETATM   17  F     D T9000       6.926  -0.760  -8.291  1.00 32.49    -0.203 F 
HETATM   18  C18   D T9000       7.818  -0.893  -6.041  1.00 33.48     0.084 A 
HETATM   19 CL2    D T9000       7.234  -2.542  -5.959  1.00 45.60    -0.080 Cl
ENDBRANCH   9  11
ENDBRANCH   8   9
ENDBRANCH   1   8
BRANCH   7  20
HETATM   20  C16   D T9000      11.347  -2.904   1.057  1.00 28.58     0.041 A 
HETATM   21  C6    D T9000      11.401  -3.640   2.325  1.00 32.07     0.122 A 
HETATM   22  N24   D T9000      11.867  -2.861   3.239  1.00 34.71    -0.168 NA
HETATM   23  N26   D T9000      12.129  -1.703   2.733  1.00 35.30    -0.252 N 
HETATM   24  C7    D T9000      11.831  -1.637   1.359  1.00 31.45     0.097 A 
BRANCH  23  25
HETATM   25  C20   D T9000      12.683  -0.595   3.547  1.00 38.85     0.110 C 
HETATM   26  C8    D T9000      13.295   0.486   2.633  1.00 41.27     0.063 C 
HETATM   27  C10   D T9000      13.867   1.630   3.505  1.00 43.11     0.292 C 
HETATM   28  N25   D T9000      14.852   1.137   4.510  1.00 43.93     0.339 N 
HETATM   29  C11   D T9000      14.298   0.057   5.376  1.00 43.41     0.292 C 
HETATM   30  C9    D T9000      13.739  -1.123   4.549  1.00 42.01     0.063 C 
ENDBRANCH  23  25
ENDBRANCH   7  20
TORSDOF 5
ENDMDL
MODEL 3
REMARK VINA RESULT:    -7.784      4.707      6.397
REMARK INTER + INTRA:         -10.773
REMARK INTER:                 -10.007
REMARK INTRA:                  -0.766
REMARK UNBOUND:                -0.714
REMARK  5 active torsions:
REMARK  status: ('A' for Active; 'I' for Inactive)
REMARK    1  A    between atoms: C17_7  and  C21_10 
REMARK    2  A    between atoms: C21_10  and  O27_12 
REMARK    3  A    between atoms: O27_12  and  C15_13 
REMARK    4  A    between atoms: C14_19  and  C16_20 
REMARK    5  A    between atoms: N26_23  and  C20_25 
ROOT
HETATM    1  C15   D T9000      10.897  -1.805  -2.487  1.00 25.10     0.125 A 
HETATM    2  C4    D T9000      12.209  -1.239  -2.329  1.00 25.13     0.029 A 
HETATM    3  C19   D T9000      10.427  -2.614  -1.401  1.00 24.76     0.173 A 
HETATM    4  N22   D T9000       9.145  -3.196  -1.487  1.00 21.31    -0.078 NA
HETATM    5  N23   D T9000      11.137  -2.861  -0.270  1.00 23.34    -0.228 NA
HETATM    6  C5    D T9000      12.378  -2.311  -0.152  1.00 25.82     0.100 A 
HETATM    7  C14   D T9000      12.976  -1.486  -1.155  1.00 24.84     0.024 A 
ENDROOT
BRANCH   1   8
HETATM    8  O27   D T9000      10.056  -1.605  -3.588  1.00 27.54    -0.326 OA
BRANCH   8   9
HETATM    9  C21   D T9000       9.535  -0.309  -4.052  1.00 30.12     0.145 C 
HETATM   10  C1    D T9000       8.669   0.230  -2.902  1.00 31.63     0.038 C 
BRANCH   9  11
HETATM   11  C17   D T9000       8.700  -0.367  -5.379  1.00 31.84     0.029 A 
HETATM   12  C13   D T9000       8.656   0.796  -6.253  1.00 30.66     0.057 A 
HETATM   13 CL     D T9000       9.496   2.280  -5.910  1.00 30.46    -0.083 Cl
HETATM   14  C3    D T9000       7.897   0.757  -7.457  1.00 30.46     0.013 A 
HETATM   15  C2    D T9000       7.173  -0.403  -7.830  1.00 31.74     0.031 A 
HETATM   16  C12   D T9000       7.189  -1.560  -7.007  1.00 32.80     0.150 A 
HETATM   17  F     D T9000       6.488  -2.640  -7.393  1.00 32.49    -0.203 F 
HETATM   18  C18   D T9000       7.944  -1.563  -5.783  1.00 33.48     0.084 A 
HETATM   19 CL2    D T9000       7.907  -3.036  -4.837  1.00 45.60    -0.080 Cl
ENDBRANCH   9  11
ENDBRANCH   8   9
ENDBRANCH   1   8
BRANCH   7  20
HETATM   20  C16   D T9000      14.360  -0.883  -0.994  1.00 28.58     0.041 A 
HETATM   21  C6    D T9000      14.739   0.532  -1.078  1.00 32.07     0.122 A 
HETATM   22  N24   D T9000      16.007   0.635  -0.880  1.00 34.71    -0.168 NA
HETATM   23  N26   D T9000      16.514  -0.533  -0.677  1.00 35.30    -0.252 N 
HETATM   24  C7    D T9000      15.547  -1.555  -0.731  1.00 31.45     0.097 A 
BRANCH  23  25
HETATM   25  C20   D T9000      17.960  -0.731  -0.417  1.00 38.85     0.110 C 
HETATM   26  C8    D T9000      18.710   0.614  -0.509  1.00 41.27     0.063 C 
HETATM   27  C10   D T9000      20.215   0.382  -0.235  1.00 43.11     0.292 C 
HETATM   28  N25   D T9000      20.804  -0.641  -1.147  1.00 43.93     0.339 N 
HETATM   29  C11   D T9000      20.068  -1.936  -1.111  1.00 43.41     0.292 C 
HETATM   30  C9    D T9000      18.561  -1.758  -1.407  1.00 42.01     0.063 C 
ENDBRANCH  23  25
ENDBRANCH   7  20
TORSDOF 5
ENDMDL
MODEL 4
REMARK VINA RESULT:    -7.757      4.265      9.378
REMARK INTER + INTRA:         -10.739
REMARK INTER:                  -9.980
REMARK INTRA:                  -0.759
REMARK UNBOUND:                -0.714
REMARK  5 active torsions:
REMARK  status: ('A' for Active; 'I' for Inactive)
REMARK    1  A    between atoms: C17_7  and  C21_10 
REMARK    2  A    between atoms: C21_10  and  O27_12 
REMARK    3  A    between atoms: O27_12  and  C15_13 
REMARK    4  A    between atoms: C14_19  and  C16_20 
REMARK    5  A    between atoms: N26_23  and  C20_25 
ROOT
HETATM    1  C15   D T9000      10.445  -2.993   0.662  1.00 25.10     0.125 A 
HETATM    2  C4    D T9000      10.516  -2.136  -0.491  1.00 25.13     0.029 A 
HETATM    3  C19   D T9000       9.545  -4.103   0.563  1.00 24.76     0.173 A 
HETATM    4  N22   D T9000       9.430  -4.989   1.655  1.00 21.31    -0.078 NA
HETATM    5  N23   D T9000       8.783  -4.375  -0.528  1.00 23.34    -0.228 NA
HETATM    6  C5    D T9000       8.872  -3.542  -1.603  1.00 25.82     0.100 A 
HETATM    7  C14   D T9000       9.725  -2.395  -1.646  1.00 24.84     0.024 A 
ENDROOT
BRANCH   1   8
HETATM    8  O27   D T9000      11.195  -2.837   1.833  1.00 27.54    -0.326 OA
BRANCH   8   9
HETATM    9  C21   D T9000      12.654  -2.655   1.906  1.00 30.12     0.145 C 
HETATM   10  C1    D T9000      13.129  -3.546   3.065  1.00 31.63     0.038 C 
BRANCH   9  11
HETATM   11  C17   D T9000      13.126  -1.176   2.129  1.00 31.84     0.029 A 
HETATM   12  C13   D T9000      12.900  -0.534   3.416  1.00 30.66     0.057 A 
HETATM   13 CL     D T9000      12.125  -1.329   4.755  1.00 30.46    -0.083 Cl
HETATM   14  C3    D T9000      13.319   0.809   3.628  1.00 30.46     0.013 A 
HETATM   15  C2    D T9000      13.959   1.549   2.602  1.00 31.74     0.031 A 
HETATM   16  C12   D T9000      14.200   0.962   1.332  1.00 32.80     0.150 A 
HETATM   17  F     D T9000      14.807   1.695   0.384  1.00 32.49    -0.203 F 
HETATM   18  C18   D T9000      13.794  -0.394   1.076  1.00 33.48     0.084 A 
HETATM   19 CL2    D T9000      14.136  -1.033  -0.518  1.00 45.60    -0.080 Cl
ENDBRANCH   9  11
ENDBRANCH   8   9
ENDBRANCH   1   8
BRANCH   7  20
HETATM   20  C16   D T9000       9.807  -1.487  -2.860  1.00 28.58     0.041 A 
HETATM   21  C6    D T9000      10.965  -1.250  -3.728  1.00 32.07     0.122 A 
HETATM   22  N24   D T9000      10.630  -0.415  -4.650  1.00 34.71    -0.168 NA
HETATM   23  N26   D T9000       9.396  -0.072  -4.500  1.00 35.30    -0.252 N 
HETATM   24  C7    D T9000       8.794  -0.699  -3.393  1.00 31.45     0.097 A 
BRANCH  23  25
HETATM   25  C20   D T9000       8.726   0.880  -5.418  1.00 38.85     0.110 C 
HETATM   26  C8    D T9000       7.876   0.117  -6.455  1.00 41.27     0.063 C 
HETATM   27  C10   D T9000       7.189   1.131  -7.401  1.00 43.11     0.292 C 
HETATM   28  N25   D T9000       8.168   2.046  -8.057  1.00 43.93     0.339 N 
HETATM   29  C11   D T9000       9.033   2.761  -7.076  1.00 43.41     0.292 C 
HETATM   30  C9    D T9000       9.765   1.785  -6.126  1.00 42.01     0.063 C 
ENDBRANCH  23  25
ENDBRANCH   7  20
TORSDOF 5
ENDMDL
MODEL 5
REMARK VINA RESULT:    -7.699      4.537      6.488
REMARK INTER + INTRA:         -10.664
REMARK INTER:                  -9.971
REMARK INTRA:                  -0.693
REMARK UNBOUND:                -0.714
REMARK  5 active torsions:
REMARK  status: ('A' for Active; 'I' for Inactive)
REMARK    1  A    between atoms: C17_7  and  C21_10 
REMARK    2  A    between atoms: C21_10  and  O27_12 
REMARK    3  A    between atoms: O27_12  and  C15_13 
REMARK    4  A    between atoms: C14_19  and  C16_20 
REMARK    5  A    between atoms: N26_23  and  C20_25 
ROOT
HETATM    1  C15   D T9000      10.851  -1.658  -1.682  1.00 25.10     0.125 A 
HETATM    2  C4    D T9000      12.282  -1.613  -1.549  1.00 25.13     0.029 A 
HETATM    3  C19   D T9000      10.151  -2.404  -0.679  1.00 24.76     0.173 A 
HETATM    4  N22   D T9000       8.744  -2.485  -0.745  1.00 21.31    -0.078 NA
HETATM    5  N23   D T9000      10.753  -3.046   0.355  1.00 23.34    -0.228 NA
HETATM    6  C5    D T9000      12.112  -2.985   0.453  1.00 25.82     0.100 A 
HETATM    7  C14   D T9000      12.939  -2.281  -0.476  1.00 24.84     0.024 A 
ENDROOT
BRANCH   1   8
HETATM    8  O27   D T9000      10.111  -1.019  -2.683  1.00 27.54    -0.326 OA
BRANCH   8   9
HETATM    9  C21   D T9000       9.710  -1.610  -3.970  1.00 30.12     0.145 C 
HETATM   10  C1    D T9000      10.959  -2.324  -4.511  1.00 31.63     0.038 C 
BRANCH   9  11
HETATM   11  C17   D T9000       9.168  -0.587  -5.029  1.00 31.84     0.029 A 
HETATM   12  C13   D T9000       7.959  -0.897  -5.777  1.00 30.66     0.057 A 
HETATM   13 CL     D T9000       7.054  -2.367  -5.560  1.00 30.46    -0.083 Cl
HETATM   14  C3    D T9000       7.461   0.021  -6.745  1.00 30.46     0.013 A 
HETATM   15  C2    D T9000       8.125   1.247  -7.001  1.00 31.74     0.031 A 
HETATM   16  C12   D T9000       9.307   1.590  -6.294  1.00 32.80     0.150 A 
HETATM   17  F     D T9000       9.908   2.761  -6.566  1.00 32.49    -0.203 F 
HETATM   18  C18   D T9000       9.842   0.692  -5.306  1.00 33.48     0.084 A 
HETATM   19 CL2    D T9000      11.301   1.202  -4.483  1.00 45.60    -0.080 Cl
ENDBRANCH   9  11
ENDBRANCH   8   9
ENDBRANCH   1   8
BRANCH   7  20
HETATM   20  C16   D T9000      14.450  -2.227  -0.341  1.00 28.58     0.041 A 
HETATM   21  C6    D T9000      15.306  -3.059   0.511  1.00 32.07     0.122 A 
HETATM   22  N24   D T9000      16.533  -2.707   0.339  1.00 34.71    -0.168 NA
HETATM   23  N26   D T9000      16.595  -1.746  -0.519  1.00 35.30    -0.252 N 
HETATM   24  C7    D T9000      15.326  -1.375  -1.003  1.00 31.45     0.097 A 
BRANCH  23  25
HETATM   25  C20   D T9000      17.883  -1.132  -0.922  1.00 38.85     0.110 C 
HETATM   26  C8    D T9000      18.999  -2.196  -0.946  1.00 41.27     0.063 C 
HETATM   27  C10   D T9000      20.332  -1.532  -1.369  1.00 43.11     0.292 C 
HETATM   28  N25   D T9000      20.689  -0.377  -0.495  1.00 43.93     0.339 N 
HETATM   29  C11   D T9000      19.606   0.644  -0.418  1.00 43.41     0.292 C 
HETATM   30  C9    D T9000      18.259   0.031   0.029  1.00 42.01     0.063 C 
ENDBRANCH  23  25
ENDBRANCH   7  20
TORSDOF 5
ENDMDL
MODEL 6
REMARK VINA RESULT:    -7.587      4.517      9.372
REMARK INTER + INTRA:         -10.519
REMARK INTER:                  -9.613
REMARK INTRA:                  -0.906
REMARK UNBOUND:                -0.714
REMARK  5 active torsions:
REMARK  status: ('A' for Active; 'I' for Inactive)
REMARK    1  A    between atoms: C17_7  and  C21_10 
REMARK    2  A    between atoms: C21_10  and  O27_12 
REMARK    3  A    between atoms: O27_12  and  C15_13 
REMARK    4  A    between atoms: C14_19  and  C16_20 
REMARK    5  A    between atoms: N26_23  and  C20_25 
ROOT
HETATM    1  C15   D T9000      11.036  -3.517  -0.743  1.00 25.10     0.125 A 
HETATM    2  C4    D T9000      10.417  -2.764  -1.800  1.00 25.13     0.029 A 
HETATM    3  C19   D T9000      10.806  -4.931  -0.762  1.00 24.76     0.173 A 
HETATM    4  N22   D T9000      11.388  -5.732   0.243  1.00 21.31    -0.078 NA
HETATM    5  N23   D T9000      10.058  -5.571  -1.698  1.00 23.34    -0.228 NA
HETATM    6  C5    D T9000       9.484  -4.828  -2.687  1.00 25.82     0.100 A 
HETATM    7  C14   D T9000       9.626  -3.410  -2.792  1.00 24.84     0.024 A 
ENDROOT
BRANCH   1   8
HETATM    8  O27   D T9000      11.848  -2.982   0.263  1.00 27.54    -0.326 OA
BRANCH   8   9
HETATM    9  C21   D T9000      13.193  -2.414   0.076  1.00 30.12     0.145 C 
HETATM   10  C1    D T9000      14.177  -3.526   0.474  1.00 31.63     0.038 C 
BRANCH   9  11
HETATM   11  C17   D T9000      13.483  -1.111   0.901  1.00 31.84     0.029 A 
HETATM   12  C13   D T9000      14.125   0.023   0.253  1.00 30.66     0.057 A 
HETATM   13 CL     D T9000      14.596   0.025  -1.421  1.00 30.46    -0.083 Cl
HETATM   14  C3    D T9000      14.398   1.208   0.993  1.00 30.46     0.013 A 
HETATM   15  C2    D T9000      14.057   1.311   2.365  1.00 31.74     0.031 A 
HETATM   16  C12   D T9000      13.429   0.229   3.036  1.00 32.80     0.150 A 
HETATM   17  F     D T9000      13.123   0.363   4.338  1.00 32.49    -0.203 F 
HETATM   18  C18   D T9000      13.133  -0.986   2.325  1.00 33.48     0.084 A 
HETATM   19 CL2    D T9000      12.356  -2.264   3.235  1.00 45.60    -0.080 Cl
ENDBRANCH   9  11
ENDBRANCH   8   9
ENDBRANCH   1   8
BRANCH   7  20
HETATM   20  C16   D T9000       8.977  -2.608  -3.907  1.00 28.58     0.041 A 
HETATM   21  C6    D T9000       8.135  -3.107  -4.999  1.00 32.07     0.122 A 
HETATM   22  N24   D T9000       7.777  -2.114  -5.736  1.00 34.71    -0.168 NA
HETATM   23  N26   D T9000       8.277  -1.021  -5.268  1.00 35.30    -0.252 N 
HETATM   24  C7    D T9000       9.052  -1.237  -4.113  1.00 31.45     0.097 A 
BRANCH  23  25
HETATM   25  C20   D T9000       8.035   0.294  -5.908  1.00 38.85     0.110 C 
HETATM   26  C8    D T9000       7.486   0.102  -7.337  1.00 41.27     0.063 C 
HETATM   27  C10   D T9000       7.242   1.486  -7.983  1.00 43.11     0.292 C 
HETATM   28  N25   D T9000       8.467   2.338  -7.974  1.00 43.93     0.339 N 
HETATM   29  C11   D T9000       9.045   2.501  -6.610  1.00 43.41     0.292 C 
HETATM   30  C9    D T9000       9.332   1.140  -5.934  1.00 42.01     0.063 C 
ENDBRANCH  23  25
ENDBRANCH   7  20
TORSDOF 5
ENDMDL
MODEL 7
REMARK VINA RESULT:    -7.468      1.758      2.173
REMARK INTER + INTRA:         -10.365
REMARK INTER:                  -9.846
REMARK INTRA:                  -0.519
REMARK UNBOUND:                -0.714
REMARK  5 active torsions:
REMARK  status: ('A' for Active; 'I' for Inactive)
REMARK    1  A    between atoms: C17_7  and  C21_10 
REMARK    2  A    between atoms: C21_10  and  O27_12 
REMARK    3  A    between atoms: O27_12  and  C15_13 
REMARK    4  A    between atoms: C14_19  and  C16_20 
REMARK    5  A    between atoms: N26_23  and  C20_25 
ROOT
HETATM    1  C15   D T9000      10.238  -2.428  -2.192  1.00 25.10     0.125 A 
HETATM    2  C4    D T9000       9.770  -3.400  -1.242  1.00 25.13     0.029 A 
HETATM    3  C19   D T9000      11.525  -1.856  -1.922  1.00 24.76     0.173 A 
HETATM    4  N22   D T9000      12.048  -0.899  -2.816  1.00 21.31    -0.078 NA
HETATM    5  N23   D T9000      12.294  -2.178  -0.850  1.00 23.34    -0.228 NA
HETATM    6  C5    D T9000      11.820  -3.103   0.032  1.00 25.82     0.100 A 
HETATM    7  C14   D T9000      10.555  -3.754  -0.108  1.00 24.84     0.024 A 
ENDROOT
BRANCH   1   8
HETATM    8  O27   D T9000       9.555  -2.029  -3.347  1.00 27.54    -0.326 OA
BRANCH   8   9
HETATM    9  C21   D T9000       8.530  -0.976  -3.423  1.00 30.12     0.145 C 
HETATM   10  C1    D T9000       7.212  -1.642  -2.995  1.00 31.63     0.038 C 
BRANCH   9  11
HETATM   11  C17   D T9000       8.369  -0.309  -4.834  1.00 31.84     0.029 A 
HETATM   12  C13   D T9000       8.872   1.039  -5.054  1.00 30.66     0.057 A 
HETATM   13 CL     D T9000       9.666   1.975  -3.822  1.00 30.46    -0.083 Cl
HETATM   14  C3    D T9000       8.726   1.656  -6.329  1.00 30.46     0.013 A 
HETATM   15  C2    D T9000       8.093   0.982  -7.402  1.00 31.74     0.031 A 
HETATM   16  C12   D T9000       7.588  -0.334  -7.231  1.00 32.80     0.150 A 
HETATM   17  F     D T9000       6.991  -0.940  -8.272  1.00 32.49    -0.203 F 
HETATM   18  C18   D T9000       7.716  -0.995  -5.960  1.00 33.48     0.084 A 
HETATM   19 CL2    D T9000       7.066  -2.617  -5.845  1.00 45.60    -0.080 Cl
ENDBRANCH   9  11
ENDBRANCH   8   9
ENDBRANCH   1   8
BRANCH   7  20
HETATM   20  C16   D T9000      10.055  -4.783   0.889  1.00 28.58     0.041 A 
HETATM   21  C6    D T9000       9.623  -6.159   0.619  1.00 32.07     0.122 A 
HETATM   22  N24   D T9000       9.274  -6.711   1.729  1.00 34.71    -0.168 NA
HETATM   23  N26   D T9000       9.420  -5.872   2.699  1.00 35.30    -0.252 N 
HETATM   24  C7    D T9000       9.908  -4.626   2.261  1.00 31.45     0.097 A 
BRANCH  23  25
HETATM   25  C20   D T9000       9.099  -6.225   4.102  1.00 38.85     0.110 C 
HETATM   26  C8    D T9000       9.335  -5.014   5.027  1.00 41.27     0.063 C 
HETATM   27  C10   D T9000       8.994  -5.408   6.484  1.00 43.11     0.292 C 
HETATM   28  N25   D T9000       9.757  -6.606   6.940  1.00 43.93     0.339 N 
HETATM   29  C11   D T9000       9.582  -7.777   6.035  1.00 43.41     0.292 C 
HETATM   30  C9    D T9000       9.939  -7.440   4.569  1.00 42.01     0.063 C 
ENDBRANCH  23  25
ENDBRANCH   7  20
TORSDOF 5
ENDMDL
MODEL 8
REMARK VINA RESULT:    -7.464      1.900      2.067
REMARK INTER + INTRA:         -10.360
REMARK INTER:                  -9.577
REMARK INTRA:                  -0.783
REMARK UNBOUND:                -0.714
REMARK  5 active torsions:
REMARK  status: ('A' for Active; 'I' for Inactive)
REMARK    1  A    between atoms: C17_7  and  C21_10 
REMARK    2  A    between atoms: C21_10  and  O27_12 
REMARK    3  A    between atoms: O27_12  and  C15_13 
REMARK    4  A    between atoms: C14_19  and  C16_20 
REMARK    5  A    between atoms: N26_23  and  C20_25 
ROOT
HETATM    1  C15   D T9000      10.066  -2.935  -2.413  1.00 25.10     0.125 A 
HETATM    2  C4    D T9000      10.593  -2.343  -1.213  1.00 25.13     0.029 A 
HETATM    3  C19   D T9000      10.024  -4.368  -2.439  1.00 24.76     0.173 A 
HETATM    4  N22   D T9000       9.513  -5.015  -3.583  1.00 21.31    -0.078 NA
HETATM    5  N23   D T9000      10.443  -5.163  -1.421  1.00 23.34    -0.228 NA
HETATM    6  C5    D T9000      10.939  -4.571  -0.298  1.00 25.82     0.100 A 
HETATM    7  C14   D T9000      11.043  -3.155  -0.133  1.00 24.84     0.024 A 
ENDROOT
BRANCH   1   8
HETATM    8  O27   D T9000       9.579  -2.228  -3.518  1.00 27.54    -0.326 OA
BRANCH   8   9
HETATM    9  C21   D T9000       8.666  -1.074  -3.470  1.00 30.12     0.145 C 
HETATM   10  C1    D T9000       7.338  -1.615  -2.913  1.00 31.63     0.038 C 
BRANCH   9  11
HETATM   11  C17   D T9000       8.428  -0.361  -4.847  1.00 31.84     0.029 A 
HETATM   12  C13   D T9000       8.882   1.009  -5.035  1.00 30.66     0.057 A 
HETATM   13 CL     D T9000       9.698   1.922  -3.800  1.00 30.46    -0.083 Cl
HETATM   14  C3    D T9000       8.667   1.669  -6.278  1.00 30.46     0.013 A 
HETATM   15  C2    D T9000       8.009   1.016  -7.351  1.00 31.74     0.031 A 
HETATM   16  C12   D T9000       7.551  -0.320  -7.210  1.00 32.80     0.150 A 
HETATM   17  F     D T9000       6.930  -0.905  -8.249  1.00 32.49    -0.203 F 
HETATM   18  C18   D T9000       7.750  -1.024  -5.972  1.00 33.48     0.084 A 
HETATM   19 CL2    D T9000       7.153  -2.668  -5.893  1.00 45.60    -0.080 Cl
ENDBRANCH   9  11
ENDBRANCH   8   9
ENDBRANCH   1   8
BRANCH   7  20
HETATM   20  C16   D T9000      11.596  -2.522   1.132  1.00 28.58     0.041 A 
HETATM   21  C6    D T9000      11.754  -1.094   1.427  1.00 32.07     0.122 A 
HETATM   22  N24   D T9000      12.256  -0.966   2.606  1.00 34.71    -0.168 NA
HETATM   23  N26   D T9000      12.450  -2.130   3.127  1.00 35.30    -0.252 N 
HETATM   24  C7    D T9000      12.062  -3.175   2.266  1.00 31.45     0.097 A 
BRANCH  23  25
HETATM   25  C20   D T9000      13.018  -2.301   4.485  1.00 38.85     0.110 C 
HETATM   26  C8    D T9000      13.806  -3.624   4.574  1.00 41.27     0.063 C 
HETATM   27  C10   D T9000      14.388  -3.780   5.999  1.00 43.11     0.292 C 
HETATM   28  N25   D T9000      13.334  -3.696   7.052  1.00 43.93     0.339 N 
HETATM   29  C11   D T9000      12.527  -2.446   6.959  1.00 43.41     0.292 C 
HETATM   30  C9    D T9000      11.901  -2.261   5.558  1.00 42.01     0.063 C 
ENDBRANCH  23  25
ENDBRANCH   7  20
TORSDOF 5
ENDMDL
MODEL 9
REMARK VINA RESULT:    -7.408      4.438      9.821
REMARK INTER + INTRA:         -10.287
REMARK INTER:                  -9.471
REMARK INTRA:                  -0.817
REMARK UNBOUND:                -0.714
REMARK  5 active torsions:
REMARK  status: ('A' for Active; 'I' for Inactive)
REMARK    1  A    between atoms: C17_7  and  C21_10 
REMARK    2  A    between atoms: C21_10  and  O27_12 
REMARK    3  A    between atoms: O27_12  and  C15_13 
REMARK    4  A    between atoms: C14_19  and  C16_20 
REMARK    5  A    between atoms: N26_23  and  C20_25 
ROOT
HETATM    1  C15   D T9000      10.590  -3.822  -0.801  1.00 25.10     0.125 A 
HETATM    2  C4    D T9000      10.307  -2.612  -1.525  1.00 25.13     0.029 A 
HETATM    3  C19   D T9000      10.183  -5.041  -1.436  1.00 24.76     0.173 A 
HETATM    4  N22   D T9000      10.435  -6.267  -0.785  1.00 21.31    -0.078 NA
HETATM    5  N23   D T9000       9.567  -5.104  -2.644  1.00 23.34    -0.228 NA
HETATM    6  C5    D T9000       9.312  -3.939  -3.303  1.00 25.82     0.100 A 
HETATM    7  C14   D T9000       9.658  -2.650  -2.791  1.00 24.84     0.024 A 
ENDROOT
BRANCH   1   8
HETATM    8  O27   D T9000      11.241  -3.893   0.435  1.00 27.54    -0.326 OA
BRANCH   8   9
HETATM    9  C21   D T9000      12.349  -3.030   0.878  1.00 30.12     0.145 C 
HETATM   10  C1    D T9000      13.630  -3.853   0.667  1.00 31.63     0.038 C 
BRANCH   9  11
HETATM   11  C17   D T9000      12.255  -2.542   2.366  1.00 31.84     0.029 A 
HETATM   12  C13   D T9000      12.702  -1.202   2.714  1.00 30.66     0.057 A 
HETATM   13 CL     D T9000      13.346  -0.079   1.552  1.00 30.46    -0.083 Cl
HETATM   14  C3    D T9000      12.627  -0.751   4.062  1.00 30.46     0.013 A 
HETATM   15  C2    D T9000      12.121  -1.588   5.088  1.00 31.74     0.031 A 
HETATM   16  C12   D T9000      11.673  -2.902   4.793  1.00 32.80     0.150 A 
HETATM   17  F     D T9000      11.201  -3.666   5.793  1.00 32.49    -0.203 F 
HETATM   18  C18   D T9000      11.730  -3.397   3.443  1.00 33.48     0.084 A 
HETATM   19 CL2    D T9000      11.152  -5.027   3.175  1.00 45.60    -0.080 Cl
ENDBRANCH   9  11
ENDBRANCH   8   9
ENDBRANCH   1   8
BRANCH   7  20
HETATM   20  C16   D T9000       9.365  -1.367  -3.549  1.00 28.58     0.041 A 
HETATM   21  C6    D T9000       9.103  -0.035  -2.994  1.00 32.07     0.122 A 
HETATM   22  N24   D T9000       8.903   0.788  -3.964  1.00 34.71    -0.168 NA
HETATM   23  N26   D T9000       9.000   0.167  -5.091  1.00 35.30    -0.252 N 
HETATM   24  C7    D T9000       9.290  -1.201  -4.927  1.00 31.45     0.097 A 
BRANCH  23  25
HETATM   25  C20   D T9000       8.821   0.859  -6.389  1.00 38.85     0.110 C 
HETATM   26  C8    D T9000       9.155   2.358  -6.249  1.00 41.27     0.063 C 
HETATM   27  C10   D T9000       8.959   3.057  -7.615  1.00 43.11     0.292 C 
HETATM   28  N25   D T9000       7.590   2.847  -8.167  1.00 43.93     0.339 N 
HETATM   29  C11   D T9000       7.226   1.405  -8.270  1.00 43.41     0.292 C 
HETATM   30  C9    D T9000       7.378   0.669  -6.918  1.00 42.01     0.063 C 
ENDBRANCH  23  25
ENDBRANCH   7  20
TORSDOF 5
ENDMDL
