MODEL 1
REMARK VINA RESULT:    -9.437      0.000      0.000
REMARK INTER + INTRA:         -12.799
REMARK INTER:                 -12.195
REMARK INTRA:                  -0.603
REMARK UNBOUND:                -0.603
REMARK  5 active torsions:
REMARK  status: ('A' for Active; 'I' for Inactive)
REMARK    1  A    between atoms: C17_7  and  C21_10 
REMARK    2  A    between atoms: C21_10  and  O27_12 
REMARK    3  A    between atoms: O27_12  and  C15_13 
REMARK    4  A    between atoms: C14_19  and  C16_20 
REMARK    5  A    between atoms: N26_23  and  C20_25 
ROOT
HETATM    1  C15   D T9000      -3.567   1.312  10.446  1.00 25.10     0.125 A 
HETATM    2  C4    D T9000      -3.593  -0.122  10.533  1.00 25.13     0.029 A 
HETATM    3  C19   D T9000      -4.578   1.910   9.626  1.00 24.76     0.173 A 
HETATM    4  N22   D T9000      -4.616   3.314   9.502  1.00 21.31    -0.078 NA
HETATM    5  N23   D T9000      -5.527   1.210   8.952  1.00 23.34    -0.228 NA
HETATM    6  C5    D T9000      -5.523  -0.148   9.053  1.00 25.82     0.100 A 
HETATM    7  C14   D T9000      -4.574  -0.881   9.833  1.00 24.84     0.024 A 
ENDROOT
BRANCH   1   8
HETATM    8  O27   D T9000      -2.662   2.146  11.112  1.00 27.54    -0.326 OA
BRANCH   8   9
HETATM    9  C21   D T9000      -1.223   2.264  10.824  1.00 30.12     0.145 C 
HETATM   10  C1    D T9000      -1.088   2.126   9.299  1.00 31.63     0.038 C 
BRANCH   9  11
HETATM   11  C17   D T9000      -0.315   1.208  11.547  1.00 31.84     0.029 A 
HETATM   12  C13   D T9000       0.134   1.458  12.908  1.00 30.66     0.057 A 
HETATM   13 CL     D T9000      -0.291   2.886  13.806  1.00 30.46    -0.083 Cl
HETATM   14  C3    D T9000       0.963   0.512  13.574  1.00 30.46     0.013 A 
HETATM   15  C2    D T9000       1.369  -0.685  12.933  1.00 31.74     0.031 A 
HETATM   16  C12   D T9000       0.954  -0.969  11.604  1.00 32.80     0.150 A 
HETATM   17  F     D T9000       1.361  -2.113  11.029  1.00 32.49    -0.203 F 
HETATM   18  C18   D T9000       0.114  -0.040  10.898  1.00 33.48     0.084 A 
HETATM   19 CL2    D T9000      -0.349  -0.476   9.267  1.00 45.60    -0.080 Cl
ENDBRANCH   9  11
ENDBRANCH   8   9
ENDBRANCH   1   8
BRANCH   7  20
HETATM   20  C16   D T9000      -4.597  -2.395   9.930  1.00 28.58     0.041 A 
HETATM   21  C6    D T9000      -5.559  -3.320   9.321  1.00 32.07     0.122 A 
HETATM   22  N24   D T9000      -5.233  -4.526   9.634  1.00 34.71    -0.168 NA
HETATM   23  N26   D T9000      -4.176  -4.514  10.373  1.00 35.30    -0.252 N 
HETATM   24  C7    D T9000      -3.704  -3.210  10.614  1.00 31.45     0.097 A 
BRANCH  23  25
HETATM   25  C20   D T9000      -3.561  -5.760  10.889  1.00 38.85     0.110 C 
HETATM   26  C8    D T9000      -2.389  -5.430  11.836  1.00 41.27     0.063 C 
HETATM   27  C10   D T9000      -1.765  -6.744  12.359  1.00 43.11     0.292 C 
HETATM   28  N25   D T9000      -1.340  -7.648  11.252  1.00 43.93     0.339 N 
HETATM   29  C11   D T9000      -2.444  -7.947  10.297  1.00 43.41     0.292 C 
HETATM   30  C9    D T9000      -3.082  -6.660   9.724  1.00 42.01     0.063 C 
ENDBRANCH  23  25
ENDBRANCH   7  20
TORSDOF 5
ENDMDL
MODEL 2
REMARK VINA RESULT:    -9.262      2.527      4.058
REMARK INTER + INTRA:         -12.572
REMARK INTER:                 -11.585
REMARK INTRA:                  -0.987
REMARK UNBOUND:                -0.603
REMARK  5 active torsions:
REMARK  status: ('A' for Active; 'I' for Inactive)
REMARK    1  A    between atoms: C17_7  and  C21_10 
REMARK    2  A    between atoms: C21_10  and  O27_12 
REMARK    3  A    between atoms: O27_12  and  C15_13 
REMARK    4  A    between atoms: C14_19  and  C16_20 
REMARK    5  A    between atoms: N26_23  and  C20_25 
ROOT
HETATM    1  C15   D T9000      -4.650  -2.338  10.037  1.00 25.10     0.125 A 
HETATM    2  C4    D T9000      -3.813  -3.462  10.359  1.00 25.13     0.029 A 
HETATM    3  C19   D T9000      -5.976  -2.650   9.592  1.00 24.76     0.173 A 
HETATM    4  N22   D T9000      -6.853  -1.595   9.266  1.00 21.31    -0.078 NA
HETATM    5  N23   D T9000      -6.461  -3.912   9.465  1.00 23.34    -0.228 NA
HETATM    6  C5    D T9000      -5.642  -4.955   9.776  1.00 25.82     0.100 A 
HETATM    7  C14   D T9000      -4.296  -4.795  10.231  1.00 24.84     0.024 A 
ENDROOT
BRANCH   1   8
HETATM    8  O27   D T9000      -4.278  -0.994  10.151  1.00 27.54    -0.326 OA
BRANCH   8   9
HETATM    9  C21   D T9000      -3.293  -0.448  11.097  1.00 30.12     0.145 C 
HETATM   10  C1    D T9000      -3.742   0.993  11.387  1.00 31.63     0.038 C 
BRANCH   9  11
HETATM   11  C17   D T9000      -1.808  -0.462  10.588  1.00 31.84     0.029 A 
HETATM   12  C13   D T9000      -0.833  -1.323  11.239  1.00 30.66     0.057 A 
HETATM   13 CL     D T9000      -1.223  -2.369  12.573  1.00 30.46    -0.083 Cl
HETATM   14  C3    D T9000       0.518  -1.342  10.791  1.00 30.46     0.013 A 
HETATM   15  C2    D T9000       0.942  -0.527   9.711  1.00 31.74     0.031 A 
HETATM   16  C12   D T9000       0.024   0.329   9.048  1.00 32.80     0.150 A 
HETATM   17  F     D T9000       0.464   1.088   8.030  1.00 32.49    -0.203 F 
HETATM   18  C18   D T9000      -1.350   0.375   9.468  1.00 33.48     0.084 A 
HETATM   19 CL2    D T9000      -2.410   1.457   8.590  1.00 45.60    -0.080 Cl
ENDBRANCH   9  11
ENDBRANCH   8   9
ENDBRANCH   1   8
BRANCH   7  20
HETATM   20  C16   D T9000      -3.407  -5.977  10.573  1.00 28.58     0.041 A 
HETATM   21  C6    D T9000      -2.235  -6.462   9.837  1.00 32.07     0.122 A 
HETATM   22  N24   D T9000      -1.751  -7.485  10.452  1.00 34.71    -0.168 NA
HETATM   23  N26   D T9000      -2.457  -7.736  11.503  1.00 35.30    -0.252 N 
HETATM   24  C7    D T9000      -3.527  -6.835  11.659  1.00 31.45     0.097 A 
BRANCH  23  25
HETATM   25  C20   D T9000      -2.139  -8.861  12.414  1.00 38.85     0.110 C 
HETATM   26  C8    D T9000      -3.389  -9.267  13.223  1.00 41.27     0.063 C 
HETATM   27  C10   D T9000      -3.032 -10.439  14.166  1.00 43.11     0.292 C 
HETATM   28  N25   D T9000      -1.881 -10.117  15.058  1.00 43.93     0.339 N 
HETATM   29  C11   D T9000      -0.673  -9.678  14.302  1.00 43.41     0.292 C 
HETATM   30  C9    D T9000      -0.975  -8.486  13.365  1.00 42.01     0.063 C 
ENDBRANCH  23  25
ENDBRANCH   7  20
TORSDOF 5
ENDMDL
MODEL 3
REMARK VINA RESULT:    -9.155      2.426      4.165
REMARK INTER + INTRA:         -12.435
REMARK INTER:                 -11.548
REMARK INTRA:                  -0.887
REMARK UNBOUND:                -0.603
REMARK  5 active torsions:
REMARK  status: ('A' for Active; 'I' for Inactive)
REMARK    1  A    between atoms: C17_7  and  C21_10 
REMARK    2  A    between atoms: C21_10  and  O27_12 
REMARK    3  A    between atoms: O27_12  and  C15_13 
REMARK    4  A    between atoms: C14_19  and  C16_20 
REMARK    5  A    between atoms: N26_23  and  C20_25 
ROOT
HETATM    1  C15   D T9000      -4.700  -2.235  10.195  1.00 25.10     0.125 A 
HETATM    2  C4    D T9000      -3.793  -3.257  10.641  1.00 25.13     0.029 A 
HETATM    3  C19   D T9000      -5.925  -2.694   9.610  1.00 24.76     0.173 A 
HETATM    4  N22   D T9000      -6.864  -1.745   9.157  1.00 21.31    -0.078 NA
HETATM    5  N23   D T9000      -6.257  -4.003   9.462  1.00 23.34    -0.228 NA
HETATM    6  C5    D T9000      -5.375  -4.947   9.894  1.00 25.82     0.100 A 
HETATM    7  C14   D T9000      -4.115  -4.636  10.495  1.00 24.84     0.024 A 
ENDROOT
BRANCH   1   8
HETATM    8  O27   D T9000      -4.488  -0.857  10.314  1.00 27.54    -0.326 OA
BRANCH   8   9
HETATM    9  C21   D T9000      -3.403  -0.213  11.071  1.00 30.12     0.145 C 
HETATM   10  C1    D T9000      -3.916   1.191  11.429  1.00 31.63     0.038 C 
BRANCH   9  11
HETATM   11  C17   D T9000      -2.034  -0.113  10.310  1.00 31.84     0.029 A 
HETATM   12  C13   D T9000      -1.928   0.726   9.126  1.00 30.66     0.057 A 
HETATM   13 CL     D T9000      -3.256   1.653   8.492  1.00 30.46    -0.083 Cl
HETATM   14  C3    D T9000      -0.693   0.821   8.424  1.00 30.46     0.013 A 
HETATM   15  C2    D T9000       0.452   0.105   8.856  1.00 31.74     0.031 A 
HETATM   16  C12   D T9000       0.393  -0.726  10.006  1.00 32.80     0.150 A 
HETATM   17  F     D T9000       1.498  -1.390  10.384  1.00 32.49    -0.203 F 
HETATM   18  C18   D T9000      -0.835  -0.847  10.745  1.00 33.48     0.084 A 
HETATM   19 CL2    D T9000      -0.812  -1.891  12.150  1.00 45.60    -0.080 Cl
ENDBRANCH   9  11
ENDBRANCH   8   9
ENDBRANCH   1   8
BRANCH   7  20
HETATM   20  C16   D T9000      -3.153  -5.710  10.969  1.00 28.58     0.041 A 
HETATM   21  C6    D T9000      -1.697  -5.752  10.796  1.00 32.07     0.122 A 
HETATM   22  N24   D T9000      -1.243  -6.826  11.344  1.00 34.71    -0.168 NA
HETATM   23  N26   D T9000      -2.217  -7.499  11.857  1.00 35.30    -0.252 N 
HETATM   24  C7    D T9000      -3.463  -6.871  11.667  1.00 31.45     0.097 A 
BRANCH  23  25
HETATM   25  C20   D T9000      -2.001  -8.786  12.559  1.00 38.85     0.110 C 
HETATM   26  C8    D T9000      -3.311  -9.266  13.218  1.00 41.27     0.063 C 
HETATM   27  C10   D T9000      -3.060 -10.608  13.944  1.00 43.11     0.292 C 
HETATM   28  N25   D T9000      -1.948 -10.516  14.933  1.00 43.93     0.339 N 
HETATM   29  C11   D T9000      -0.681 -10.011  14.330  1.00 43.41     0.292 C 
HETATM   30  C9    D T9000      -0.877  -8.654  13.616  1.00 42.01     0.063 C 
ENDBRANCH  23  25
ENDBRANCH   7  20
TORSDOF 5
ENDMDL
MODEL 4
REMARK VINA RESULT:    -9.009      1.515      2.405
REMARK INTER + INTRA:         -12.246
REMARK INTER:                 -11.209
REMARK INTRA:                  -1.037
REMARK UNBOUND:                -0.603
REMARK  5 active torsions:
REMARK  status: ('A' for Active; 'I' for Inactive)
REMARK    1  A    between atoms: C17_7  and  C21_10 
REMARK    2  A    between atoms: C21_10  and  O27_12 
REMARK    3  A    between atoms: O27_12  and  C15_13 
REMARK    4  A    between atoms: C14_19  and  C16_20 
REMARK    5  A    between atoms: N26_23  and  C20_25 
ROOT
HETATM    1  C15   D T9000      -3.023   0.382  10.249  1.00 25.10     0.125 A 
HETATM    2  C4    D T9000      -2.893  -1.034  10.451  1.00 25.13     0.029 A 
HETATM    3  C19   D T9000      -4.360   0.898  10.252  1.00 24.76     0.173 A 
HETATM    4  N22   D T9000      -4.560   2.281  10.067  1.00 21.31    -0.078 NA
HETATM    5  N23   D T9000      -5.471   0.137  10.432  1.00 23.34    -0.228 NA
HETATM    6  C5    D T9000      -5.314  -1.203  10.620  1.00 25.82     0.100 A 
HETATM    7  C14   D T9000      -4.041  -1.856  10.638  1.00 24.84     0.024 A 
ENDROOT
BRANCH   1   8
HETATM    8  O27   D T9000      -1.959   1.276  10.079  1.00 27.54    -0.326 OA
BRANCH   8   9
HETATM    9  C21   D T9000      -0.827   1.456  11.001  1.00 30.12     0.145 C 
HETATM   10  C1    D T9000      -0.233   2.835  10.675  1.00 31.63     0.038 C 
BRANCH   9  11
HETATM   11  C17   D T9000       0.284   0.350  10.910  1.00 31.84     0.029 A 
HETATM   12  C13   D T9000       0.658  -0.187   9.611  1.00 30.66     0.057 A 
HETATM   13 CL     D T9000      -0.061   0.339   8.117  1.00 30.46    -0.083 Cl
HETATM   14  C3    D T9000       1.660  -1.194   9.515  1.00 30.46     0.013 A 
HETATM   15  C2    D T9000       2.310  -1.693  10.671  1.00 31.74     0.031 A 
HETATM   16  C12   D T9000       1.974  -1.198  11.959  1.00 32.80     0.150 A 
HETATM   17  F     D T9000       2.610  -1.697  13.032  1.00 32.49    -0.203 F 
HETATM   18  C18   D T9000       0.969  -0.179  12.099  1.00 33.48     0.084 A 
HETATM   19 CL2    D T9000       0.625   0.373  13.724  1.00 45.60    -0.080 Cl
ENDBRANCH   9  11
ENDBRANCH   8   9
ENDBRANCH   1   8
BRANCH   7  20
HETATM   20  C16   D T9000      -3.897  -3.351  10.852  1.00 28.58     0.041 A 
HETATM   21  C6    D T9000      -4.800  -4.415  10.400  1.00 32.07     0.122 A 
HETATM   22  N24   D T9000      -4.327  -5.551  10.776  1.00 34.71    -0.168 NA
HETATM   23  N26   D T9000      -3.224  -5.373  11.421  1.00 35.30    -0.252 N 
HETATM   24  C7    D T9000      -2.875  -4.013  11.520  1.00 31.45     0.097 A 
BRANCH  23  25
HETATM   25  C20   D T9000      -2.445  -6.504  11.978  1.00 38.85     0.110 C 
HETATM   26  C8    D T9000      -1.255  -6.843  11.056  1.00 41.27     0.063 C 
HETATM   27  C10   D T9000      -0.460  -8.025  11.658  1.00 43.11     0.292 C 
HETATM   28  N25   D T9000      -1.321  -9.217  11.906  1.00 43.93     0.339 N 
HETATM   29  C11   D T9000      -2.504  -8.906  12.758  1.00 43.41     0.292 C 
HETATM   30  C9    D T9000      -3.347  -7.746  12.180  1.00 42.01     0.063 C 
ENDBRANCH  23  25
ENDBRANCH   7  20
TORSDOF 5
ENDMDL
MODEL 5
REMARK VINA RESULT:    -8.793      1.653      2.492
REMARK INTER + INTRA:         -11.966
REMARK INTER:                 -11.230
REMARK INTRA:                  -0.736
REMARK UNBOUND:                -0.603
REMARK  5 active torsions:
REMARK  status: ('A' for Active; 'I' for Inactive)
REMARK    1  A    between atoms: C17_7  and  C21_10 
REMARK    2  A    between atoms: C21_10  and  O27_12 
REMARK    3  A    between atoms: O27_12  and  C15_13 
REMARK    4  A    between atoms: C14_19  and  C16_20 
REMARK    5  A    between atoms: N26_23  and  C20_25 
ROOT
HETATM    1  C15   D T9000      -3.200   0.302  10.569  1.00 25.10     0.125 A 
HETATM    2  C4    D T9000      -3.156  -1.131  10.665  1.00 25.13     0.029 A 
HETATM    3  C19   D T9000      -4.501   0.880  10.401  1.00 24.76     0.173 A 
HETATM    4  N22   D T9000      -4.619   2.281  10.306  1.00 21.31    -0.078 NA
HETATM    5  N23   D T9000      -5.652   0.162  10.332  1.00 23.34    -0.228 NA
HETATM    6  C5    D T9000      -5.575  -1.195  10.426  1.00 25.82     0.100 A 
HETATM    7  C14   D T9000      -4.346  -1.908  10.593  1.00 24.84     0.024 A 
ENDROOT
BRANCH   1   8
HETATM    8  O27   D T9000      -2.093   1.153  10.651  1.00 27.54    -0.326 OA
BRANCH   8   9
HETATM    9  C21   D T9000      -0.891   0.930  11.470  1.00 30.12     0.145 C 
HETATM   10  C1    D T9000      -0.398   2.326  11.882  1.00 31.63     0.038 C 
BRANCH   9  11
HETATM   11  C17   D T9000       0.259   0.135  10.757  1.00 31.84     0.029 A 
HETATM   12  C13   D T9000       0.328   0.120   9.304  1.00 30.66     0.057 A 
HETATM   13 CL     D T9000      -0.808   0.955   8.285  1.00 30.46    -0.083 Cl
HETATM   14  C3    D T9000       1.363  -0.601   8.644  1.00 30.46     0.013 A 
HETATM   15  C2    D T9000       2.341  -1.317   9.380  1.00 31.74     0.031 A 
HETATM   16  C12   D T9000       2.310  -1.329  10.800  1.00 32.80     0.150 A 
HETATM   17  F     D T9000       3.252  -2.021  11.462  1.00 32.49    -0.203 F 
HETATM   18  C18   D T9000       1.283  -0.611  11.504  1.00 33.48     0.084 A 
HETATM   19 CL2    D T9000       1.327  -0.681  13.253  1.00 45.60    -0.080 Cl
ENDBRANCH   9  11
ENDBRANCH   8   9
ENDBRANCH   1   8
BRANCH   7  20
HETATM   20  C16   D T9000      -4.292  -3.421  10.697  1.00 28.58     0.041 A 
HETATM   21  C6    D T9000      -5.343  -4.384  10.350  1.00 32.07     0.122 A 
HETATM   22  N24   D T9000      -4.909  -5.575  10.576  1.00 34.71    -0.168 NA
HETATM   23  N26   D T9000      -3.701  -5.520  11.028  1.00 35.30    -0.252 N 
HETATM   24  C7    D T9000      -3.229  -4.198  11.139  1.00 31.45     0.097 A 
BRANCH  23  25
HETATM   25  C20   D T9000      -2.935  -6.739  11.378  1.00 38.85     0.110 C 
HETATM   26  C8    D T9000      -3.757  -7.637  12.325  1.00 41.27     0.063 C 
HETATM   27  C10   D T9000      -2.937  -8.900  12.677  1.00 43.11     0.292 C 
HETATM   28  N25   D T9000      -1.604  -8.566  13.256  1.00 43.93     0.339 N 
HETATM   29  C11   D T9000      -0.807  -7.661  12.379  1.00 43.41     0.292 C 
HETATM   30  C9    D T9000      -1.577  -6.368  12.024  1.00 42.01     0.063 C 
ENDBRANCH  23  25
ENDBRANCH   7  20
TORSDOF 5
ENDMDL
MODEL 6
REMARK VINA RESULT:    -8.697      2.406      3.230
REMARK INTER + INTRA:         -11.843
REMARK INTER:                 -10.898
REMARK INTRA:                  -0.944
REMARK UNBOUND:                -0.603
REMARK  5 active torsions:
REMARK  status: ('A' for Active; 'I' for Inactive)
REMARK    1  A    between atoms: C17_7  and  C21_10 
REMARK    2  A    between atoms: C21_10  and  O27_12 
REMARK    3  A    between atoms: O27_12  and  C15_13 
REMARK    4  A    between atoms: C14_19  and  C16_20 
REMARK    5  A    between atoms: N26_23  and  C20_25 
ROOT
HETATM    1  C15   D T9000      -2.189  -0.106  10.803  1.00 25.10     0.125 A 
HETATM    2  C4    D T9000      -2.344  -1.532  10.895  1.00 25.13     0.029 A 
HETATM    3  C19   D T9000      -3.381   0.639  10.523  1.00 24.76     0.173 A 
HETATM    4  N22   D T9000      -3.303   2.043  10.426  1.00 21.31    -0.078 NA
HETATM    5  N23   D T9000      -4.606   0.080  10.347  1.00 23.34    -0.228 NA
HETATM    6  C5    D T9000      -4.720  -1.274  10.439  1.00 25.82     0.100 A 
HETATM    7  C14   D T9000      -3.617  -2.143  10.712  1.00 24.84     0.024 A 
ENDROOT
BRANCH   1   8
HETATM    8  O27   D T9000      -0.990   0.591  10.989  1.00 27.54    -0.326 OA
BRANCH   8   9
HETATM    9  C21   D T9000       0.285   0.011  11.440  1.00 30.12     0.145 C 
HETATM   10  C1    D T9000       0.660   0.769  12.724  1.00 31.63     0.038 C 
BRANCH   9  11
HETATM   11  C17   D T9000       1.455   0.093  10.398  1.00 31.84     0.029 A 
HETATM   12  C13   D T9000       2.082  -1.130   9.922  1.00 30.66     0.057 A 
HETATM   13 CL     D T9000       1.596  -2.717  10.445  1.00 30.46    -0.083 Cl
HETATM   14  C3    D T9000       3.149  -1.069   8.981  1.00 30.46     0.013 A 
HETATM   15  C2    D T9000       3.622   0.174   8.491  1.00 31.74     0.031 A 
HETATM   16  C12   D T9000       3.040   1.393   8.929  1.00 32.80     0.150 A 
HETATM   17  F     D T9000       3.517   2.551   8.443  1.00 32.49    -0.203 F 
HETATM   18  C18   D T9000       1.958   1.374   9.877  1.00 33.48     0.084 A 
HETATM   19 CL2    D T9000       1.301   2.924  10.356  1.00 45.60    -0.080 Cl
ENDBRANCH   9  11
ENDBRANCH   8   9
ENDBRANCH   1   8
BRANCH   7  20
HETATM   20  C16   D T9000      -3.774  -3.649  10.811  1.00 28.58     0.041 A 
HETATM   21  C6    D T9000      -4.917  -4.464  10.384  1.00 32.07     0.122 A 
HETATM   22  N24   D T9000      -4.663  -5.701  10.635  1.00 34.71    -0.168 NA
HETATM   23  N26   D T9000      -3.496  -5.807  11.174  1.00 35.30    -0.252 N 
HETATM   24  C7    D T9000      -2.860  -4.560  11.326  1.00 31.45     0.097 A 
BRANCH  23  25
HETATM   25  C20   D T9000      -2.928  -7.117  11.573  1.00 38.85     0.110 C 
HETATM   26  C8    D T9000      -3.913  -7.874  12.487  1.00 41.27     0.063 C 
HETATM   27  C10   D T9000      -3.298  -9.234  12.890  1.00 43.11     0.292 C 
HETATM   28  N25   D T9000      -1.960  -9.082  13.531  1.00 43.93     0.339 N 
HETATM   29  C11   D T9000      -1.002  -8.314  12.686  1.00 43.41     0.292 C 
HETATM   30  C9    D T9000      -1.563  -6.931  12.281  1.00 42.01     0.063 C 
ENDBRANCH  23  25
ENDBRANCH   7  20
TORSDOF 5
ENDMDL
MODEL 7
REMARK VINA RESULT:    -8.624      2.281      2.705
REMARK INTER + INTRA:         -11.748
REMARK INTER:                 -11.066
REMARK INTRA:                  -0.682
REMARK UNBOUND:                -0.603
REMARK  5 active torsions:
REMARK  status: ('A' for Active; 'I' for Inactive)
REMARK    1  A    between atoms: C17_7  and  C21_10 
REMARK    2  A    between atoms: C21_10  and  O27_12 
REMARK    3  A    between atoms: O27_12  and  C15_13 
REMARK    4  A    between atoms: C14_19  and  C16_20 
REMARK    5  A    between atoms: N26_23  and  C20_25 
ROOT
HETATM    1  C15   D T9000      -2.354   0.268  10.641  1.00 25.10     0.125 A 
HETATM    2  C4    D T9000      -2.500  -1.156  10.760  1.00 25.13     0.029 A 
HETATM    3  C19   D T9000      -3.536   0.991  10.274  1.00 24.76     0.173 A 
HETATM    4  N22   D T9000      -3.468   2.394  10.147  1.00 21.31    -0.078 NA
HETATM    5  N23   D T9000      -4.743   0.414  10.043  1.00 23.34    -0.228 NA
HETATM    6  C5    D T9000      -4.847  -0.939  10.162  1.00 25.82     0.100 A 
HETATM    7  C14   D T9000      -3.752  -1.788  10.520  1.00 24.84     0.024 A 
ENDROOT
BRANCH   1   8
HETATM    8  O27   D T9000      -1.176   0.985  10.878  1.00 27.54    -0.326 OA
BRANCH   8   9
HETATM    9  C21   D T9000       0.182   0.420  10.929  1.00 30.12     0.145 C 
HETATM   10  C1    D T9000       0.428   0.049  12.400  1.00 31.63     0.038 C 
BRANCH   9  11
HETATM   11  C17   D T9000       1.316   1.374  10.412  1.00 31.84     0.029 A 
HETATM   12  C13   D T9000       1.441   2.711  10.971  1.00 30.66     0.057 A 
HETATM   13 CL     D T9000       0.390   3.329  12.212  1.00 30.46    -0.083 Cl
HETATM   14  C3    D T9000       2.462   3.589  10.507  1.00 30.46     0.013 A 
HETATM   15  C2    D T9000       3.371   3.185   9.497  1.00 31.74     0.031 A 
HETATM   16  C12   D T9000       3.284   1.888   8.923  1.00 32.80     0.150 A 
HETATM   17  F     D T9000       4.163   1.542   7.968  1.00 32.49    -0.203 F 
HETATM   18  C18   D T9000       2.269   0.971   9.367  1.00 33.48     0.084 A 
HETATM   19 CL2    D T9000       2.242  -0.605   8.605  1.00 45.60    -0.080 Cl
ENDBRANCH   9  11
ENDBRANCH   8   9
ENDBRANCH   1   8
BRANCH   7  20
HETATM   20  C16   D T9000      -3.899  -3.293  10.648  1.00 28.58     0.041 A 
HETATM   21  C6    D T9000      -5.066  -4.114  10.309  1.00 32.07     0.122 A 
HETATM   22  N24   D T9000      -4.793  -5.348  10.557  1.00 34.71    -0.168 NA
HETATM   23  N26   D T9000      -3.592  -5.446  11.017  1.00 35.30    -0.252 N 
HETATM   24  C7    D T9000      -2.950  -4.196  11.110  1.00 31.45     0.097 A 
BRANCH  23  25
HETATM   25  C20   D T9000      -2.995  -6.749  11.392  1.00 38.85     0.110 C 
HETATM   26  C8    D T9000      -3.964  -7.547  12.289  1.00 41.27     0.063 C 
HETATM   27  C10   D T9000      -3.319  -8.900  12.667  1.00 43.11     0.292 C 
HETATM   28  N25   D T9000      -1.986  -8.729  13.314  1.00 43.93     0.339 N 
HETATM   29  C11   D T9000      -1.044  -7.923  12.486  1.00 43.41     0.292 C 
HETATM   30  C9    D T9000      -1.636  -6.546  12.107  1.00 42.01     0.063 C 
ENDBRANCH  23  25
ENDBRANCH   7  20
TORSDOF 5
ENDMDL
MODEL 8
REMARK VINA RESULT:    -8.523      5.252      9.406
REMARK INTER + INTRA:         -11.618
REMARK INTER:                 -10.890
REMARK INTRA:                  -0.728
REMARK UNBOUND:                -0.603
REMARK  5 active torsions:
REMARK  status: ('A' for Active; 'I' for Inactive)
REMARK    1  A    between atoms: C17_7  and  C21_10 
REMARK    2  A    between atoms: C21_10  and  O27_12 
REMARK    3  A    between atoms: O27_12  and  C15_13 
REMARK    4  A    between atoms: C14_19  and  C16_20 
REMARK    5  A    between atoms: N26_23  and  C20_25 
ROOT
HETATM    1  C15   D T9000       0.525  -1.575   9.783  1.00 25.10     0.125 A 
HETATM    2  C4    D T9000       1.086  -0.252   9.762  1.00 25.13     0.029 A 
HETATM    3  C19   D T9000       1.440  -2.649   9.529  1.00 24.76     0.173 A 
HETATM    4  N22   D T9000       0.959  -3.974   9.542  1.00 21.31    -0.078 NA
HETATM    5  N23   D T9000       2.764  -2.480   9.280  1.00 23.34    -0.228 NA
HETATM    6  C5    D T9000       3.264  -1.213   9.265  1.00 25.82     0.100 A 
HETATM    7  C14   D T9000       2.470  -0.047   9.499  1.00 24.84     0.024 A 
ENDROOT
BRANCH   1   8
HETATM    8  O27   D T9000      -0.813  -1.882  10.053  1.00 27.54    -0.326 OA
BRANCH   8   9
HETATM    9  C21   D T9000      -1.603  -1.377  11.186  1.00 30.12     0.145 C 
HETATM   10  C1    D T9000      -1.612  -2.506  12.230  1.00 31.63     0.038 C 
BRANCH   9  11
HETATM   11  C17   D T9000      -3.072  -0.952  10.833  1.00 31.84     0.029 A 
HETATM   12  C13   D T9000      -3.442   0.455  10.868  1.00 30.66     0.057 A 
HETATM   13 CL     D T9000      -2.328   1.725  11.282  1.00 30.46    -0.083 Cl
HETATM   14  C3    D T9000      -4.773   0.853  10.555  1.00 30.46     0.013 A 
HETATM   15  C2    D T9000      -5.760  -0.103  10.205  1.00 31.74     0.031 A 
HETATM   16  C12   D T9000      -5.442  -1.486  10.158  1.00 32.80     0.150 A 
HETATM   17  F     D T9000      -6.404  -2.361   9.825  1.00 32.49    -0.203 F 
HETATM   18  C18   D T9000      -4.109  -1.929  10.465  1.00 33.48     0.084 A 
HETATM   19 CL2    D T9000      -3.809  -3.652  10.378  1.00 45.60    -0.080 Cl
ENDBRANCH   9  11
ENDBRANCH   8   9
ENDBRANCH   1   8
BRANCH   7  20
HETATM   20  C16   D T9000       3.056   1.353   9.480  1.00 28.58     0.041 A 
HETATM   21  C6    D T9000       2.985   2.372  10.533  1.00 32.07     0.122 A 
HETATM   22  N24   D T9000       3.610   3.426  10.136  1.00 34.71    -0.168 NA
HETATM   23  N26   D T9000       4.085   3.231   8.952  1.00 35.30    -0.252 N 
HETATM   24  C7    D T9000       3.782   1.949   8.456  1.00 31.45     0.097 A 
BRANCH  23  25
HETATM   25  C20   D T9000       4.857   4.271   8.233  1.00 38.85     0.110 C 
HETATM   26  C8    D T9000       5.935   4.876   9.156  1.00 41.27     0.063 C 
HETATM   27  C10   D T9000       6.725   5.958   8.384  1.00 43.11     0.292 C 
HETATM   28  N25   D T9000       5.834   7.010   7.814  1.00 43.93     0.339 N 
HETATM   29  C11   D T9000       4.756   6.447   6.953  1.00 43.41     0.292 C 
HETATM   30  C9    D T9000       3.918   5.379   7.694  1.00 42.01     0.063 C 
ENDBRANCH  23  25
ENDBRANCH   7  20
TORSDOF 5
ENDMDL
MODEL 9
REMARK VINA RESULT:    -8.503      2.530      6.409
REMARK INTER + INTRA:         -11.591
REMARK INTER:                 -10.555
REMARK INTRA:                  -1.037
REMARK UNBOUND:                -0.603
REMARK  5 active torsions:
REMARK  status: ('A' for Active; 'I' for Inactive)
REMARK    1  A    between atoms: C17_7  and  C21_10 
REMARK    2  A    between atoms: C21_10  and  O27_12 
REMARK    3  A    between atoms: O27_12  and  C15_13 
REMARK    4  A    between atoms: C14_19  and  C16_20 
REMARK    5  A    between atoms: N26_23  and  C20_25 
ROOT
HETATM    1  C15   D T9000      -1.079  -4.781  11.247  1.00 25.10     0.125 A 
HETATM    2  C4    D T9000      -1.952  -3.723  10.819  1.00 25.13     0.029 A 
HETATM    3  C19   D T9000      -1.712  -6.025  11.574  1.00 24.76     0.173 A 
HETATM    4  N22   D T9000      -0.914  -7.108  11.995  1.00 21.31    -0.078 NA
HETATM    5  N23   D T9000      -3.051  -6.242  11.500  1.00 23.34    -0.228 NA
HETATM    6  C5    D T9000      -3.851  -5.218  11.091  1.00 25.82     0.100 A 
HETATM    7  C14   D T9000      -3.359  -3.923  10.735  1.00 24.84     0.024 A 
ENDROOT
BRANCH   1   8
HETATM    8  O27   D T9000       0.315  -4.693  11.340  1.00 27.54    -0.326 OA
BRANCH   8   9
HETATM    9  C21   D T9000       1.184  -3.846  10.508  1.00 30.12     0.145 C 
HETATM   10  C1    D T9000       2.442  -4.683  10.227  1.00 31.63     0.038 C 
BRANCH   9  11
HETATM   11  C17   D T9000       1.578  -2.469  11.150  1.00 31.84     0.029 A 
HETATM   12  C13   D T9000       2.292  -2.445  12.417  1.00 30.66     0.057 A 
HETATM   13 CL     D T9000       2.751  -3.883  13.282  1.00 30.46    -0.083 Cl
HETATM   14  C3    D T9000       2.650  -1.202  13.013  1.00 30.46     0.013 A 
HETATM   15  C2    D T9000       2.323   0.029  12.392  1.00 31.74     0.031 A 
HETATM   16  C12   D T9000       1.626   0.051  11.154  1.00 32.80     0.150 A 
HETATM   17  F     D T9000       1.332   1.238  10.597  1.00 32.49    -0.203 F 
HETATM   18  C18   D T9000       1.248  -1.182  10.518  1.00 33.48     0.084 A 
HETATM   19 CL2    D T9000       0.397  -1.056   8.994  1.00 45.60    -0.080 Cl
ENDBRANCH   9  11
ENDBRANCH   8   9
ENDBRANCH   1   8
BRANCH   7  20
HETATM   20  C16   D T9000      -4.275  -2.802  10.281  1.00 28.58     0.041 A 
HETATM   21  C6    D T9000      -5.678  -2.901   9.865  1.00 32.07     0.122 A 
HETATM   22  N24   D T9000      -6.106  -1.726   9.558  1.00 34.71    -0.168 NA
HETATM   23  N26   D T9000      -5.161  -0.862   9.718  1.00 35.30    -0.252 N 
HETATM   24  C7    D T9000      -3.966  -1.452  10.172  1.00 31.45     0.097 A 
BRANCH  23  25
HETATM   25  C20   D T9000      -5.357   0.581   9.443  1.00 38.85     0.110 C 
HETATM   26  C8    D T9000      -5.186   0.870   7.938  1.00 41.27     0.063 C 
HETATM   27  C10   D T9000      -5.395   2.380   7.677  1.00 43.11     0.292 C 
HETATM   28  N25   D T9000      -4.488   3.226   8.505  1.00 43.93     0.339 N 
HETATM   29  C11   D T9000      -4.601   2.935   9.963  1.00 43.41     0.292 C 
HETATM   30  C9    D T9000      -4.372   1.439  10.276  1.00 42.01     0.063 C 
ENDBRANCH  23  25
ENDBRANCH   7  20
TORSDOF 5
ENDMDL
