MODEL 1
REMARK VINA RESULT:    -7.762      0.000      0.000
REMARK INTER + INTRA:          -9.034
REMARK INTER:                  -8.669
REMARK INTRA:                  -0.364
REMARK UNBOUND:                -0.364
REMARK  2 active torsions:
REMARK  status: ('A' for Active; 'I' for Inactive)
REMARK    1  A    between atoms: C5_4  and  O7_13 
REMARK    2  A    between atoms: C8_10  and  O7_13 
ROOT
HETATM    1  O7    D T 802       5.806   0.096  -7.601  1.00 48.82    -0.304 OA
ENDROOT
BRANCH   1   2
HETATM    2  C5    D T 802       5.067   0.980  -6.853  1.00 49.19     0.125 A 
HETATM    3  C6    D T 802       3.968   0.520  -6.133  1.00 48.70     0.154 A 
HETATM    4  C1    D T 802       3.215   1.399  -5.374  1.00 48.88     0.041 A 
HETATM    5  O17   D T 802       3.609  -0.791  -6.149  1.00 50.47    -0.188 OA
HETATM    6  C2    D T 802       3.554   2.743  -5.336  1.00 48.41     0.060 A 
HETATM    7  C3    D T 802       4.648   3.226  -6.066  1.00 48.74     0.014 A 
HETATM    8 CL14   D T 802       2.539   3.817  -4.331  1.00 49.19    -0.082 Cl
HETATM    9  C4    D T 802       5.408   2.340  -6.829  1.00 49.20     0.028 A 
ENDBRANCH   1   2
BRANCH   1  10
HETATM   10  C8    D T 802       6.183   0.427  -8.882  1.00 49.10     0.111 A 
HETATM   11  C9    D T 802       5.249   0.427  -9.921  1.00 48.28     0.081 A 
HETATM   12  C10   D T 802       5.627   0.750 -11.207  1.00 46.88     0.025 A 
HETATM   13 CL16   D T 802       3.535   0.005  -9.645  1.00 48.70    -0.080 Cl
HETATM   14  C11   D T 802       6.951   1.068 -11.433  1.00 46.87     0.059 A 
HETATM   15  C12   D T 802       7.900   1.077 -10.418  1.00 47.33     0.013 A 
HETATM   16 CL15   D T 802       7.452   1.476 -13.084  1.00 47.93    -0.082 Cl
HETATM   17  C13   D T 802       7.520   0.756  -9.131  1.00 47.70     0.026 A 
ENDBRANCH   1  10
TORSDOF 2
ENDMDL
MODEL 2
REMARK VINA RESULT:    -7.484      3.188      3.569
REMARK INTER + INTRA:          -8.723
REMARK INTER:                  -8.270
REMARK INTRA:                  -0.454
REMARK UNBOUND:                -0.364
REMARK  2 active torsions:
REMARK  status: ('A' for Active; 'I' for Inactive)
REMARK    1  A    between atoms: C5_4  and  O7_13 
REMARK    2  A    between atoms: C8_10  and  O7_13 
ROOT
HETATM    1  O7    D T 802       6.224   1.544  -7.654  1.00 48.82    -0.304 OA
ENDROOT
BRANCH   1   2
HETATM    2  C5    D T 802       7.258   1.569  -6.751  1.00 49.19     0.125 A 
HETATM    3  C6    D T 802       7.301   0.623  -5.730  1.00 48.70     0.154 A 
HETATM    4  C1    D T 802       8.337   0.635  -4.813  1.00 48.88     0.041 A 
HETATM    5  O17   D T 802       6.341  -0.332  -5.608  1.00 50.47    -0.188 OA
HETATM    6  C2    D T 802       9.333   1.595  -4.909  1.00 48.41     0.060 A 
HETATM    7  C3    D T 802       9.298   2.564  -5.920  1.00 48.74     0.014 A 
HETATM    8 CL14   D T 802      10.641   1.545  -3.693  1.00 49.19    -0.082 Cl
HETATM    9  C4    D T 802       8.254   2.551  -6.846  1.00 49.20     0.028 A 
ENDBRANCH   1   2
BRANCH   1  10
HETATM   10  C8    D T 802       6.491   1.480  -9.002  1.00 49.10     0.111 A 
HETATM   11  C9    D T 802       5.965   2.434  -9.878  1.00 48.28     0.081 A 
HETATM   12  C10   D T 802       6.225   2.366 -11.231  1.00 46.88     0.025 A 
HETATM   13 CL16   D T 802       4.933   3.773  -9.301  1.00 48.70    -0.080 Cl
HETATM   14  C11   D T 802       7.013   1.330 -11.688  1.00 46.87     0.059 A 
HETATM   15  C12   D T 802       7.550   0.369 -10.840  1.00 47.33     0.013 A 
HETATM   16 CL15   D T 802       7.348   1.226 -13.427  1.00 47.93    -0.082 Cl
HETATM   17  C13   D T 802       7.291   0.439  -9.487  1.00 47.70     0.026 A 
ENDBRANCH   1  10
TORSDOF 2
ENDMDL
MODEL 3
REMARK VINA RESULT:    -7.432      1.159      5.720
REMARK INTER + INTRA:          -8.666
REMARK INTER:                  -8.412
REMARK INTRA:                  -0.254
REMARK UNBOUND:                -0.364
REMARK  2 active torsions:
REMARK  status: ('A' for Active; 'I' for Inactive)
REMARK    1  A    between atoms: C5_4  and  O7_13 
REMARK    2  A    between atoms: C8_10  and  O7_13 
ROOT
HETATM    1  O7    D T 802       5.929   0.223  -7.722  1.00 48.82    -0.304 OA
ENDROOT
BRANCH   1   2
HETATM    2  C5    D T 802       6.324   0.535  -9.000  1.00 49.19     0.125 A 
HETATM    3  C6    D T 802       5.394   0.494 -10.036  1.00 48.70     0.154 A 
HETATM    4  C1    D T 802       5.777   0.806 -11.328  1.00 48.88     0.041 A 
HETATM    5  O17   D T 802       4.097   0.154  -9.810  1.00 50.47    -0.188 OA
HETATM    6  C2    D T 802       7.092   1.157 -11.593  1.00 48.41     0.060 A 
HETATM    7  C3    D T 802       8.044   1.189 -10.566  1.00 48.74     0.014 A 
HETATM    8 CL14   D T 802       7.512   1.552 -13.284  1.00 49.19    -0.082 Cl
HETATM    9  C4    D T 802       7.658   0.876  -9.263  1.00 49.20     0.028 A 
ENDBRANCH   1   2
BRANCH   1  10
HETATM   10  C8    D T 802       5.241   1.148  -6.971  1.00 49.10     0.111 A 
HETATM   11  C9    D T 802       4.109   0.772  -6.243  1.00 48.28     0.081 A 
HETATM   12  C10   D T 802       3.414   1.700  -5.496  1.00 46.88     0.025 A 
HETATM   13 CL16   D T 802       3.503  -0.908  -6.245  1.00 48.70    -0.080 Cl
HETATM   14  C11   D T 802       3.868   3.003  -5.496  1.00 46.87     0.059 A 
HETATM   15  C12   D T 802       4.991   3.403  -6.209  1.00 47.33     0.013 A 
HETATM   16 CL15   D T 802       2.977   4.208  -4.547  1.00 47.93    -0.082 Cl
HETATM   17  C13   D T 802       5.687   2.474  -6.954  1.00 47.70     0.026 A 
ENDBRANCH   1  10
TORSDOF 2
ENDMDL
MODEL 4
REMARK VINA RESULT:    -7.347      3.289      6.004
REMARK INTER + INTRA:          -8.570
REMARK INTER:                  -8.161
REMARK INTRA:                  -0.409
REMARK UNBOUND:                -0.364
REMARK  2 active torsions:
REMARK  status: ('A' for Active; 'I' for Inactive)
REMARK    1  A    between atoms: C5_4  and  O7_13 
REMARK    2  A    between atoms: C8_10  and  O7_13 
ROOT
HETATM    1  O7    D T 802       6.262   1.903  -7.851  1.00 48.82    -0.304 OA
ENDROOT
BRANCH   1   2
HETATM    2  C5    D T 802       6.554   1.711  -9.179  1.00 49.19     0.125 A 
HETATM    3  C6    D T 802       6.055   2.600 -10.128  1.00 48.70     0.154 A 
HETATM    4  C1    D T 802       6.342   2.420 -11.470  1.00 48.88     0.041 A 
HETATM    5  O17   D T 802       5.284   3.660  -9.768  1.00 50.47    -0.188 OA
HETATM    6  C2    D T 802       7.125   1.349 -11.870  1.00 48.41     0.060 A 
HETATM    7  C3    D T 802       7.624   0.436 -10.932  1.00 48.74     0.014 A 
HETATM    8 CL14   D T 802       7.458   1.184 -13.619  1.00 49.19    -0.082 Cl
HETATM    9  C4    D T 802       7.337   0.619  -9.579  1.00 49.20     0.028 A 
ENDBRANCH   1   2
BRANCH   1  10
HETATM   10  C8    D T 802       7.228   1.683  -6.897  1.00 49.10     0.111 A 
HETATM   11  C9    D T 802       7.128   0.601  -6.019  1.00 48.28     0.081 A 
HETATM   12  C10   D T 802       8.092   0.384  -5.056  1.00 46.88     0.025 A 
HETATM   13 CL16   D T 802       5.758  -0.544  -6.089  1.00 48.70    -0.080 Cl
HETATM   14  C11   D T 802       9.148   1.269  -4.986  1.00 46.87     0.059 A 
HETATM   15  C12   D T 802       9.273   2.352  -5.847  1.00 47.33     0.013 A 
HETATM   16 CL15   D T 802      10.389   1.007  -3.747  1.00 47.93    -0.082 Cl
HETATM   17  C13   D T 802       8.310   2.566  -6.812  1.00 47.70     0.026 A 
ENDBRANCH   1  10
TORSDOF 2
ENDMDL
MODEL 5
REMARK VINA RESULT:    -7.243      2.226      5.976
REMARK INTER + INTRA:          -8.454
REMARK INTER:                  -7.931
REMARK INTRA:                  -0.523
REMARK UNBOUND:                -0.364
REMARK  2 active torsions:
REMARK  status: ('A' for Active; 'I' for Inactive)
REMARK    1  A    between atoms: C5_4  and  O7_13 
REMARK    2  A    between atoms: C8_10  and  O7_13 
ROOT
HETATM    1  O7    D T 802       4.285   1.530  -7.853  1.00 48.82    -0.304 OA
ENDROOT
BRANCH   1   2
HETATM    2  C5    D T 802       5.113   1.383  -8.939  1.00 49.19     0.125 A 
HETATM    3  C6    D T 802       5.063   2.316  -9.971  1.00 48.70     0.154 A 
HETATM    4  C1    D T 802       5.892   2.182 -11.071  1.00 48.88     0.041 A 
HETATM    5  O17   D T 802       4.213   3.376  -9.928  1.00 50.47    -0.188 OA
HETATM    6  C2    D T 802       6.772   1.113 -11.146  1.00 48.41     0.060 A 
HETATM    7  C3    D T 802       6.825   0.157 -10.124  1.00 48.74     0.014 A 
HETATM    8 CL14   D T 802       7.814   1.008 -12.594  1.00 49.19    -0.082 Cl
HETATM    9  C4    D T 802       5.991   0.292  -9.014  1.00 49.20     0.028 A 
ENDBRANCH   1   2
BRANCH   1  10
HETATM   10  C8    D T 802       4.810   1.879  -6.630  1.00 49.10     0.111 A 
HETATM   11  C9    D T 802       4.856   0.954  -5.585  1.00 48.28     0.081 A 
HETATM   12  C10   D T 802       5.375   1.305  -4.356  1.00 46.88     0.025 A 
HETATM   13 CL16   D T 802       4.246  -0.714  -5.777  1.00 48.70    -0.080 Cl
HETATM   14  C11   D T 802       5.840   2.594  -4.194  1.00 46.87     0.059 A 
HETATM   15  C12   D T 802       5.808   3.534  -5.217  1.00 47.33     0.013 A 
HETATM   16 CL15   D T 802       6.501   3.062  -2.616  1.00 47.93    -0.082 Cl
HETATM   17  C13   D T 802       5.291   3.181  -6.446  1.00 47.70     0.026 A 
ENDBRANCH   1  10
TORSDOF 2
ENDMDL
MODEL 6
REMARK VINA RESULT:    -7.070      2.268      2.926
REMARK INTER + INTRA:          -8.262
REMARK INTER:                  -7.732
REMARK INTRA:                  -0.529
REMARK UNBOUND:                -0.364
REMARK  2 active torsions:
REMARK  status: ('A' for Active; 'I' for Inactive)
REMARK    1  A    between atoms: C5_4  and  O7_13 
REMARK    2  A    between atoms: C8_10  and  O7_13 
ROOT
HETATM    1  O7    D T 802       5.808   0.800  -5.077  1.00 48.82    -0.304 OA
ENDROOT
BRANCH   1   2
HETATM    2  C5    D T 802       5.044   1.846  -4.623  1.00 49.19     0.125 A 
HETATM    3  C6    D T 802       5.585   2.747  -3.709  1.00 48.70     0.154 A 
HETATM    4  C1    D T 802       4.827   3.807  -3.243  1.00 48.88     0.041 A 
HETATM    5  O17   D T 802       6.860   2.616  -3.256  1.00 50.47    -0.188 OA
HETATM    6  C2    D T 802       3.522   3.969  -3.684  1.00 48.41     0.060 A 
HETATM    7  C3    D T 802       2.956   3.064  -4.592  1.00 48.74     0.014 A 
HETATM    8 CL14   D T 802       2.606   5.363  -3.043  1.00 49.19    -0.082 Cl
HETATM    9  C4    D T 802       3.721   1.997  -5.064  1.00 49.20     0.028 A 
ENDBRANCH   1   2
BRANCH   1  10
HETATM   10  C8    D T 802       6.164   0.735  -6.405  1.00 49.10     0.111 A 
HETATM   11  C9    D T 802       5.570  -0.200  -7.255  1.00 48.28     0.081 A 
HETATM   12  C10   D T 802       5.932  -0.272  -8.585  1.00 46.88     0.025 A 
HETATM   13 CL16   D T 802       4.328  -1.346  -6.674  1.00 48.70    -0.080 Cl
HETATM   14  C11   D T 802       6.897   0.602  -9.041  1.00 46.87     0.059 A 
HETATM   15  C12   D T 802       7.504   1.542  -8.217  1.00 47.33     0.013 A 
HETATM   16 CL15   D T 802       7.378   0.514 -10.746  1.00 47.93    -0.082 Cl
HETATM   17  C13   D T 802       7.139   1.615  -6.889  1.00 47.70     0.026 A 
ENDBRANCH   1  10
TORSDOF 2
ENDMDL
MODEL 7
REMARK VINA RESULT:    -7.048      2.059      2.245
REMARK INTER + INTRA:          -8.236
REMARK INTER:                  -7.801
REMARK INTRA:                  -0.435
REMARK UNBOUND:                -0.364
REMARK  2 active torsions:
REMARK  status: ('A' for Active; 'I' for Inactive)
REMARK    1  A    between atoms: C5_4  and  O7_13 
REMARK    2  A    between atoms: C8_10  and  O7_13 
ROOT
HETATM    1  O7    D T 802       4.031   1.555  -7.212  1.00 48.82    -0.304 OA
ENDROOT
BRANCH   1   2
HETATM    2  C5    D T 802       4.401   2.037  -5.980  1.00 49.19     0.125 A 
HETATM    3  C6    D T 802       4.353   1.198  -4.870  1.00 48.70     0.154 A 
HETATM    4  C1    D T 802       4.724   1.670  -3.623  1.00 48.88     0.041 A 
HETATM    5  O17   D T 802       3.951  -0.096  -4.978  1.00 50.47    -0.188 OA
HETATM    6  C2    D T 802       5.139   2.985  -3.479  1.00 48.41     0.060 A 
HETATM    7  C3    D T 802       5.179   3.848  -4.582  1.00 48.74     0.014 A 
HETATM    8 CL14   D T 802       5.607   3.523  -1.840  1.00 49.19    -0.082 Cl
HETATM    9  C4    D T 802       4.808   3.372  -5.839  1.00 49.20     0.028 A 
ENDBRANCH   1   2
BRANCH   1  10
HETATM   10  C8    D T 802       4.990   1.298  -8.165  1.00 49.10     0.111 A 
HETATM   11  C9    D T 802       5.267   2.235  -9.164  1.00 48.28     0.081 A 
HETATM   12  C10   D T 802       6.222   1.976 -10.125  1.00 46.88     0.025 A 
HETATM   13 CL16   D T 802       4.407   3.798  -9.254  1.00 48.70    -0.080 Cl
HETATM   14  C11   D T 802       6.885   0.767 -10.070  1.00 46.87     0.059 A 
HETATM   15  C12   D T 802       6.630  -0.181  -9.088  1.00 47.33     0.013 A 
HETATM   16 CL15   D T 802       8.109   0.418 -11.306  1.00 47.93    -0.082 Cl
HETATM   17  C13   D T 802       5.677   0.080  -8.125  1.00 47.70     0.026 A 
ENDBRANCH   1  10
TORSDOF 2
ENDMDL
MODEL 8
REMARK VINA RESULT:    -7.041      2.362      2.646
REMARK INTER + INTRA:          -8.229
REMARK INTER:                  -7.949
REMARK INTRA:                  -0.280
REMARK UNBOUND:                -0.364
REMARK  2 active torsions:
REMARK  status: ('A' for Active; 'I' for Inactive)
REMARK    1  A    between atoms: C5_4  and  O7_13 
REMARK    2  A    between atoms: C8_10  and  O7_13 
ROOT
HETATM    1  O7    D T 802       6.537   3.008  -7.151  1.00 48.82    -0.304 OA
ENDROOT
BRANCH   1   2
HETATM    2  C5    D T 802       5.854   2.233  -6.246  1.00 49.19     0.125 A 
HETATM    3  C6    D T 802       4.809   2.790  -5.514  1.00 48.70     0.154 A 
HETATM    4  C1    D T 802       4.112   2.021  -4.599  1.00 48.88     0.041 A 
HETATM    5  O17   D T 802       4.444   4.090  -5.678  1.00 50.47    -0.188 OA
HETATM    6  C2    D T 802       4.459   0.692  -4.409  1.00 48.41     0.060 A 
HETATM    7  C3    D T 802       5.517   0.119  -5.125  1.00 48.74     0.014 A 
HETATM    8 CL14   D T 802       3.510  -0.240  -3.214  1.00 49.19    -0.082 Cl
HETATM    9  C4    D T 802       6.219   0.893  -6.049  1.00 49.20     0.028 A 
ENDBRANCH   1   2
BRANCH   1  10
HETATM   10  C8    D T 802       6.660   2.592  -8.457  1.00 49.10     0.111 A 
HETATM   11  C9    D T 802       5.727   2.984  -9.420  1.00 48.28     0.081 A 
HETATM   12  C10   D T 802       5.845   2.561 -10.727  1.00 46.88     0.025 A 
HETATM   13 CL16   D T 802       4.342   4.038  -9.014  1.00 48.70    -0.080 Cl
HETATM   14  C11   D T 802       6.905   1.739 -11.049  1.00 46.87     0.059 A 
HETATM   15  C12   D T 802       7.848   1.335 -10.112  1.00 47.33     0.013 A 
HETATM   16 CL15   D T 802       7.063   1.180 -12.725  1.00 47.93    -0.082 Cl
HETATM   17  C13   D T 802       7.731   1.761  -8.805  1.00 47.70     0.026 A 
ENDBRANCH   1  10
TORSDOF 2
ENDMDL
MODEL 9
REMARK VINA RESULT:    -6.940      1.776      6.081
REMARK INTER + INTRA:          -8.116
REMARK INTER:                  -7.630
REMARK INTRA:                  -0.485
REMARK UNBOUND:                -0.364
REMARK  2 active torsions:
REMARK  status: ('A' for Active; 'I' for Inactive)
REMARK    1  A    between atoms: C5_4  and  O7_13 
REMARK    2  A    between atoms: C8_10  and  O7_13 
ROOT
HETATM    1  O7    D T 802       6.176   0.956  -5.997  1.00 48.82    -0.304 OA
ENDROOT
BRANCH   1   2
HETATM    2  C5    D T 802       6.414   0.905  -7.349  1.00 49.19     0.125 A 
HETATM    3  C6    D T 802       7.602   1.423  -7.858  1.00 48.70     0.154 A 
HETATM    4  C1    D T 802       7.856   1.377  -9.217  1.00 48.88     0.041 A 
HETATM    5  O17   D T 802       8.539   1.978  -7.044  1.00 50.47    -0.188 OA
HETATM    6  C2    D T 802       6.921   0.817 -10.075  1.00 48.41     0.060 A 
HETATM    7  C3    D T 802       5.714   0.305  -9.583  1.00 48.74     0.014 A 
HETATM    8 CL14   D T 802       7.320   0.789 -11.817  1.00 49.19    -0.082 Cl
HETATM    9  C4    D T 802       5.459   0.349  -8.212  1.00 49.20     0.028 A 
ENDBRANCH   1   2
BRANCH   1  10
HETATM   10  C8    D T 802       5.267   1.856  -5.493  1.00 49.10     0.111 A 
HETATM   11  C9    D T 802       4.122   1.413  -4.826  1.00 48.28     0.081 A 
HETATM   12  C10   D T 802       3.204   2.315  -4.328  1.00 46.88     0.025 A 
HETATM   13 CL16   D T 802       3.783  -0.325  -4.591  1.00 48.70    -0.080 Cl
HETATM   14  C11   D T 802       3.452   3.659  -4.513  1.00 46.87     0.059 A 
HETATM   15  C12   D T 802       4.582   4.128  -5.171  1.00 47.33     0.013 A 
HETATM   16 CL15   D T 802       2.275   4.829  -3.885  1.00 47.93    -0.082 Cl
HETATM   17  C13   D T 802       5.500   3.225  -5.667  1.00 47.70     0.026 A 
ENDBRANCH   1  10
TORSDOF 2
ENDMDL
