MODEL 1
REMARK VINA RESULT:    -7.617      0.000      0.000
REMARK INTER + INTRA:          -9.024
REMARK INTER:                  -8.508
REMARK INTRA:                  -0.516
REMARK UNBOUND:                -0.516
REMARK  2 active torsions:
REMARK  status: ('A' for Active; 'I' for Inactive)
REMARK    1  A    between atoms: C5_4  and  O7_13 
REMARK    2  A    between atoms: C8_10  and  O7_13 
ROOT
HETATM    1  O7    D T 802       6.987   1.134  -6.719  1.00 48.82    -0.304 OA
ENDROOT
BRANCH   1   2
HETATM    2  C5    D T 802       7.193   1.329  -8.062  1.00 49.19     0.125 A 
HETATM    3  C6    D T 802       8.337   1.997  -8.492  1.00 48.70     0.154 A 
HETATM    4  C1    D T 802       8.560   2.200  -9.843  1.00 48.88     0.041 A 
HETATM    5  O17   D T 802       9.259   2.461  -7.608  1.00 50.47    -0.188 OA
HETATM    6  C2    D T 802       7.639   1.739 -10.771  1.00 48.41     0.060 A 
HETATM    7  C3    D T 802       6.475   1.078 -10.357  1.00 48.74     0.014 A 
HETATM    8 CL14   D T 802       7.996   2.032 -12.497  1.00 49.19    -0.082 Cl
HETATM    9  C4    D T 802       6.251   0.872  -8.995  1.00 49.20     0.028 A 
ENDBRANCH   1   2
BRANCH   1  10
HETATM   10  C8    D T 802       5.999   1.837  -6.067  1.00 49.10     0.111 A 
HETATM   11  C9    D T 802       4.806   1.210  -5.699  1.00 48.28     0.081 A 
HETATM   12  C10   D T 802       3.811   1.915  -5.053  1.00 46.88     0.025 A 
HETATM   13 CL16   D T 802       4.503  -0.516  -6.046  1.00 48.70    -0.080 Cl
HETATM   14  C11   D T 802       4.031   3.252  -4.789  1.00 46.87     0.059 A 
HETATM   15  C12   D T 802       5.208   3.899  -5.143  1.00 47.33     0.013 A 
HETATM   16 CL15   D T 802       2.755   4.171  -3.968  1.00 47.93    -0.082 Cl
HETATM   17  C13   D T 802       6.202   3.192  -5.786  1.00 47.70     0.026 A 
ENDBRANCH   1  10
TORSDOF 2
ENDMDL
MODEL 2
REMARK VINA RESULT:    -7.596      1.546      6.083
REMARK INTER + INTRA:          -9.000
REMARK INTER:                  -8.480
REMARK INTRA:                  -0.520
REMARK UNBOUND:                -0.516
REMARK  2 active torsions:
REMARK  status: ('A' for Active; 'I' for Inactive)
REMARK    1  A    between atoms: C5_4  and  O7_13 
REMARK    2  A    between atoms: C8_10  and  O7_13 
ROOT
HETATM    1  O7    D T 802       6.900   1.079  -6.587  1.00 48.82    -0.304 OA
ENDROOT
BRANCH   1   2
HETATM    2  C5    D T 802       5.943   1.840  -5.965  1.00 49.19     0.125 A 
HETATM    3  C6    D T 802       4.782   1.233  -5.491  1.00 48.70     0.154 A 
HETATM    4  C1    D T 802       3.808   1.987  -4.861  1.00 48.88     0.041 A 
HETATM    5  O17   D T 802       4.575  -0.103  -5.631  1.00 50.47    -0.188 OA
HETATM    6  C2    D T 802       3.987   3.353  -4.703  1.00 48.41     0.060 A 
HETATM    7  C3    D T 802       5.141   3.984  -5.186  1.00 48.74     0.014 A 
HETATM    8 CL14   D T 802       2.690   4.261  -3.874  1.00 49.19    -0.082 Cl
HETATM    9  C4    D T 802       6.125   3.223  -5.820  1.00 49.20     0.028 A 
ENDBRANCH   1   2
BRANCH   1  10
HETATM   10  C8    D T 802       7.181   1.282  -7.919  1.00 49.10     0.111 A 
HETATM   11  C9    D T 802       8.345   1.951  -8.306  1.00 48.28     0.081 A 
HETATM   12  C10   D T 802       8.624   2.164  -9.640  1.00 46.88     0.025 A 
HETATM   13 CL16   D T 802       9.519   2.569  -7.108  1.00 48.70    -0.080 Cl
HETATM   14  C11   D T 802       7.719   1.700 -10.573  1.00 46.87     0.059 A 
HETATM   15  C12   D T 802       6.555   1.030 -10.216  1.00 47.33     0.013 A 
HETATM   16 CL15   D T 802       8.062   1.976 -12.291  1.00 47.93    -0.082 Cl
HETATM   17  C13   D T 802       6.279   0.817  -8.882  1.00 47.70     0.026 A 
ENDBRANCH   1  10
TORSDOF 2
ENDMDL
MODEL 3
REMARK VINA RESULT:    -7.529      1.404      5.955
REMARK INTER + INTRA:          -8.925
REMARK INTER:                  -8.579
REMARK INTRA:                  -0.346
REMARK UNBOUND:                -0.516
REMARK  2 active torsions:
REMARK  status: ('A' for Active; 'I' for Inactive)
REMARK    1  A    between atoms: C5_4  and  O7_13 
REMARK    2  A    between atoms: C8_10  and  O7_13 
ROOT
HETATM    1  O7    D T 802       5.965   0.733  -7.153  1.00 48.82    -0.304 OA
ENDROOT
BRANCH   1   2
HETATM    2  C5    D T 802       5.249   1.621  -6.389  1.00 49.19     0.125 A 
HETATM    3  C6    D T 802       4.216   1.156  -5.580  1.00 48.70     0.154 A 
HETATM    4  C1    D T 802       3.487   2.039  -4.803  1.00 48.88     0.041 A 
HETATM    5  O17   D T 802       3.899  -0.164  -5.527  1.00 50.47    -0.188 OA
HETATM    6  C2    D T 802       3.785   3.393  -4.834  1.00 48.41     0.060 A 
HETATM    7  C3    D T 802       4.811   3.882  -5.653  1.00 48.74     0.014 A 
HETATM    8 CL14   D T 802       2.804   4.472  -3.800  1.00 49.19    -0.082 Cl
HETATM    9  C4    D T 802       5.547   2.991  -6.435  1.00 49.20     0.028 A 
ENDBRANCH   1   2
BRANCH   1  10
HETATM   10  C8    D T 802       6.360   1.083  -8.424  1.00 49.10     0.111 A 
HETATM   11  C9    D T 802       5.445   1.080  -9.479  1.00 48.28     0.081 A 
HETATM   12  C10   D T 802       5.841   1.422 -10.756  1.00 46.88     0.025 A 
HETATM   13 CL16   D T 802       3.732   0.628  -9.240  1.00 48.70    -0.080 Cl
HETATM   14  C11   D T 802       7.164   1.762 -10.954  1.00 46.87     0.059 A 
HETATM   15  C12   D T 802       8.095   1.776  -9.922  1.00 47.33     0.013 A 
HETATM   16 CL15   D T 802       7.688   2.195 -12.592  1.00 47.93    -0.082 Cl
HETATM   17  C13   D T 802       7.696   1.435  -8.647  1.00 47.70     0.026 A 
ENDBRANCH   1  10
TORSDOF 2
ENDMDL
MODEL 4
REMARK VINA RESULT:    -7.352      2.320      5.995
REMARK INTER + INTRA:          -8.728
REMARK INTER:                  -8.370
REMARK INTRA:                  -0.358
REMARK UNBOUND:                -0.516
REMARK  2 active torsions:
REMARK  status: ('A' for Active; 'I' for Inactive)
REMARK    1  A    between atoms: C5_4  and  O7_13 
REMARK    2  A    between atoms: C8_10  and  O7_13 
ROOT
HETATM    1  O7    D T 802       5.139   3.679  -7.263  1.00 48.82    -0.304 OA
ENDROOT
BRANCH   1   2
HETATM    2  C5    D T 802       4.748   2.798  -6.286  1.00 49.19     0.125 A 
HETATM    3  C6    D T 802       4.897   3.148  -4.946  1.00 48.70     0.154 A 
HETATM    4  C1    D T 802       4.507   2.271  -3.949  1.00 48.88     0.041 A 
HETATM    5  O17   D T 802       5.421   4.347  -4.582  1.00 50.47    -0.188 OA
HETATM    6  C2    D T 802       3.969   1.038  -4.286  1.00 48.41     0.060 A 
HETATM    7  C3    D T 802       3.825   0.662  -5.628  1.00 48.74     0.014 A 
HETATM    8 CL14   D T 802       3.483  -0.039  -2.945  1.00 49.19    -0.082 Cl
HETATM    9  C4    D T 802       4.217   1.547  -6.633  1.00 49.20     0.028 A 
ENDBRANCH   1   2
BRANCH   1  10
HETATM   10  C8    D T 802       5.820   3.220  -8.368  1.00 49.10     0.111 A 
HETATM   11  C9    D T 802       7.161   2.843  -8.270  1.00 48.28     0.081 A 
HETATM   12  C10   D T 802       7.849   2.391  -9.378  1.00 46.88     0.025 A 
HETATM   13 CL16   D T 802       8.054   2.931  -6.723  1.00 48.70    -0.080 Cl
HETATM   14  C11   D T 802       7.172   2.329 -10.578  1.00 46.87     0.059 A 
HETATM   15  C12   D T 802       5.838   2.696 -10.704  1.00 47.33     0.013 A 
HETATM   16 CL15   D T 802       8.048   1.759 -12.012  1.00 47.93    -0.082 Cl
HETATM   17  C13   D T 802       5.152   3.146  -9.595  1.00 47.70     0.026 A 
ENDBRANCH   1  10
TORSDOF 2
ENDMDL
MODEL 5
REMARK VINA RESULT:    -7.199      1.989      2.212
REMARK INTER + INTRA:          -8.556
REMARK INTER:                  -8.042
REMARK INTRA:                  -0.514
REMARK UNBOUND:                -0.516
REMARK  2 active torsions:
REMARK  status: ('A' for Active; 'I' for Inactive)
REMARK    1  A    between atoms: C5_4  and  O7_13 
REMARK    2  A    between atoms: C8_10  and  O7_13 
ROOT
HETATM    1  O7    D T 802       4.292   1.965  -7.681  1.00 48.82    -0.304 OA
ENDROOT
BRANCH   1   2
HETATM    2  C5    D T 802       5.250   1.851  -8.658  1.00 49.19     0.125 A 
HETATM    3  C6    D T 802       5.386   2.859  -9.609  1.00 48.70     0.154 A 
HETATM    4  C1    D T 802       6.348   2.759 -10.599  1.00 48.88     0.041 A 
HETATM    5  O17   D T 802       4.589   3.959  -9.592  1.00 50.47    -0.188 OA
HETATM    6  C2    D T 802       7.177   1.648 -10.644  1.00 48.41     0.060 A 
HETATM    7  C3    D T 802       7.046   0.617  -9.705  1.00 48.74     0.014 A 
HETATM    8 CL14   D T 802       8.400   1.591 -11.947  1.00 49.19    -0.082 Cl
HETATM    9  C4    D T 802       6.077   0.719  -8.706  1.00 49.20     0.028 A 
ENDBRANCH   1   2
BRANCH   1  10
HETATM   10  C8    D T 802       4.663   2.236  -6.384  1.00 49.10     0.111 A 
HETATM   11  C9    D T 802       4.596   1.244  -5.403  1.00 48.28     0.081 A 
HETATM   12  C10   D T 802       4.960   1.516  -4.100  1.00 46.88     0.025 A 
HETATM   13 CL16   D T 802       4.036  -0.412  -5.775  1.00 48.70    -0.080 Cl
HETATM   14  C11   D T 802       5.384   2.794  -3.800  1.00 46.87     0.059 A 
HETATM   15  C12   D T 802       5.461   3.800  -4.756  1.00 47.33     0.013 A 
HETATM   16 CL15   D T 802       5.845   3.159  -2.126  1.00 47.93    -0.082 Cl
HETATM   17  C13   D T 802       5.099   3.525  -6.058  1.00 47.70     0.026 A 
ENDBRANCH   1  10
TORSDOF 2
ENDMDL
MODEL 6
REMARK VINA RESULT:    -7.198      1.529      2.344
REMARK INTER + INTRA:          -8.556
REMARK INTER:                  -8.071
REMARK INTRA:                  -0.485
REMARK UNBOUND:                -0.516
REMARK  2 active torsions:
REMARK  status: ('A' for Active; 'I' for Inactive)
REMARK    1  A    between atoms: C5_4  and  O7_13 
REMARK    2  A    between atoms: C8_10  and  O7_13 
ROOT
HETATM    1  O7    D T 802       6.709   3.408  -6.781  1.00 48.82    -0.304 OA
ENDROOT
BRANCH   1   2
HETATM    2  C5    D T 802       6.873   3.096  -8.107  1.00 49.19     0.125 A 
HETATM    3  C6    D T 802       8.102   2.618  -8.555  1.00 48.70     0.154 A 
HETATM    4  C1    D T 802       8.282   2.298  -9.889  1.00 48.88     0.041 A 
HETATM    5  O17   D T 802       9.148   2.452  -7.704  1.00 50.47    -0.188 OA
HETATM    6  C2    D T 802       7.234   2.456 -10.784  1.00 48.41     0.060 A 
HETATM    7  C3    D T 802       5.995   2.949 -10.355  1.00 48.74     0.014 A 
HETATM    8 CL14   D T 802       7.539   2.016 -12.489  1.00 49.19    -0.082 Cl
HETATM    9  C4    D T 802       5.813   3.270  -9.009  1.00 49.20     0.028 A 
ENDBRANCH   1   2
BRANCH   1  10
HETATM   10  C8    D T 802       5.975   2.577  -5.965  1.00 49.10     0.111 A 
HETATM   11  C9    D T 802       4.808   3.035  -5.349  1.00 48.28     0.081 A 
HETATM   12  C10   D T 802       4.075   2.206  -4.525  1.00 46.88     0.025 A 
HETATM   13 CL16   D T 802       4.210   4.703  -5.586  1.00 48.70    -0.080 Cl
HETATM   14  C11   D T 802       4.534   0.920  -4.327  1.00 46.87     0.059 A 
HETATM   15  C12   D T 802       5.690   0.438  -4.928  1.00 47.33     0.013 A 
HETATM   16 CL15   D T 802       3.605  -0.152  -3.262  1.00 47.93    -0.082 Cl
HETATM   17  C13   D T 802       6.419   1.268  -5.754  1.00 47.70     0.026 A 
ENDBRANCH   1  10
TORSDOF 2
ENDMDL
MODEL 7
REMARK VINA RESULT:    -7.014      2.128      2.724
REMARK INTER + INTRA:          -8.350
REMARK INTER:                  -8.073
REMARK INTRA:                  -0.276
REMARK UNBOUND:                -0.516
REMARK  2 active torsions:
REMARK  status: ('A' for Active; 'I' for Inactive)
REMARK    1  A    between atoms: C5_4  and  O7_13 
REMARK    2  A    between atoms: C8_10  and  O7_13 
ROOT
HETATM    1  O7    D T 802       6.721   3.540  -7.148  1.00 48.82    -0.304 OA
ENDROOT
BRANCH   1   2
HETATM    2  C5    D T 802       7.018   3.135  -8.425  1.00 49.19     0.125 A 
HETATM    3  C6    D T 802       6.154   3.459  -9.468  1.00 48.70     0.154 A 
HETATM    4  C1    D T 802       6.440   3.058 -10.761  1.00 48.88     0.041 A 
HETATM    5  O17   D T 802       5.019   4.173  -9.249  1.00 50.47    -0.188 OA
HETATM    6  C2    D T 802       7.590   2.328 -11.019  1.00 48.41     0.060 A 
HETATM    7  C3    D T 802       8.465   1.979  -9.981  1.00 48.74     0.014 A 
HETATM    8 CL14   D T 802       7.897   1.850 -12.714  1.00 49.19    -0.082 Cl
HETATM    9  C4    D T 802       8.177   2.385  -8.677  1.00 49.20     0.028 A 
ENDBRANCH   1   2
BRANCH   1  10
HETATM   10  C8    D T 802       6.037   2.698  -6.302  1.00 49.10     0.111 A 
HETATM   11  C9    D T 802       6.724   1.897  -5.387  1.00 48.28     0.081 A 
HETATM   12  C10   D T 802       6.040   1.045  -4.544  1.00 46.88     0.025 A 
HETATM   13 CL16   D T 802       8.507   1.923  -5.266  1.00 48.70    -0.080 Cl
HETATM   14  C11   D T 802       4.664   1.010  -4.637  1.00 46.87     0.059 A 
HETATM   15  C12   D T 802       3.955   1.797  -5.535  1.00 47.33     0.013 A 
HETATM   16 CL15   D T 802       3.774  -0.088  -3.564  1.00 47.93    -0.082 Cl
HETATM   17  C13   D T 802       4.641   2.649  -6.376  1.00 47.70     0.026 A 
ENDBRANCH   1  10
TORSDOF 2
ENDMDL
MODEL 8
REMARK VINA RESULT:    -6.944      2.453      6.211
REMARK INTER + INTRA:          -8.271
REMARK INTER:                  -7.878
REMARK INTRA:                  -0.393
REMARK UNBOUND:                -0.516
REMARK  2 active torsions:
REMARK  status: ('A' for Active; 'I' for Inactive)
REMARK    1  A    between atoms: C5_4  and  O7_13 
REMARK    2  A    between atoms: C8_10  and  O7_13 
ROOT
HETATM    1  O7    D T 802       4.280   1.957  -7.120  1.00 48.82    -0.304 OA
ENDROOT
BRANCH   1   2
HETATM    2  C5    D T 802       4.634   2.336  -5.849  1.00 49.19     0.125 A 
HETATM    3  C6    D T 802       4.626   1.395  -4.823  1.00 48.70     0.154 A 
HETATM    4  C1    D T 802       4.980   1.761  -3.537  1.00 48.88     0.041 A 
HETATM    5  O17   D T 802       4.275   0.102  -5.053  1.00 50.47    -0.188 OA
HETATM    6  C2    D T 802       5.343   3.073  -3.269  1.00 48.41     0.060 A 
HETATM    7  C3    D T 802       5.343   4.038  -4.284  1.00 48.74     0.014 A 
HETATM    8 CL14   D T 802       5.795   3.471  -1.586  1.00 49.19    -0.082 Cl
HETATM    9  C4    D T 802       4.987   3.667  -5.582  1.00 49.20     0.028 A 
ENDBRANCH   1   2
BRANCH   1  10
HETATM   10  C8    D T 802       5.250   1.792  -8.082  1.00 49.10     0.111 A 
HETATM   11  C9    D T 802       5.557   2.828  -8.968  1.00 48.28     0.081 A 
HETATM   12  C10   D T 802       6.524   2.661  -9.938  1.00 46.88     0.025 A 
HETATM   13 CL16   D T 802       4.719   4.405  -8.899  1.00 48.70    -0.080 Cl
HETATM   14  C11   D T 802       7.170   1.443 -10.006  1.00 46.87     0.059 A 
HETATM   15  C12   D T 802       6.886   0.397  -9.137  1.00 47.33     0.013 A 
HETATM   16 CL15   D T 802       8.407   1.214 -11.256  1.00 47.93    -0.082 Cl
HETATM   17  C13   D T 802       5.921   0.567  -8.167  1.00 47.70     0.026 A 
ENDBRANCH   1  10
TORSDOF 2
ENDMDL
MODEL 9
REMARK VINA RESULT:    -6.770      2.520      6.139
REMARK INTER + INTRA:          -8.077
REMARK INTER:                  -7.550
REMARK INTRA:                  -0.527
REMARK UNBOUND:                -0.516
REMARK  2 active torsions:
REMARK  status: ('A' for Active; 'I' for Inactive)
REMARK    1  A    between atoms: C5_4  and  O7_13 
REMARK    2  A    between atoms: C8_10  and  O7_13 
ROOT
HETATM    1  O7    D T 802       3.889   2.441  -5.891  1.00 48.82    -0.304 OA
ENDROOT
BRANCH   1   2
HETATM    2  C5    D T 802       4.412   2.901  -4.709  1.00 49.19     0.125 A 
HETATM    3  C6    D T 802       4.265   4.244  -4.368  1.00 48.70     0.154 A 
HETATM    4  C1    D T 802       4.786   4.723  -3.179  1.00 48.88     0.041 A 
HETATM    5  O17   D T 802       3.612   5.112  -5.184  1.00 50.47    -0.188 OA
HETATM    6  C2    D T 802       5.459   3.863  -2.325  1.00 48.41     0.060 A 
HETATM    7  C3    D T 802       5.629   2.512  -2.656  1.00 48.74     0.014 A 
HETATM    8 CL14   D T 802       6.098   4.551  -0.804  1.00 49.19    -0.082 Cl
HETATM    9  C4    D T 802       5.103   2.029  -3.855  1.00 49.20     0.028 A 
ENDBRANCH   1   2
BRANCH   1  10
HETATM   10  C8    D T 802       4.731   2.069  -6.915  1.00 49.10     0.111 A 
HETATM   11  C9    D T 802       4.877   0.724  -7.263  1.00 48.28     0.081 A 
HETATM   12  C10   D T 802       5.726   0.349  -8.284  1.00 46.88     0.025 A 
HETATM   13 CL16   D T 802       3.989  -0.571  -6.410  1.00 48.70    -0.080 Cl
HETATM   14  C11   D T 802       6.425   1.341  -8.942  1.00 46.87     0.059 A 
HETATM   15  C12   D T 802       6.297   2.686  -8.619  1.00 47.33     0.013 A 
HETATM   16 CL15   D T 802       7.527   0.870 -10.250  1.00 47.93    -0.082 Cl
HETATM   17  C13   D T 802       5.446   3.058  -7.599  1.00 47.70     0.026 A 
ENDBRANCH   1  10
TORSDOF 2
ENDMDL
