MODEL 1
REMARK VINA RESULT:    -7.556      0.000      0.000
REMARK INTER + INTRA:          -8.796
REMARK INTER:                  -8.440
REMARK INTRA:                  -0.357
REMARK UNBOUND:                -0.357
REMARK  2 active torsions:
REMARK  status: ('A' for Active; 'I' for Inactive)
REMARK    1  A    between atoms: C5_4  and  O7_13 
REMARK    2  A    between atoms: C8_10  and  O7_13 
ROOT
HETATM    1  O7    D T 802       4.656   0.647  -7.955  1.00 48.82    -0.304 OA
ENDROOT
BRANCH   1   2
HETATM    2  C5    D T 802       3.870   1.422  -7.139  1.00 49.19     0.125 A 
HETATM    3  C6    D T 802       2.934   0.814  -6.307  1.00 48.70     0.154 A 
HETATM    4  C1    D T 802       2.134   1.582  -5.477  1.00 48.88     0.041 A 
HETATM    5  O17   D T 802       2.779  -0.535  -6.283  1.00 50.47    -0.188 OA
HETATM    6  C2    D T 802       2.266   2.962  -5.478  1.00 48.41     0.060 A 
HETATM    7  C3    D T 802       3.193   3.593  -6.318  1.00 48.74     0.014 A 
HETATM    8 CL14   D T 802       1.206   3.888  -4.377  1.00 49.19    -0.082 Cl
HETATM    9  C4    D T 802       3.999   2.819  -7.154  1.00 49.20     0.028 A 
ENDBRANCH   1   2
BRANCH   1  10
HETATM   10  C8    D T 802       4.864   1.020  -9.264  1.00 49.10     0.111 A 
HETATM   11  C9    D T 802       3.842   0.897 -10.208  1.00 48.28     0.081 A 
HETATM   12  C10   D T 802       4.052   1.263 -11.522  1.00 46.88     0.025 A 
HETATM   13 CL16   D T 802       2.230   0.258  -9.776  1.00 48.70    -0.080 Cl
HETATM   14  C11   D T 802       5.296   1.747 -11.869  1.00 46.87     0.059 A 
HETATM   15  C12   D T 802       6.329   1.882 -10.949  1.00 47.33     0.013 A 
HETATM   16 CL15   D T 802       5.581   2.213 -13.557  1.00 47.93    -0.082 Cl
HETATM   17  C13   D T 802       6.117   1.517  -9.637  1.00 47.70     0.026 A 
ENDBRANCH   1  10
TORSDOF 2
ENDMDL
MODEL 2
REMARK VINA RESULT:    -7.519      1.300      5.931
REMARK INTER + INTRA:          -8.755
REMARK INTER:                  -8.215
REMARK INTRA:                  -0.541
REMARK UNBOUND:                -0.357
REMARK  2 active torsions:
REMARK  status: ('A' for Active; 'I' for Inactive)
REMARK    1  A    between atoms: C5_4  and  O7_13 
REMARK    2  A    between atoms: C8_10  and  O7_13 
ROOT
HETATM    1  O7    D T 802       5.298   1.206  -7.720  1.00 48.82    -0.304 OA
ENDROOT
BRANCH   1   2
HETATM    2  C5    D T 802       5.361   1.383  -9.080  1.00 49.19     0.125 A 
HETATM    3  C6    D T 802       6.482   1.986  -9.643  1.00 48.70     0.154 A 
HETATM    4  C1    D T 802       6.561   2.171 -11.013  1.00 48.88     0.041 A 
HETATM    5  O17   D T 802       7.521   2.405  -8.875  1.00 50.47    -0.188 OA
HETATM    6  C2    D T 802       5.518   1.756 -11.825  1.00 48.41     0.060 A 
HETATM    7  C3    D T 802       4.375   1.160 -11.277  1.00 48.74     0.014 A 
HETATM    8 CL14   D T 802       5.692   2.021 -13.585  1.00 49.19    -0.082 Cl
HETATM    9  C4    D T 802       4.296   0.973  -9.896  1.00 49.20     0.028 A 
ENDBRANCH   1   2
BRANCH   1  10
HETATM   10  C8    D T 802       4.343   1.871  -6.985  1.00 49.10     0.111 A 
HETATM   11  C9    D T 802       3.314   1.168  -6.354  1.00 48.28     0.081 A 
HETATM   12  C10   D T 802       2.353   1.835  -5.623  1.00 46.88     0.025 A 
HETATM   13 CL16   D T 802       3.182  -0.611  -6.466  1.00 48.70    -0.080 Cl
HETATM   14  C11   D T 802       2.439   3.209  -5.539  1.00 46.87     0.059 A 
HETATM   15  C12   D T 802       3.453   3.933  -6.154  1.00 47.33     0.013 A 
HETATM   16 CL15   D T 802       1.204   4.078  -4.609  1.00 47.93    -0.082 Cl
HETATM   17  C13   D T 802       4.415   3.265  -6.883  1.00 47.70     0.026 A 
ENDBRANCH   1  10
TORSDOF 2
ENDMDL
MODEL 3
REMARK VINA RESULT:    -7.473      1.710      2.158
REMARK INTER + INTRA:          -8.704
REMARK INTER:                  -8.179
REMARK INTRA:                  -0.525
REMARK UNBOUND:                -0.357
REMARK  2 active torsions:
REMARK  status: ('A' for Active; 'I' for Inactive)
REMARK    1  A    between atoms: C5_4  and  O7_13 
REMARK    2  A    between atoms: C8_10  and  O7_13 
ROOT
HETATM    1  O7    D T 802       5.540   1.443  -7.062  1.00 48.82    -0.304 OA
ENDROOT
BRANCH   1   2
HETATM    2  C5    D T 802       4.474   2.001  -6.400  1.00 49.19     0.125 A 
HETATM    3  C6    D T 802       3.532   1.174  -5.795  1.00 48.70     0.154 A 
HETATM    4  C1    D T 802       2.452   1.722  -5.123  1.00 48.88     0.041 A 
HETATM    5  O17   D T 802       3.643  -0.179  -5.843  1.00 50.47    -0.188 OA
HETATM    6  C2    D T 802       2.308   3.099  -5.057  1.00 48.41     0.060 A 
HETATM    7  C3    D T 802       3.239   3.947  -5.671  1.00 48.74     0.014 A 
HETATM    8 CL14   D T 802       0.894   3.734  -4.167  1.00 49.19    -0.082 Cl
HETATM    9  C4    D T 802       4.327   3.395  -6.348  1.00 49.20     0.028 A 
ENDBRANCH   1   2
BRANCH   1  10
HETATM   10  C8    D T 802       5.629   1.548  -8.432  1.00 49.10     0.111 A 
HETATM   11  C9    D T 802       6.547   2.421  -9.019  1.00 48.28     0.081 A 
HETATM   12  C10   D T 802       6.632   2.533 -10.392  1.00 46.88     0.025 A 
HETATM   13 CL16   D T 802       7.642   3.437  -8.039  1.00 48.70    -0.080 Cl
HETATM   14  C11   D T 802       5.783   1.761 -11.158  1.00 46.87     0.059 A 
HETATM   15  C12   D T 802       4.863   0.883 -10.600  1.00 47.33     0.013 A 
HETATM   16 CL15   D T 802       5.877   1.902 -12.924  1.00 47.93    -0.082 Cl
HETATM   17  C13   D T 802       4.780   0.771  -9.229  1.00 47.70     0.026 A 
ENDBRANCH   1  10
TORSDOF 2
ENDMDL
MODEL 4
REMARK VINA RESULT:    -7.262      2.511      3.069
REMARK INTER + INTRA:          -8.468
REMARK INTER:                  -8.110
REMARK INTRA:                  -0.358
REMARK UNBOUND:                -0.357
REMARK  2 active torsions:
REMARK  status: ('A' for Active; 'I' for Inactive)
REMARK    1  A    between atoms: C5_4  and  O7_13 
REMARK    2  A    between atoms: C8_10  and  O7_13 
ROOT
HETATM    1  O7    D T 802       3.414   3.699  -7.845  1.00 48.82    -0.304 OA
ENDROOT
BRANCH   1   2
HETATM    2  C5    D T 802       3.237   2.848  -6.782  1.00 49.19     0.125 A 
HETATM    3  C6    D T 802       3.503   3.296  -5.492  1.00 48.70     0.154 A 
HETATM    4  C1    D T 802       3.328   2.450  -4.409  1.00 48.88     0.041 A 
HETATM    5  O17   D T 802       3.935   4.563  -5.257  1.00 50.47    -0.188 OA
HETATM    6  C2    D T 802       2.890   1.152  -4.614  1.00 48.41     0.060 A 
HETATM    7  C3    D T 802       2.630   0.678  -5.906  1.00 48.74     0.014 A 
HETATM    8 CL14   D T 802       2.680   0.120  -3.169  1.00 49.19    -0.082 Cl
HETATM    9  C4    D T 802       2.805   1.531  -6.997  1.00 49.20     0.028 A 
ENDBRANCH   1   2
BRANCH   1  10
HETATM   10  C8    D T 802       3.986   3.235  -9.008  1.00 49.10     0.111 A 
HETATM   11  C9    D T 802       5.373   3.117  -9.120  1.00 48.28     0.081 A 
HETATM   12  C10   D T 802       5.947   2.659 -10.288  1.00 46.88     0.025 A 
HETATM   13 CL16   D T 802       6.468   3.554  -7.777  1.00 48.70    -0.080 Cl
HETATM   14  C11   D T 802       5.112   2.328 -11.335  1.00 46.87     0.059 A 
HETATM   15  C12   D T 802       3.729   2.434 -11.249  1.00 47.33     0.013 A 
HETATM   16 CL15   D T 802       5.839   1.746 -12.845  1.00 47.93    -0.082 Cl
HETATM   17  C13   D T 802       3.156   2.890 -10.081  1.00 47.70     0.026 A 
ENDBRANCH   1  10
TORSDOF 2
ENDMDL
MODEL 5
REMARK VINA RESULT:    -7.243      2.222      6.080
REMARK INTER + INTRA:          -8.446
REMARK INTER:                  -7.959
REMARK INTRA:                  -0.488
REMARK UNBOUND:                -0.357
REMARK  2 active torsions:
REMARK  status: ('A' for Active; 'I' for Inactive)
REMARK    1  A    between atoms: C5_4  and  O7_13 
REMARK    2  A    between atoms: C8_10  and  O7_13 
ROOT
HETATM    1  O7    D T 802       2.738   1.875  -7.708  1.00 48.82    -0.304 OA
ENDROOT
BRANCH   1   2
HETATM    2  C5    D T 802       3.617   1.713  -8.751  1.00 49.19     0.125 A 
HETATM    3  C6    D T 802       3.600   2.618  -9.809  1.00 48.70     0.154 A 
HETATM    4  C1    D T 802       4.480   2.469 -10.868  1.00 48.88     0.041 A 
HETATM    5  O17   D T 802       2.732   3.662  -9.834  1.00 50.47    -0.188 OA
HETATM    6  C2    D T 802       5.378   1.413 -10.874  1.00 48.41     0.060 A 
HETATM    7  C3    D T 802       5.400   0.485  -9.825  1.00 48.74     0.014 A 
HETATM    8 CL14   D T 802       6.488   1.288 -12.270  1.00 49.19    -0.082 Cl
HETATM    9  C4    D T 802       4.514   0.635  -8.758  1.00 49.20     0.028 A 
ENDBRANCH   1   2
BRANCH   1  10
HETATM   10  C8    D T 802       3.185   2.371  -6.505  1.00 49.10     0.111 A 
HETATM   11  C9    D T 802       3.396   1.519  -5.418  1.00 48.28     0.081 A 
HETATM   12  C10   D T 802       3.836   2.016  -4.210  1.00 46.88     0.025 A 
HETATM   13 CL16   D T 802       3.101  -0.240  -5.529  1.00 48.70    -0.080 Cl
HETATM   14  C11   D T 802       4.057   3.374  -4.109  1.00 46.87     0.059 A 
HETATM   15  C12   D T 802       3.858   4.244  -5.174  1.00 47.33     0.013 A 
HETATM   16 CL15   D T 802       4.616   4.028  -2.557  1.00 47.93    -0.082 Cl
HETATM   17  C13   D T 802       3.419   3.745  -6.382  1.00 47.70     0.026 A 
ENDBRANCH   1  10
TORSDOF 2
ENDMDL
MODEL 6
REMARK VINA RESULT:    -7.144      4.076      4.831
REMARK INTER + INTRA:          -8.336
REMARK INTER:                  -8.399
REMARK INTRA:                   0.064
REMARK UNBOUND:                -0.357
REMARK  2 active torsions:
REMARK  status: ('A' for Active; 'I' for Inactive)
REMARK    1  A    between atoms: C5_4  and  O7_13 
REMARK    2  A    between atoms: C8_10  and  O7_13 
ROOT
HETATM    1  O7    D T 802       6.349   2.115  -7.254  1.00 48.82    -0.304 OA
ENDROOT
BRANCH   1   2
HETATM    2  C5    D T 802       7.593   2.089  -6.672  1.00 49.19     0.125 A 
HETATM    3  C6    D T 802       7.746   2.519  -5.357  1.00 48.70     0.154 A 
HETATM    4  C1    D T 802       8.993   2.498  -4.757  1.00 48.88     0.041 A 
HETATM    5  O17   D T 802       6.688   2.964  -4.631  1.00 50.47    -0.188 OA
HETATM    6  C2    D T 802      10.094   2.050  -5.470  1.00 48.41     0.060 A 
HETATM    7  C3    D T 802       9.963   1.627  -6.799  1.00 48.74     0.014 A 
HETATM    8 CL14   D T 802      11.671   2.045  -4.628  1.00 49.19    -0.082 Cl
HETATM    9  C4    D T 802       8.705   1.647  -7.404  1.00 49.20     0.028 A 
ENDBRANCH   1   2
BRANCH   1  10
HETATM   10  C8    D T 802       6.229   2.024  -8.622  1.00 49.10     0.111 A 
HETATM   11  C9    D T 802       5.426   1.039  -9.200  1.00 48.28     0.081 A 
HETATM   12  C10   D T 802       5.310   0.942 -10.572  1.00 46.88     0.025 A 
HETATM   13 CL16   D T 802       4.523  -0.143  -8.210  1.00 48.70    -0.080 Cl
HETATM   14  C11   D T 802       6.012   1.842 -11.346  1.00 46.87     0.059 A 
HETATM   15  C12   D T 802       6.815   2.834 -10.797  1.00 47.33     0.013 A 
HETATM   16 CL15   D T 802       5.878   1.723 -13.111  1.00 47.93    -0.082 Cl
HETATM   17  C13   D T 802       6.928   2.931  -9.426  1.00 47.70     0.026 A 
ENDBRANCH   1  10
TORSDOF 2
ENDMDL
MODEL 7
REMARK VINA RESULT:    -7.103      2.240      6.135
REMARK INTER + INTRA:          -8.290
REMARK INTER:                  -7.790
REMARK INTRA:                  -0.501
REMARK UNBOUND:                -0.357
REMARK  2 active torsions:
REMARK  status: ('A' for Active; 'I' for Inactive)
REMARK    1  A    between atoms: C5_4  and  O7_13 
REMARK    2  A    between atoms: C8_10  and  O7_13 
ROOT
HETATM    1  O7    D T 802       4.606   3.782  -7.210  1.00 48.82    -0.304 OA
ENDROOT
BRANCH   1   2
HETATM    2  C5    D T 802       4.742   3.374  -8.514  1.00 49.19     0.125 A 
HETATM    3  C6    D T 802       6.013   3.143  -9.032  1.00 48.70     0.154 A 
HETATM    4  C1    D T 802       6.168   2.730 -10.345  1.00 48.88     0.041 A 
HETATM    5  O17   D T 802       7.128   3.312  -8.274  1.00 50.47    -0.188 OA
HETATM    6  C2    D T 802       5.051   2.550 -11.146  1.00 48.41     0.060 A 
HETATM    7  C3    D T 802       3.764   2.790 -10.647  1.00 48.74     0.014 A 
HETATM    8 CL14   D T 802       5.327   2.010 -12.828  1.00 49.19    -0.082 Cl
HETATM    9  C4    D T 802       3.609   3.205  -9.324  1.00 49.20     0.028 A 
ENDBRANCH   1   2
BRANCH   1  10
HETATM   10  C8    D T 802       4.103   2.913  -6.268  1.00 49.10     0.111 A 
HETATM   11  C9    D T 802       2.916   3.208  -5.593  1.00 48.28     0.081 A 
HETATM   12  C10   D T 802       2.415   2.342  -4.643  1.00 46.88     0.025 A 
HETATM   13 CL16   D T 802       1.997   4.707  -5.911  1.00 48.70    -0.080 Cl
HETATM   14  C11   D T 802       3.122   1.186  -4.382  1.00 46.87     0.059 A 
HETATM   15  C12   D T 802       4.303   0.868  -5.041  1.00 47.33     0.013 A 
HETATM   16 CL15   D T 802       2.492   0.069  -3.156  1.00 47.93    -0.082 Cl
HETATM   17  C13   D T 802       4.802   1.733  -5.991  1.00 47.70     0.026 A 
ENDBRANCH   1  10
TORSDOF 2
ENDMDL
MODEL 8
REMARK VINA RESULT:    -6.974      2.182      2.414
REMARK INTER + INTRA:          -8.146
REMARK INTER:                  -7.746
REMARK INTRA:                  -0.400
REMARK UNBOUND:                -0.357
REMARK  2 active torsions:
REMARK  status: ('A' for Active; 'I' for Inactive)
REMARK    1  A    between atoms: C5_4  and  O7_13 
REMARK    2  A    between atoms: C8_10  and  O7_13 
ROOT
HETATM    1  O7    D T 802       2.727   1.947  -7.162  1.00 48.82    -0.304 OA
ENDROOT
BRANCH   1   2
HETATM    2  C5    D T 802       3.190   2.497  -5.992  1.00 49.19     0.125 A 
HETATM    3  C6    D T 802       3.432   1.674  -4.895  1.00 48.70     0.154 A 
HETATM    4  C1    D T 802       3.899   2.212  -3.709  1.00 48.88     0.041 A 
HETATM    5  O17   D T 802       3.221   0.333  -4.957  1.00 50.47    -0.188 OA
HETATM    6  C2    D T 802       4.123   3.576  -3.613  1.00 48.41     0.060 A 
HETATM    7  C3    D T 802       3.873   4.423  -4.701  1.00 48.74     0.014 A 
HETATM    8 CL14   D T 802       4.733   4.200  -2.052  1.00 49.19    -0.082 Cl
HETATM    9  C4    D T 802       3.403   3.879  -5.897  1.00 49.20     0.028 A 
ENDBRANCH   1   2
BRANCH   1  10
HETATM   10  C8    D T 802       3.580   1.791  -8.232  1.00 49.10     0.111 A 
HETATM   11  C9    D T 802       3.636   2.753  -9.243  1.00 48.28     0.081 A 
HETATM   12  C10   D T 802       4.484   2.593 -10.319  1.00 46.88     0.025 A 
HETATM   13 CL16   D T 802       2.617   4.221  -9.204  1.00 48.70    -0.080 Cl
HETATM   14  C11   D T 802       5.267   1.459 -10.364  1.00 46.87     0.059 A 
HETATM   15  C12   D T 802       5.234   0.488  -9.371  1.00 47.33     0.013 A 
HETATM   16 CL15   D T 802       6.356   1.238 -11.747  1.00 47.93    -0.082 Cl
HETATM   17  C13   D T 802       4.386   0.649  -8.295  1.00 47.70     0.026 A 
ENDBRANCH   1  10
TORSDOF 2
ENDMDL
MODEL 9
REMARK VINA RESULT:    -6.858      2.497      2.937
REMARK INTER + INTRA:          -8.017
REMARK INTER:                  -7.507
REMARK INTRA:                  -0.509
REMARK UNBOUND:                -0.357
REMARK  2 active torsions:
REMARK  status: ('A' for Active; 'I' for Inactive)
REMARK    1  A    between atoms: C5_4  and  O7_13 
REMARK    2  A    between atoms: C8_10  and  O7_13 
ROOT
HETATM    1  O7    D T 802       2.745   2.112  -6.952  1.00 48.82    -0.304 OA
ENDROOT
BRANCH   1   2
HETATM    2  C5    D T 802       3.252   2.693  -5.816  1.00 49.19     0.125 A 
HETATM    3  C6    D T 802       2.891   3.999  -5.493  1.00 48.70     0.154 A 
HETATM    4  C1    D T 802       3.392   4.599  -4.351  1.00 48.88     0.041 A 
HETATM    5  O17   D T 802       2.044   4.714  -6.279  1.00 50.47    -0.188 OA
HETATM    6  C2    D T 802       4.260   3.898  -3.528  1.00 48.41     0.060 A 
HETATM    7  C3    D T 802       4.646   2.588  -3.843  1.00 48.74     0.014 A 
HETATM    8 CL14   D T 802       4.861   4.734  -2.067  1.00 49.19    -0.082 Cl
HETATM    9  C4    D T 802       4.139   1.983  -4.994  1.00 49.20     0.028 A 
ENDBRANCH   1   2
BRANCH   1  10
HETATM   10  C8    D T 802       3.563   1.904  -8.040  1.00 49.10     0.111 A 
HETATM   11  C9    D T 802       4.039   0.625  -8.337  1.00 48.28     0.081 A 
HETATM   12  C10   D T 802       4.865   0.417  -9.422  1.00 46.88     0.025 A 
HETATM   13 CL16   D T 802       3.619  -0.794  -7.334  1.00 48.70    -0.080 Cl
HETATM   14  C11   D T 802       5.204   1.507 -10.197  1.00 46.87     0.059 A 
HETATM   15  C12   D T 802       4.742   2.789  -9.926  1.00 47.33     0.013 A 
HETATM   16 CL15   D T 802       6.272   1.253 -11.591  1.00 47.93    -0.082 Cl
HETATM   17  C13   D T 802       3.916   2.995  -8.842  1.00 47.70     0.026 A 
ENDBRANCH   1  10
TORSDOF 2
ENDMDL
