MODEL 1
REMARK VINA RESULT:    -7.626      0.000      0.000
REMARK INTER + INTRA:          -9.050
REMARK INTER:                  -8.518
REMARK INTRA:                  -0.532
REMARK UNBOUND:                -0.532
REMARK  2 active torsions:
REMARK  status: ('A' for Active; 'I' for Inactive)
REMARK    1  A    between atoms: C5_4  and  O7_13 
REMARK    2  A    between atoms: C8_10  and  O7_13 
ROOT
HETATM    1  O7    D T 802       6.954   1.123  -6.503  1.00 33.38    -0.304 OA
ENDROOT
BRANCH   1   2
HETATM    2  C5    D T 802       5.990   1.862  -5.902  1.00 33.90     0.125 A 
HETATM    3  C6    D T 802       4.786   1.162  -5.395  1.00 34.14     0.154 A 
HETATM    4  C1    D T 802       3.798   1.915  -4.784  1.00 33.42     0.041 A 
HETATM    5  O17   D T 802       4.656  -0.183  -5.539  1.00 31.93    -0.188 OA
HETATM    6  C2    D T 802       3.964   3.297  -4.695  1.00 33.75     0.060 A 
HETATM    7  C3    D T 802       5.089   3.957  -5.191  1.00 34.09     0.014 A 
HETATM    8 CL14   D T 802       2.669   4.218  -3.890  1.00 31.80    -0.082 Cl
HETATM    9  C4    D T 802       6.118   3.245  -5.799  1.00 33.84     0.028 A 
ENDBRANCH   1   2
BRANCH   1  10
HETATM   10  C8    D T 802       7.139   1.288  -7.849  1.00 32.79     0.111 A 
HETATM   11  C9    D T 802       8.367   1.982  -8.259  1.00 33.58     0.081 A 
HETATM   12  C10   D T 802       8.624   2.194  -9.597  1.00 33.67     0.025 A 
HETATM   13 CL16   D T 802       9.481   2.563  -7.000  1.00 34.24    -0.080 Cl
HETATM   14  C11   D T 802       7.668   1.719 -10.493  1.00 34.91     0.059 A 
HETATM   15  C12   D T 802       6.497   1.049 -10.138  1.00 32.31     0.013 A 
HETATM   16 CL15   D T 802       8.011   1.999 -12.199  1.00 34.34    -0.082 Cl
HETATM   17  C13   D T 802       6.224   0.828  -8.798  1.00 32.72     0.026 A 
ENDBRANCH   1  10
TORSDOF 2
ENDMDL
MODEL 2
REMARK VINA RESULT:    -7.566      1.587      6.038
REMARK INTER + INTRA:          -8.983
REMARK INTER:                  -8.436
REMARK INTRA:                  -0.547
REMARK UNBOUND:                -0.532
REMARK  2 active torsions:
REMARK  status: ('A' for Active; 'I' for Inactive)
REMARK    1  A    between atoms: C5_4  and  O7_13 
REMARK    2  A    between atoms: C8_10  and  O7_13 
ROOT
HETATM    1  O7    D T 802       6.715   1.063  -6.784  1.00 33.38    -0.304 OA
ENDROOT
BRANCH   1   2
HETATM    2  C5    D T 802       6.911   1.272  -8.109  1.00 33.90     0.125 A 
HETATM    3  C6    D T 802       8.193   1.876  -8.541  1.00 34.14     0.154 A 
HETATM    4  C1    D T 802       8.392   2.094  -9.894  1.00 33.42     0.041 A 
HETATM    5  O17   D T 802       9.139   2.215  -7.627  1.00 31.93    -0.188 OA
HETATM    6  C2    D T 802       7.373   1.761 -10.786  1.00 33.75     0.060 A 
HETATM    7  C3    D T 802       6.159   1.211 -10.376  1.00 34.09     0.014 A 
HETATM    8 CL14   D T 802       7.686   2.052 -12.515  1.00 31.80    -0.082 Cl
HETATM    9  C4    D T 802       5.914   0.957  -9.029  1.00 33.84     0.028 A 
ENDBRANCH   1   2
BRANCH   1  10
HETATM   10  C8    D T 802       5.825   1.873  -6.134  1.00 32.79     0.111 A 
HETATM   11  C9    D T 802       4.603   1.230  -5.631  1.00 33.58     0.081 A 
HETATM   12  C10   D T 802       3.652   1.979  -4.970  1.00 33.67     0.025 A 
HETATM   13 CL16   D T 802       4.372  -0.510  -5.921  1.00 34.24    -0.080 Cl
HETATM   14  C11   D T 802       3.928   3.337  -4.824  1.00 34.91     0.059 A 
HETATM   15  C12   D T 802       5.080   3.977  -5.281  1.00 32.31     0.013 A 
HETATM   16 CL15   D T 802       2.702   4.281  -3.979  1.00 34.34    -0.082 Cl
HETATM   17  C13   D T 802       6.045   3.239  -5.947  1.00 32.72     0.026 A 
ENDBRANCH   1  10
TORSDOF 2
ENDMDL
MODEL 3
REMARK VINA RESULT:    -7.300      1.680      2.210
REMARK INTER + INTRA:          -8.686
REMARK INTER:                  -8.550
REMARK INTRA:                  -0.135
REMARK UNBOUND:                -0.532
REMARK  2 active torsions:
REMARK  status: ('A' for Active; 'I' for Inactive)
REMARK    1  A    between atoms: C5_4  and  O7_13 
REMARK    2  A    between atoms: C8_10  and  O7_13 
ROOT
HETATM    1  O7    D T 802       5.625   0.641  -7.324  1.00 33.38    -0.304 OA
ENDROOT
BRANCH   1   2
HETATM    2  C5    D T 802       5.080   1.610  -6.549  1.00 33.90     0.125 A 
HETATM    3  C6    D T 802       4.143   1.203  -5.475  1.00 34.14     0.154 A 
HETATM    4  C1    D T 802       3.582   2.192  -4.685  1.00 33.42     0.041 A 
HETATM    5  O17   D T 802       3.839  -0.107  -5.283  1.00 31.93    -0.188 OA
HETATM    6  C2    D T 802       3.900   3.525  -4.947  1.00 33.75     0.060 A 
HETATM    7  C3    D T 802       4.766   3.907  -5.972  1.00 34.09     0.014 A 
HETATM    8 CL14   D T 802       3.160   4.756  -3.894  1.00 31.80    -0.082 Cl
HETATM    9  C4    D T 802       5.370   2.951  -6.785  1.00 33.84     0.028 A 
ENDBRANCH   1   2
BRANCH   1  10
HETATM   10  C8    D T 802       6.173   1.013  -8.521  1.00 32.79     0.111 A 
HETATM   11  C9    D T 802       5.253   1.087  -9.665  1.00 33.58     0.081 A 
HETATM   12  C10   D T 802       5.728   1.449 -10.908  1.00 33.67     0.025 A 
HETATM   13 CL16   D T 802       3.542   0.670  -9.413  1.00 34.24    -0.080 Cl
HETATM   14  C11   D T 802       7.091   1.727 -10.992  1.00 34.91     0.059 A 
HETATM   15  C12   D T 802       7.989   1.676  -9.925  1.00 32.31     0.013 A 
HETATM   16 CL15   D T 802       7.682   2.187 -12.588  1.00 34.34    -0.082 Cl
HETATM   17  C13   D T 802       7.528   1.314  -8.670  1.00 32.72     0.026 A 
ENDBRANCH   1  10
TORSDOF 2
ENDMDL
MODEL 4
REMARK VINA RESULT:    -7.259      1.911      2.255
REMARK INTER + INTRA:          -8.640
REMARK INTER:                  -8.137
REMARK INTRA:                  -0.504
REMARK UNBOUND:                -0.532
REMARK  2 active torsions:
REMARK  status: ('A' for Active; 'I' for Inactive)
REMARK    1  A    between atoms: C5_4  and  O7_13 
REMARK    2  A    between atoms: C8_10  and  O7_13 
ROOT
HETATM    1  O7    D T 802       6.736   3.408  -6.704  1.00 33.38    -0.304 OA
ENDROOT
BRANCH   1   2
HETATM    2  C5    D T 802       6.000   2.587  -5.916  1.00 33.90     0.125 A 
HETATM    3  C6    D T 802       4.746   3.116  -5.331  1.00 34.14     0.154 A 
HETATM    4  C1    D T 802       3.994   2.280  -4.523  1.00 33.42     0.041 A 
HETATM    5  O17   D T 802       4.354   4.394  -5.577  1.00 31.93    -0.188 OA
HETATM    6  C2    D T 802       4.460   0.988  -4.274  1.00 33.75     0.060 A 
HETATM    7  C3    D T 802       5.652   0.499  -4.809  1.00 34.09     0.014 A 
HETATM    8 CL14   D T 802       3.450  -0.050  -3.237  1.00 31.80    -0.082 Cl
HETATM    9  C4    D T 802       6.436   1.293  -5.640  1.00 33.84     0.028 A 
ENDBRANCH   1   2
BRANCH   1  10
HETATM   10  C8    D T 802       6.862   3.080  -8.026  1.00 32.79     0.111 A 
HETATM   11  C9    D T 802       8.169   2.554  -8.446  1.00 33.58     0.081 A 
HETATM   12  C10   D T 802       8.380   2.206  -9.764  1.00 33.67     0.025 A 
HETATM   13 CL16   D T 802       9.462   2.411  -7.233  1.00 34.24    -0.080 Cl
HETATM   14  C11   D T 802       7.304   2.385 -10.630  1.00 34.91     0.059 A 
HETATM   15  C12   D T 802       6.049   2.874 -10.263  1.00 32.31     0.013 A 
HETATM   16 CL15   D T 802       7.590   1.937 -12.311  1.00 34.34    -0.082 Cl
HETATM   17  C13   D T 802       5.821   3.228  -8.944  1.00 32.72     0.026 A 
ENDBRANCH   1  10
TORSDOF 2
ENDMDL
MODEL 5
REMARK VINA RESULT:    -7.164      2.341      6.144
REMARK INTER + INTRA:          -8.533
REMARK INTER:                  -8.014
REMARK INTRA:                  -0.519
REMARK UNBOUND:                -0.532
REMARK  2 active torsions:
REMARK  status: ('A' for Active; 'I' for Inactive)
REMARK    1  A    between atoms: C5_4  and  O7_13 
REMARK    2  A    between atoms: C8_10  and  O7_13 
ROOT
HETATM    1  O7    D T 802       4.315   1.790  -7.721  1.00 33.38    -0.304 OA
ENDROOT
BRANCH   1   2
HETATM    2  C5    D T 802       5.274   1.728  -8.677  1.00 33.90     0.125 A 
HETATM    3  C6    D T 802       5.345   2.826  -9.670  1.00 34.14     0.154 A 
HETATM    4  C1    D T 802       6.321   2.763 -10.650  1.00 33.42     0.041 A 
HETATM    5  O17   D T 802       4.464   3.860  -9.621  1.00 31.93    -0.188 OA
HETATM    6  C2    D T 802       7.177   1.661 -10.677  1.00 33.75     0.060 A 
HETATM    7  C3    D T 802       7.095   0.618  -9.753  1.00 34.09     0.014 A 
HETATM    8 CL14   D T 802       8.422   1.634 -11.950  1.00 31.80    -0.082 Cl
HETATM    9  C4    D T 802       6.142   0.641  -8.739  1.00 33.84     0.028 A 
ENDBRANCH   1   2
BRANCH   1  10
HETATM   10  C8    D T 802       4.695   2.154  -6.459  1.00 32.79     0.111 A 
HETATM   11  C9    D T 802       4.579   1.121  -5.419  1.00 33.58     0.081 A 
HETATM   12  C10   D T 802       4.936   1.409  -4.119  1.00 33.67     0.025 A 
HETATM   13 CL16   D T 802       3.944  -0.478  -5.871  1.00 34.24    -0.080 Cl
HETATM   14  C11   D T 802       5.395   2.702  -3.876  1.00 34.91     0.059 A 
HETATM   15  C12   D T 802       5.525   3.703  -4.840  1.00 32.31     0.013 A 
HETATM   16 CL15   D T 802       5.845   3.055  -2.209  1.00 34.34    -0.082 Cl
HETATM   17  C13   D T 802       5.171   3.429  -6.151  1.00 32.72     0.026 A 
ENDBRANCH   1  10
TORSDOF 2
ENDMDL
MODEL 6
REMARK VINA RESULT:    -7.155      8.818     10.790
REMARK INTER + INTRA:          -8.524
REMARK INTER:                  -7.972
REMARK INTRA:                  -0.552
REMARK UNBOUND:                -0.532
REMARK  2 active torsions:
REMARK  status: ('A' for Active; 'I' for Inactive)
REMARK    1  A    between atoms: C5_4  and  O7_13 
REMARK    2  A    between atoms: C8_10  and  O7_13 
ROOT
HETATM    1  O7    D T 802       6.847   6.137   3.246  1.00 33.38    -0.304 OA
ENDROOT
BRANCH   1   2
HETATM    2  C5    D T 802       7.452   4.974   3.592  1.00 33.90     0.125 A 
HETATM    3  C6    D T 802       6.677   3.990   4.384  1.00 34.14     0.154 A 
HETATM    4  C1    D T 802       7.294   2.804   4.741  1.00 33.42     0.041 A 
HETATM    5  O17   D T 802       5.396   4.256   4.754  1.00 31.93    -0.188 OA
HETATM    6  C2    D T 802       8.622   2.597   4.366  1.00 33.75     0.060 A 
HETATM    7  C3    D T 802       9.357   3.534   3.639  1.00 34.09     0.014 A 
HETATM    8 CL14   D T 802       9.365   1.050   4.843  1.00 31.80    -0.082 Cl
HETATM    9  C4    D T 802       8.778   4.735   3.240  1.00 33.84     0.028 A 
ENDBRANCH   1   2
BRANCH   1  10
HETATM   10  C8    D T 802       6.644   6.379   1.915  1.00 32.79     0.111 A 
HETATM   11  C9    D T 802       7.316   7.561   1.356  1.00 33.58     0.081 A 
HETATM   12  C10   D T 802       7.157   7.878   0.023  1.00 33.67     0.025 A 
HETATM   13 CL16   D T 802       8.300   8.575   2.437  1.00 34.24    -0.080 Cl
HETATM   14  C11   D T 802       6.343   7.027  -0.721  1.00 34.91     0.059 A 
HETATM   15  C12   D T 802       5.698   5.893  -0.225  1.00 32.31     0.013 A 
HETATM   16 CL15   D T 802       6.149   7.447  -2.422  1.00 34.34    -0.082 Cl
HETATM   17  C13   D T 802       5.847   5.562   1.111  1.00 32.72     0.026 A 
ENDBRANCH   1  10
TORSDOF 2
ENDMDL
MODEL 7
REMARK VINA RESULT:    -7.139      2.125      5.969
REMARK INTER + INTRA:          -8.506
REMARK INTER:                  -8.015
REMARK INTRA:                  -0.490
REMARK UNBOUND:                -0.532
REMARK  2 active torsions:
REMARK  status: ('A' for Active; 'I' for Inactive)
REMARK    1  A    between atoms: C5_4  and  O7_13 
REMARK    2  A    between atoms: C8_10  and  O7_13 
ROOT
HETATM    1  O7    D T 802       6.569   3.396  -6.676  1.00 33.38    -0.304 OA
ENDROOT
BRANCH   1   2
HETATM    2  C5    D T 802       6.778   3.033  -7.965  1.00 33.90     0.125 A 
HETATM    3  C6    D T 802       8.138   2.595  -8.357  1.00 34.14     0.154 A 
HETATM    4  C1    D T 802       8.355   2.228  -9.674  1.00 33.42     0.041 A 
HETATM    5  O17   D T 802       9.145   2.565  -7.444  1.00 31.93    -0.188 OA
HETATM    6  C2    D T 802       7.296   2.310 -10.579  1.00 33.75     0.060 A 
HETATM    7  C3    D T 802       6.022   2.744 -10.213  1.00 34.09     0.014 A 
HETATM    8 CL14   D T 802       7.626   1.816 -12.258  1.00 31.80    -0.082 Cl
HETATM    9  C4    D T 802       5.747   3.109  -8.898  1.00 33.84     0.028 A 
ENDBRANCH   1   2
BRANCH   1  10
HETATM   10  C8    D T 802       5.913   2.512  -5.863  1.00 32.79     0.111 A 
HETATM   11  C9    D T 802       4.703   3.014  -5.195  1.00 33.58     0.081 A 
HETATM   12  C10   D T 802       3.988   2.187  -4.354  1.00 33.67     0.025 A 
HETATM   13 CL16   D T 802       4.212   4.701  -5.472  1.00 34.24    -0.080 Cl
HETATM   14  C11   D T 802       4.481   0.894  -4.192  1.00 34.91     0.059 A 
HETATM   15  C12   D T 802       5.620   0.384  -4.818  1.00 32.31     0.013 A 
HETATM   16 CL15   D T 802       3.557  -0.149  -3.113  1.00 34.34    -0.082 Cl
HETATM   17  C13   D T 802       6.349   1.201  -5.665  1.00 32.72     0.026 A 
ENDBRANCH   1  10
TORSDOF 2
ENDMDL
MODEL 8
REMARK VINA RESULT:    -6.669      2.306      3.286
REMARK INTER + INTRA:          -7.981
REMARK INTER:                  -7.518
REMARK INTRA:                  -0.463
REMARK UNBOUND:                -0.532
REMARK  2 active torsions:
REMARK  status: ('A' for Active; 'I' for Inactive)
REMARK    1  A    between atoms: C5_4  and  O7_13 
REMARK    2  A    between atoms: C8_10  and  O7_13 
ROOT
HETATM    1  O7    D T 802       4.544   1.799  -5.290  1.00 33.38    -0.304 OA
ENDROOT
BRANCH   1   2
HETATM    2  C5    D T 802       4.551   3.029  -4.721  1.00 33.90     0.125 A 
HETATM    3  C6    D T 802       5.177   3.180  -3.386  1.00 34.14     0.154 A 
HETATM    4  C1    D T 802       5.181   4.435  -2.801  1.00 33.42     0.041 A 
HETATM    5  O17   D T 802       5.722   2.108  -2.754  1.00 31.93    -0.188 OA
HETATM    6  C2    D T 802       4.576   5.495  -3.478  1.00 33.75     0.060 A 
HETATM    7  C3    D T 802       3.968   5.346  -4.725  1.00 34.09     0.014 A 
HETATM    8 CL14   D T 802       4.618   7.090  -2.686  1.00 31.80    -0.082 Cl
HETATM    9  C4    D T 802       3.951   4.110  -5.363  1.00 33.84     0.028 A 
ENDBRANCH   1   2
BRANCH   1  10
HETATM   10  C8    D T 802       5.251   1.628  -6.449  1.00 32.79     0.111 A 
HETATM   11  C9    D T 802       4.557   0.931  -7.540  1.00 33.58     0.081 A 
HETATM   12  C10   D T 802       5.203   0.714  -8.740  1.00 33.67     0.025 A 
HETATM   13 CL16   D T 802       2.896   0.356  -7.266  1.00 34.24    -0.080 Cl
HETATM   14  C11   D T 802       6.510   1.185  -8.831  1.00 34.91     0.059 A 
HETATM   15  C12   D T 802       7.195   1.858  -7.818  1.00 32.31     0.013 A 
HETATM   16 CL15   D T 802       7.322   0.897 -10.369  1.00 34.34    -0.082 Cl
HETATM   17  C13   D T 802       6.561   2.084  -6.608  1.00 32.72     0.026 A 
ENDBRANCH   1  10
TORSDOF 2
ENDMDL
MODEL 9
REMARK VINA RESULT:    -5.464      8.699     11.082
REMARK INTER + INTRA:          -6.635
REMARK INTER:                  -6.517
REMARK INTRA:                  -0.118
REMARK UNBOUND:                -0.532
REMARK  2 active torsions:
REMARK  status: ('A' for Active; 'I' for Inactive)
REMARK    1  A    between atoms: C5_4  and  O7_13 
REMARK    2  A    between atoms: C8_10  and  O7_13 
ROOT
HETATM    1  O7    D T 802       7.788   6.575   2.681  1.00 33.38    -0.304 OA
ENDROOT
BRANCH   1   2
HETATM    2  C5    D T 802       7.282   6.760   1.437  1.00 33.90     0.125 A 
HETATM    3  C6    D T 802       8.162   7.356   0.405  1.00 34.14     0.154 A 
HETATM    4  C1    D T 802       7.645   7.549  -0.865  1.00 33.42     0.041 A 
HETATM    5  O17   D T 802       9.439   7.710   0.705  1.00 31.93    -0.188 OA
HETATM    6  C2    D T 802       6.317   7.201  -1.112  1.00 33.75     0.060 A 
HETATM    7  C3    D T 802       5.484   6.660  -0.132  1.00 34.09     0.014 A 
HETATM    8 CL14   D T 802       5.706   7.460  -2.764  1.00 31.80    -0.082 Cl
HETATM    9  C4    D T 802       5.958   6.431   1.156  1.00 33.84     0.028 A 
ENDBRANCH   1   2
BRANCH   1  10
HETATM   10  C8    D T 802       7.598   5.356   3.273  1.00 32.79     0.111 A 
HETATM   11  C9    D T 802       8.747   4.439   3.260  1.00 33.58     0.081 A 
HETATM   12  C10   D T 802       8.635   3.188   3.830  1.00 33.67     0.025 A 
HETATM   13 CL16   D T 802      10.252   4.966   2.473  1.00 34.24    -0.080 Cl
HETATM   14  C11   D T 802       7.400   2.874   4.394  1.00 34.91     0.059 A 
HETATM   15  C12   D T 802       6.294   3.724   4.431  1.00 32.31     0.013 A 
HETATM   16 CL15   D T 802       7.273   1.271   5.117  1.00 34.34    -0.082 Cl
HETATM   17  C13   D T 802       6.390   4.983   3.863  1.00 32.72     0.026 A 
ENDBRANCH   1  10
TORSDOF 2
ENDMDL
