MODEL 1
REMARK VINA RESULT:    -7.384      0.000      0.000
REMARK INTER + INTRA:          -8.755
REMARK INTER:                  -8.247
REMARK INTRA:                  -0.508
REMARK UNBOUND:                -0.508
REMARK  2 active torsions:
REMARK  status: ('A' for Active; 'I' for Inactive)
REMARK    1  A    between atoms: C5_4  and  O7_13 
REMARK    2  A    between atoms: C8_10  and  O7_13 
ROOT
HETATM    1  O7    D T 802       5.822   1.441  -7.867  1.00 33.38    -0.304 OA
ENDROOT
BRANCH   1   2
HETATM    2  C5    D T 802       5.820   1.597  -9.213  1.00 33.90     0.125 A 
HETATM    3  C6    D T 802       6.751   2.587  -9.805  1.00 34.14     0.154 A 
HETATM    4  C1    D T 802       6.746   2.751 -11.180  1.00 33.42     0.041 A 
HETATM    5  O17   D T 802       7.577   3.318  -9.012  1.00 31.93    -0.188 OA
HETATM    6  C2    D T 802       5.852   2.001 -11.944  1.00 33.75     0.060 A 
HETATM    7  C3    D T 802       4.962   1.084 -11.383  1.00 34.09     0.014 A 
HETATM    8 CL14   D T 802       5.895   2.243 -13.709  1.00 31.80    -0.082 Cl
HETATM    9  C4    D T 802       4.938   0.871 -10.009  1.00 33.84     0.028 A 
ENDBRANCH   1   2
BRANCH   1  10
HETATM   10  C8    D T 802       4.800   2.009  -7.156  1.00 32.79     0.111 A 
HETATM   11  C9    D T 802       3.812   1.084  -6.582  1.00 33.58     0.081 A 
HETATM   12  C10   D T 802       2.748   1.577  -5.857  1.00 33.67     0.025 A 
HETATM   13 CL16   D T 802       4.005  -0.660  -6.872  1.00 34.24    -0.080 Cl
HETATM   14  C11   D T 802       2.685   2.962  -5.716  1.00 34.91     0.059 A 
HETATM   15  C12   D T 802       3.609   3.866  -6.240  1.00 32.31     0.013 A 
HETATM   16 CL15   D T 802       1.318   3.575  -4.788  1.00 34.34    -0.082 Cl
HETATM   17  C13   D T 802       4.684   3.387  -6.971  1.00 32.72     0.026 A 
ENDBRANCH   1  10
TORSDOF 2
ENDMDL
MODEL 2
REMARK VINA RESULT:    -7.349      1.688      6.064
REMARK INTER + INTRA:          -8.716
REMARK INTER:                  -8.175
REMARK INTRA:                  -0.541
REMARK UNBOUND:                -0.508
REMARK  2 active torsions:
REMARK  status: ('A' for Active; 'I' for Inactive)
REMARK    1  A    between atoms: C5_4  and  O7_13 
REMARK    2  A    between atoms: C8_10  and  O7_13 
ROOT
HETATM    1  O7    D T 802       5.691   1.512  -7.207  1.00 33.38    -0.304 OA
ENDROOT
BRANCH   1   2
HETATM    2  C5    D T 802       4.630   2.042  -6.551  1.00 33.90     0.125 A 
HETATM    3  C6    D T 802       3.676   1.114  -5.898  1.00 34.14     0.154 A 
HETATM    4  C1    D T 802       2.589   1.654  -5.232  1.00 33.42     0.041 A 
HETATM    5  O17   D T 802       3.865  -0.230  -5.964  1.00 31.93    -0.188 OA
HETATM    6  C2    D T 802       2.423   3.039  -5.226  1.00 33.75     0.060 A 
HETATM    7  C3    D T 802       3.311   3.910  -5.859  1.00 34.09     0.014 A 
HETATM    8 CL14   D T 802       1.014   3.682  -4.345  1.00 31.80    -0.082 Cl
HETATM    9  C4    D T 802       4.428   3.419  -6.528  1.00 33.84     0.028 A 
ENDBRANCH   1   2
BRANCH   1  10
HETATM   10  C8    D T 802       5.684   1.555  -8.575  1.00 32.79     0.111 A 
HETATM   11  C9    D T 802       6.663   2.453  -9.204  1.00 33.58     0.081 A 
HETATM   12  C10   D T 802       6.716   2.559 -10.578  1.00 33.67     0.025 A 
HETATM   13 CL16   D T 802       7.739   3.411  -8.160  1.00 34.24    -0.080 Cl
HETATM   14  C11   D T 802       5.807   1.780 -11.293  1.00 34.91     0.059 A 
HETATM   15  C12   D T 802       4.873   0.913 -10.728  1.00 32.31     0.013 A 
HETATM   16 CL15   D T 802       5.888   1.929 -13.048  1.00 34.34    -0.082 Cl
HETATM   17  C13   D T 802       4.806   0.795  -9.350  1.00 32.72     0.026 A 
ENDBRANCH   1  10
TORSDOF 2
ENDMDL
MODEL 3
REMARK VINA RESULT:    -7.222      1.528      5.943
REMARK INTER + INTRA:          -8.575
REMARK INTER:                  -8.369
REMARK INTRA:                  -0.205
REMARK UNBOUND:                -0.508
REMARK  2 active torsions:
REMARK  status: ('A' for Active; 'I' for Inactive)
REMARK    1  A    between atoms: C5_4  and  O7_13 
REMARK    2  A    between atoms: C8_10  and  O7_13 
ROOT
HETATM    1  O7    D T 802       4.591   0.637  -7.894  1.00 33.38    -0.304 OA
ENDROOT
BRANCH   1   2
HETATM    2  C5    D T 802       3.848   1.486  -7.145  1.00 33.90     0.125 A 
HETATM    3  C6    D T 802       2.901   0.907  -6.162  1.00 34.14     0.154 A 
HETATM    4  C1    D T 802       2.137   1.775  -5.399  1.00 33.42     0.041 A 
HETATM    5  O17   D T 802       2.785  -0.440  -6.026  1.00 31.93    -0.188 OA
HETATM    6  C2    D T 802       2.270   3.148  -5.605  1.00 33.75     0.060 A 
HETATM    7  C3    D T 802       3.147   3.690  -6.546  1.00 34.09     0.014 A 
HETATM    8 CL14   D T 802       1.272   4.218  -4.589  1.00 31.80    -0.082 Cl
HETATM    9  C4    D T 802       3.948   2.863  -7.326  1.00 33.84     0.028 A 
ENDBRANCH   1   2
BRANCH   1  10
HETATM   10  C8    D T 802       4.904   1.016  -9.171  1.00 32.79     0.111 A 
HETATM   11  C9    D T 802       3.858   0.824 -10.184  1.00 33.58     0.081 A 
HETATM   12  C10   D T 802       4.097   1.175 -11.496  1.00 33.67     0.025 A 
HETATM   13 CL16   D T 802       2.308   0.106  -9.687  1.00 34.24    -0.080 Cl
HETATM   14  C11   D T 802       5.356   1.705 -11.774  1.00 34.91     0.059 A 
HETATM   15  C12   D T 802       6.367   1.908 -10.836  1.00 32.31     0.013 A 
HETATM   16 CL15   D T 802       5.645   2.147 -13.456  1.00 34.34    -0.082 Cl
HETATM   17  C13   D T 802       6.143   1.560  -9.514  1.00 32.72     0.026 A 
ENDBRANCH   1  10
TORSDOF 2
ENDMDL
MODEL 4
REMARK VINA RESULT:    -7.069      2.132      2.389
REMARK INTER + INTRA:          -8.404
REMARK INTER:                  -7.885
REMARK INTRA:                  -0.519
REMARK UNBOUND:                -0.508
REMARK  2 active torsions:
REMARK  status: ('A' for Active; 'I' for Inactive)
REMARK    1  A    between atoms: C5_4  and  O7_13 
REMARK    2  A    between atoms: C8_10  and  O7_13 
ROOT
HETATM    1  O7    D T 802       2.762   1.750  -7.849  1.00 33.38    -0.304 OA
ENDROOT
BRANCH   1   2
HETATM    2  C5    D T 802       3.653   1.609  -8.861  1.00 33.90     0.125 A 
HETATM    3  C6    D T 802       3.571   2.551 -10.002  1.00 34.14     0.154 A 
HETATM    4  C1    D T 802       4.477   2.405 -11.039  1.00 33.42     0.041 A 
HETATM    5  O17   D T 802       2.622   3.524 -10.027  1.00 31.93    -0.188 OA
HETATM    6  C2    D T 802       5.407   1.368 -10.979  1.00 33.75     0.060 A 
HETATM    7  C3    D T 802       5.469   0.469  -9.913  1.00 34.09     0.014 A 
HETATM    8 CL14   D T 802       6.557   1.232 -12.333  1.00 31.80    -0.082 Cl
HETATM    9  C4    D T 802       4.592   0.581  -8.840  1.00 33.84     0.028 A 
ENDBRANCH   1   2
BRANCH   1  10
HETATM   10  C8    D T 802       3.204   2.312  -6.682  1.00 32.79     0.111 A 
HETATM   11  C9    D T 802       3.317   1.412  -5.526  1.00 33.58     0.081 A 
HETATM   12  C10   D T 802       3.748   1.903  -4.311  1.00 33.67     0.025 A 
HETATM   13 CL16   D T 802       2.859  -0.295  -5.723  1.00 34.24    -0.080 Cl
HETATM   14  C11   D T 802       4.056   3.262  -4.268  1.00 34.91     0.059 A 
HETATM   15  C12   D T 802       3.967   4.141  -5.348  1.00 32.31     0.013 A 
HETATM   16 CL15   D T 802       4.603   3.873  -2.708  1.00 34.34    -0.082 Cl
HETATM   17  C13   D T 802       3.536   3.663  -6.574  1.00 32.72     0.026 A 
ENDBRANCH   1  10
TORSDOF 2
ENDMDL
MODEL 5
REMARK VINA RESULT:    -7.046      9.260     11.842
REMARK INTER + INTRA:          -8.378
REMARK INTER:                  -7.831
REMARK INTRA:                  -0.547
REMARK UNBOUND:                -0.508
REMARK  2 active torsions:
REMARK  status: ('A' for Active; 'I' for Inactive)
REMARK    1  A    between atoms: C5_4  and  O7_13 
REMARK    2  A    between atoms: C8_10  and  O7_13 
ROOT
HETATM    1  O7    D T 802       5.747   7.401   1.880  1.00 33.38    -0.304 OA
ENDROOT
BRANCH   1   2
HETATM    2  C5    D T 802       6.558   6.376   2.238  1.00 33.90     0.125 A 
HETATM    3  C6    D T 802       6.013   5.333   3.139  1.00 34.14     0.154 A 
HETATM    4  C1    D T 802       6.842   4.288   3.510  1.00 33.42     0.041 A 
HETATM    5  O17   D T 802       4.734   5.412   3.592  1.00 31.93    -0.188 OA
HETATM    6  C2    D T 802       8.157   4.274   3.044  1.00 33.75     0.060 A 
HETATM    7  C3    D T 802       8.675   5.268   2.212  1.00 34.09     0.014 A 
HETATM    8 CL14   D T 802       9.177   2.901   3.542  1.00 31.80    -0.082 Cl
HETATM    9  C4    D T 802       7.879   6.331   1.798  1.00 33.84     0.028 A 
ENDBRANCH   1   2
BRANCH   1  10
HETATM   10  C8    D T 802       5.299   7.440   0.588  1.00 32.79     0.111 A 
HETATM   11  C9    D T 802       5.733   8.590  -0.219  1.00 33.58     0.081 A 
HETATM   12  C10   D T 802       5.320   8.707  -1.529  1.00 33.67     0.025 A 
HETATM   13 CL16   D T 802       6.765   9.825   0.540  1.00 34.24    -0.080 Cl
HETATM   14  C11   D T 802       4.493   7.693  -2.009  1.00 34.91     0.059 A 
HETATM   15  C12   D T 802       4.070   6.585  -1.273  1.00 32.31     0.013 A 
HETATM   16 CL15   D T 802       3.972   7.859  -3.685  1.00 34.34    -0.082 Cl
HETATM   17  C13   D T 802       4.476   6.453   0.044  1.00 32.72     0.026 A 
ENDBRANCH   1  10
TORSDOF 2
ENDMDL
MODEL 6
REMARK VINA RESULT:    -7.041      2.428      6.057
REMARK INTER + INTRA:          -8.372
REMARK INTER:                  -7.836
REMARK INTRA:                  -0.536
REMARK UNBOUND:                -0.508
REMARK  2 active torsions:
REMARK  status: ('A' for Active; 'I' for Inactive)
REMARK    1  A    between atoms: C5_4  and  O7_13 
REMARK    2  A    between atoms: C8_10  and  O7_13 
ROOT
HETATM    1  O7    D T 802       4.831   3.780  -7.453  1.00 33.38    -0.304 OA
ENDROOT
BRANCH   1   2
HETATM    2  C5    D T 802       4.323   2.951  -6.510  1.00 33.90     0.125 A 
HETATM    3  C6    D T 802       3.029   3.311  -5.883  1.00 34.14     0.154 A 
HETATM    4  C1    D T 802       2.512   2.467  -4.916  1.00 33.42     0.041 A 
HETATM    5  O17   D T 802       2.379   4.448  -6.247  1.00 31.93    -0.188 OA
HETATM    6  C2    D T 802       3.238   1.332  -4.555  1.00 33.75     0.060 A 
HETATM    7  C3    D T 802       4.466   1.005  -5.132  1.00 34.09     0.014 A 
HETATM    8 CL14   D T 802       2.521   0.274  -3.313  1.00 31.80    -0.082 Cl
HETATM    9  C4    D T 802       5.022   1.811  -6.119  1.00 33.84     0.028 A 
ENDBRANCH   1   2
BRANCH   1  10
HETATM   10  C8    D T 802       4.884   3.326  -8.743  1.00 32.79     0.111 A 
HETATM   11  C9    D T 802       6.221   3.035  -9.279  1.00 33.58     0.081 A 
HETATM   12  C10   D T 802       6.361   2.580 -10.573  1.00 33.67     0.025 A 
HETATM   13 CL16   D T 802       7.637   3.314  -8.238  1.00 34.24    -0.080 Cl
HETATM   14  C11   D T 802       5.184   2.423 -11.303  1.00 34.91     0.059 A 
HETATM   15  C12   D T 802       3.900   2.682 -10.823  1.00 32.31     0.013 A 
HETATM   16 CL15   D T 802       5.381   1.842 -12.955  1.00 34.34    -0.082 Cl
HETATM   17  C13   D T 802       3.743   3.140  -9.525  1.00 32.72     0.026 A 
ENDBRANCH   1  10
TORSDOF 2
ENDMDL
MODEL 7
REMARK VINA RESULT:    -6.995      1.702      2.433
REMARK INTER + INTRA:          -8.321
REMARK INTER:                  -7.816
REMARK INTRA:                  -0.505
REMARK UNBOUND:                -0.508
REMARK  2 active torsions:
REMARK  status: ('A' for Active; 'I' for Inactive)
REMARK    1  A    between atoms: C5_4  and  O7_13 
REMARK    2  A    between atoms: C8_10  and  O7_13 
ROOT
HETATM    1  O7    D T 802       4.729   3.746  -7.519  1.00 33.38    -0.304 OA
ENDROOT
BRANCH   1   2
HETATM    2  C5    D T 802       4.847   3.330  -8.803  1.00 33.90     0.125 A 
HETATM    3  C6    D T 802       6.208   3.085  -9.338  1.00 34.14     0.154 A 
HETATM    4  C1    D T 802       6.330   2.665 -10.652  1.00 33.42     0.041 A 
HETATM    5  O17   D T 802       7.302   3.281  -8.556  1.00 31.93    -0.188 OA
HETATM    6  C2    D T 802       5.176   2.515 -11.420  1.00 33.75     0.060 A 
HETATM    7  C3    D T 802       3.897   2.765 -10.921  1.00 34.09     0.014 A 
HETATM    8 CL14   D T 802       5.389   1.961 -13.100  1.00 31.80    -0.082 Cl
HETATM    9  C4    D T 802       3.719   3.175  -9.604  1.00 33.84     0.028 A 
ENDBRANCH   1   2
BRANCH   1  10
HETATM   10  C8    D T 802       4.337   2.828  -6.583  1.00 32.79     0.111 A 
HETATM   11  C9    D T 802       3.080   3.113  -5.876  1.00 33.58     0.081 A 
HETATM   12  C10   D T 802       2.619   2.241  -4.913  1.00 33.67     0.025 A 
HETATM   13 CL16   D T 802       2.200   4.609  -6.268  1.00 34.24    -0.080 Cl
HETATM   14  C11   D T 802       3.404   1.115  -4.672  1.00 34.91     0.059 A 
HETATM   15  C12   D T 802       4.596   0.811  -5.330  1.00 32.31     0.013 A 
HETATM   16 CL15   D T 802       2.801   0.012  -3.437  1.00 34.34    -0.082 Cl
HETATM   17  C13   D T 802       5.073   1.677  -6.300  1.00 32.72     0.026 A 
ENDBRANCH   1  10
TORSDOF 2
ENDMDL
MODEL 8
REMARK VINA RESULT:    -6.857      2.817      3.599
REMARK INTER + INTRA:          -8.166
REMARK INTER:                  -7.754
REMARK INTRA:                  -0.412
REMARK UNBOUND:                -0.508
REMARK  2 active torsions:
REMARK  status: ('A' for Active; 'I' for Inactive)
REMARK    1  A    between atoms: C5_4  and  O7_13 
REMARK    2  A    between atoms: C8_10  and  O7_13 
ROOT
HETATM    1  O7    D T 802       5.241   2.385  -8.175  1.00 33.38    -0.304 OA
ENDROOT
BRANCH   1   2
HETATM    2  C5    D T 802       5.323   2.234  -9.519  1.00 33.90     0.125 A 
HETATM    3  C6    D T 802       4.489   3.112 -10.374  1.00 34.14     0.154 A 
HETATM    4  C1    D T 802       4.568   2.955 -11.748  1.00 33.42     0.041 A 
HETATM    5  O17   D T 802       3.664   4.037  -9.817  1.00 31.93    -0.188 OA
HETATM    6  C2    D T 802       5.405   1.967 -12.266  1.00 33.75     0.060 A 
HETATM    7  C3    D T 802       6.173   1.127 -11.458  1.00 34.09     0.014 A 
HETATM    8 CL14   D T 802       5.478   1.816 -14.039  1.00 31.80    -0.082 Cl
HETATM    9  C4    D T 802       6.142   1.253 -10.073  1.00 33.84     0.028 A 
ENDBRANCH   1   2
BRANCH   1  10
HETATM   10  C8    D T 802       6.409   2.467  -7.468  1.00 32.79     0.111 A 
HETATM   11  C9    D T 802       6.600   1.470  -6.405  1.00 33.58     0.081 A 
HETATM   12  C10   D T 802       7.749   1.489  -5.641  1.00 33.67     0.025 A 
HETATM   13 CL16   D T 802       5.314   0.277  -6.110  1.00 34.24    -0.080 Cl
HETATM   14  C11   D T 802       8.676   2.485  -5.945  1.00 34.91     0.059 A 
HETATM   15  C12   D T 802       8.530   3.439  -6.952  1.00 32.31     0.013 A 
HETATM   16 CL15   D T 802      10.137   2.495  -4.959  1.00 34.34    -0.082 Cl
HETATM   17  C13   D T 802       7.382   3.434  -7.727  1.00 32.72     0.026 A 
ENDBRANCH   1  10
TORSDOF 2
ENDMDL
MODEL 9
REMARK VINA RESULT:    -6.745      2.764      3.323
REMARK INTER + INTRA:          -8.042
REMARK INTER:                  -7.514
REMARK INTRA:                  -0.528
REMARK UNBOUND:                -0.508
REMARK  2 active torsions:
REMARK  status: ('A' for Active; 'I' for Inactive)
REMARK    1  A    between atoms: C5_4  and  O7_13 
REMARK    2  A    between atoms: C8_10  and  O7_13 
ROOT
HETATM    1  O7    D T 802       4.322   1.661  -7.495  1.00 33.38    -0.304 OA
ENDROOT
BRANCH   1   2
HETATM    2  C5    D T 802       5.658   1.768  -7.302  1.00 33.90     0.125 A 
HETATM    3  C6    D T 802       6.462   2.462  -8.337  1.00 34.14     0.154 A 
HETATM    4  C1    D T 802       7.829   2.568  -8.144  1.00 33.42     0.041 A 
HETATM    5  O17   D T 802       5.866   2.968  -9.449  1.00 31.93    -0.188 OA
HETATM    6  C2    D T 802       8.393   1.999  -7.003  1.00 33.75     0.060 A 
HETATM    7  C3    D T 802       7.638   1.329  -6.039  1.00 34.09     0.014 A 
HETATM    8 CL14   D T 802      10.154   2.175  -6.798  1.00 31.80    -0.082 Cl
HETATM    9  C4    D T 802       6.260   1.208  -6.178  1.00 33.84     0.028 A 
ENDBRANCH   1   2
BRANCH   1  10
HETATM   10  C8    D T 802       3.496   2.337  -6.639  1.00 32.79     0.111 A 
HETATM   11  C9    D T 802       2.739   1.520  -5.679  1.00 33.58     0.081 A 
HETATM   12  C10   D T 802       1.880   2.126  -4.787  1.00 33.67     0.025 A 
HETATM   13 CL16   D T 802       2.935  -0.247  -5.722  1.00 34.24    -0.080 Cl
HETATM   14  C11   D T 802       1.789   3.515  -4.862  1.00 34.91     0.059 A 
HETATM   15  C12   D T 802       2.498   4.319  -5.754  1.00 32.31     0.013 A 
HETATM   16 CL15   D T 802       0.684   4.272  -3.716  1.00 34.34    -0.082 Cl
HETATM   17  C13   D T 802       3.365   3.727  -6.657  1.00 32.72     0.026 A 
ENDBRANCH   1  10
TORSDOF 2
ENDMDL
