MODEL 1
REMARK VINA RESULT:    -8.906      0.000      0.000
REMARK INTER + INTRA:         -11.978
REMARK INTER:                 -10.988
REMARK INTRA:                  -0.989
REMARK UNBOUND:                -0.989
REMARK  4 active torsions:
REMARK  status: ('A' for Active; 'I' for Inactive)
REMARK    1  A    between atoms: C1_1  and  N3_7 
REMARK    2  A    between atoms: N3_7  and  C5_8 
REMARK    3  A    between atoms: C8_11  and  N7_34 
REMARK    4  A    between atoms: N5_16  and  C19_26 
ROOT
HETATM    1  C1    D T   1      -7.124  -8.823  -7.725  1.00  8.98     0.751 A 
HETATM    2  N1    D T   1      -6.590  -7.669  -7.206  1.00  8.90    -0.041 NA
HETATM    3  C2    D T   1      -7.251  -6.496  -7.149  1.00  9.32     0.188 A 
HETATM    4  C3    D T   1      -8.637  -6.517  -7.692  1.00  8.55     0.112 A 
HETATM    5  C4    D T   1      -9.233  -7.743  -8.239  1.00 10.16     0.126 A 
HETATM    6  N2    D T   1      -8.424  -8.854  -8.229  1.00  8.40    -0.057 NA
HETATM    7  N4    D T   1      -6.592  -5.294  -6.626  1.00 10.02    -0.124 N 
HETATM    8  C11   D T   1      -7.204  -4.056  -6.568  1.00  8.08     0.723 A 
HETATM    9  N5    D T   1      -8.536  -3.997  -7.054  1.00  9.52    -0.107 N 
HETATM   10  C12   D T   1      -9.196  -5.203  -7.606  1.00  8.74     0.283 A 
HETATM   11  C13   D T   1      -5.285  -5.016  -6.098  1.00  8.60     0.093 A 
HETATM   12  C14   D T   1      -5.134  -3.592  -5.751  1.00  8.87     0.094 A 
HETATM   13  N6    D T   1      -6.351  -3.029  -6.053  1.00  8.74    -0.065 NA
HETATM   14  C15   D T   1      -4.087  -5.853  -5.863  1.00  8.67    -0.007 A 
HETATM   15  C16   D T   1      -2.818  -5.341  -5.320  1.00 10.01     0.028 A 
HETATM   16  C17   D T   1      -2.748  -3.928  -5.008  1.00  8.30     0.011 A 
HETATM   17  C18   D T   1      -3.873  -3.041  -5.211  1.00  8.80     0.048 A 
HETATM   18  O1    D T   1     -10.296  -5.158  -8.143  1.00  9.45    -0.266 OA
ENDROOT
BRANCH   1  19
HETATM   19  N3    D T   1      -6.297  -9.935  -7.797  1.00 10.50    -0.059 NA
BRANCH  19  20
HETATM   20  C5    D T   1      -6.378 -11.204  -7.166  1.00 13.72     0.096 A 
HETATM   21  C6    D T   1      -7.571 -11.557  -6.372  1.00 16.17     0.021 A 
HETATM   22  C7    D T   1      -7.743 -12.848  -5.825  1.00 18.76     0.014 A 
HETATM   23  C8    D T   1      -6.669 -13.751  -6.110  1.00 19.63     0.038 A 
HETATM   24  C9    D T   1      -5.434 -13.437  -6.884  1.00 18.58     0.071 A 
HETATM   25  C10   D T   1      -5.290 -12.119  -7.423  1.00 14.74    -0.000 A 
BRANCH  23  26
HETATM   26  N7    D T   1      -6.990 -14.989  -5.611  1.00 23.52    -0.347 N 
HETATM   27  C27   D T   1      -8.385 -15.185  -5.302  1.00 25.21     0.137 C 
HETATM   28  C28   D T   1      -8.532 -15.890  -3.960  1.00 27.80     0.274 C 
HETATM   29  N8    D T   1      -7.609 -17.037  -3.978  1.00 28.55     0.143 N 
HETATM   30  C29   D T   1      -6.199 -16.621  -3.965  1.00 28.15     0.274 C 
HETATM   31  C31   D T   1      -7.766 -17.597  -2.644  1.00 29.41     0.286 C 
HETATM   32  C30   D T   1      -6.006 -16.125  -5.396  1.00 25.70     0.137 C 
ENDBRANCH  23  26
ENDBRANCH  19  20
ENDBRANCH   1  19
BRANCH   9  33
HETATM   33  C19   D T   1      -9.246  -2.833  -6.922  1.00  9.46     0.076 A 
HETATM   34  C20   D T   1     -10.024  -2.575  -5.711  1.00  9.11    -0.005 A 
HETATM   35  C21   D T   1     -10.780  -1.336  -5.591  1.00  9.01    -0.003 A 
HETATM   36  C26   D T   1     -10.032  -3.623  -4.615  1.00  8.02     0.033 C 
HETATM   37  C22   D T   1     -10.794  -0.341  -6.618  1.00  9.80    -0.001 A 
HETATM   38  C23   D T   1     -10.025  -0.641  -7.767  1.00 10.49    -0.003 A 
HETATM   39  C24   D T   1      -9.251  -1.846  -7.971  1.00 10.01    -0.005 A 
HETATM   40  C25   D T   1      -8.520  -2.049  -9.281  1.00 10.21     0.033 C 
ENDBRANCH   9  33
TORSDOF 4
ENDMDL
MODEL 2
REMARK VINA RESULT:    -8.779      1.466      2.012
REMARK INTER + INTRA:         -11.821
REMARK INTER:                 -10.693
REMARK INTRA:                  -1.129
REMARK UNBOUND:                -0.989
REMARK  4 active torsions:
REMARK  status: ('A' for Active; 'I' for Inactive)
REMARK    1  A    between atoms: C1_1  and  N3_7 
REMARK    2  A    between atoms: N3_7  and  C5_8 
REMARK    3  A    between atoms: C8_11  and  N7_34 
REMARK    4  A    between atoms: N5_16  and  C19_26 
ROOT
HETATM    1  C1    D T   1      -8.087  -7.586  -7.876  1.00  8.98     0.751 A 
HETATM    2  N1    D T   1      -7.385  -6.580  -7.258  1.00  8.90    -0.041 NA
HETATM    3  C2    D T   1      -7.918  -5.386  -6.929  1.00  9.32     0.188 A 
HETATM    4  C3    D T   1      -9.354  -5.210  -7.277  1.00  8.55     0.112 A 
HETATM    5  C4    D T   1     -10.127  -6.277  -7.925  1.00 10.16     0.126 A 
HETATM    6  N2    D T   1      -9.435  -7.432  -8.199  1.00  8.40    -0.057 NA
HETATM    7  N4    D T   1      -7.087  -4.343  -6.317  1.00 10.02    -0.124 N 
HETATM    8  C11   D T   1      -7.564  -3.090  -5.983  1.00  8.08     0.723 A 
HETATM    9  N5    D T   1      -8.933  -2.848  -6.271  1.00  9.52    -0.107 N 
HETATM   10  C12   D T   1      -9.769  -3.891  -6.912  1.00  8.74     0.283 A 
HETATM   11  C13   D T   1      -5.705  -4.259  -5.932  1.00  8.60     0.093 A 
HETATM   12  C14   D T   1      -5.376  -2.930  -5.388  1.00  8.87     0.094 A 
HETATM   13  N6    D T   1      -6.560  -2.232  -5.432  1.00  8.74    -0.065 NA
HETATM   14  C15   D T   1      -4.575  -5.212  -5.995  1.00  8.67    -0.007 A 
HETATM   15  C16   D T   1      -3.206  -4.897  -5.553  1.00 10.01     0.028 A 
HETATM   16  C17   D T   1      -2.963  -3.566  -5.035  1.00  8.30     0.011 A 
HETATM   17  C18   D T   1      -4.012  -2.575  -4.943  1.00  8.80     0.048 A 
HETATM   18  O1    D T   1     -10.915  -3.672  -7.282  1.00  9.45    -0.266 OA
ENDROOT
BRANCH   1  19
HETATM   19  N3    D T   1      -7.387  -8.730  -8.232  1.00 10.50    -0.059 NA
BRANCH  19  20
HETATM   20  C5    D T   1      -7.320 -10.012  -7.628  1.00 13.72     0.096 A 
HETATM   21  C6    D T   1      -6.814 -11.165  -8.399  1.00 16.17     0.021 A 
HETATM   22  C7    D T   1      -6.622 -12.431  -7.802  1.00 18.76     0.014 A 
HETATM   23  C8    D T   1      -6.963 -12.479  -6.412  1.00 19.63     0.038 A 
HETATM   24  C9    D T   1      -7.501 -11.352  -5.596  1.00 18.58     0.071 A 
HETATM   25  C10   D T   1      -7.685 -10.083  -6.232  1.00 14.74    -0.000 A 
BRANCH  23  26
HETATM   26  N7    D T   1      -6.649 -13.722  -5.924  1.00 23.52    -0.347 N 
HETATM   27  C27   D T   1      -5.245 -13.959  -5.699  1.00 25.21     0.137 C 
HETATM   28  C28   D T   1      -4.855 -15.339  -6.211  1.00 27.80     0.274 C 
HETATM   29  N8    D T   1      -5.857 -16.285  -5.692  1.00 28.55     0.143 N 
HETATM   30  C29   D T   1      -7.182 -16.083  -6.297  1.00 28.15     0.274 C 
HETATM   31  C31   D T   1      -5.447 -17.548  -6.288  1.00 29.41     0.286 C 
HETATM   32  C30   D T   1      -7.656 -14.811  -5.599  1.00 25.70     0.137 C 
ENDBRANCH  23  26
ENDBRANCH  19  20
ENDBRANCH   1  19
BRANCH   9  33
HETATM   33  C19   D T   1      -9.505  -1.672  -5.863  1.00  9.46     0.076 A 
HETATM   34  C20   D T   1     -10.152  -1.580  -4.555  1.00  9.11    -0.005 A 
HETATM   35  C21   D T   1     -10.764  -0.324  -4.141  1.00  9.01    -0.003 A 
HETATM   36  C26   D T   1     -10.180  -2.810  -3.669  1.00  8.02     0.033 C 
HETATM   37  C22   D T   1     -10.757   0.844  -4.967  1.00  9.80    -0.001 A 
HETATM   38  C23   D T   1     -10.119   0.698  -6.221  1.00 10.49    -0.003 A 
HETATM   39  C24   D T   1      -9.492  -0.509  -6.713  1.00 10.01    -0.005 A 
HETATM   40  C25   D T   1      -8.895  -0.526  -8.103  1.00 10.21     0.033 C 
ENDBRANCH   9  33
TORSDOF 4
ENDMDL
MODEL 3
REMARK VINA RESULT:    -8.623      2.984      4.910
REMARK INTER + INTRA:         -11.628
REMARK INTER:                 -10.470
REMARK INTRA:                  -1.159
REMARK UNBOUND:                -0.989
REMARK  4 active torsions:
REMARK  status: ('A' for Active; 'I' for Inactive)
REMARK    1  A    between atoms: C1_1  and  N3_7 
REMARK    2  A    between atoms: N3_7  and  C5_8 
REMARK    3  A    between atoms: C8_11  and  N7_34 
REMARK    4  A    between atoms: N5_16  and  C19_26 
ROOT
HETATM    1  C1    D T   1      -4.541  -5.906  -6.421  1.00  8.98     0.751 A 
HETATM    2  N1    D T   1      -5.844  -5.698  -6.804  1.00  8.90    -0.041 NA
HETATM    3  C2    D T   1      -6.434  -4.487  -6.833  1.00  9.32     0.188 A 
HETATM    4  C3    D T   1      -5.572  -3.347  -6.416  1.00  8.55     0.112 A 
HETATM    5  C4    D T   1      -4.173  -3.544  -6.016  1.00 10.16     0.126 A 
HETATM    6  N2    D T   1      -3.724  -4.843  -6.037  1.00  8.40    -0.057 NA
HETATM    7  N4    D T   1      -7.847  -4.355  -7.205  1.00 10.02    -0.124 N 
HETATM    8  C11   D T   1      -8.518  -3.147  -7.225  1.00  8.08     0.723 A 
HETATM    9  N5    D T   1      -7.759  -2.007  -6.854  1.00  9.52    -0.107 N 
HETATM   10  C12   D T   1      -6.338  -2.140  -6.453  1.00  8.74     0.283 A 
HETATM   11  C13   D T   1      -8.872  -5.284  -7.594  1.00  8.60     0.093 A 
HETATM   12  C14   D T   1     -10.159  -4.603  -7.821  1.00  8.87     0.094 A 
HETATM   13  N6    D T   1      -9.897  -3.274  -7.585  1.00  8.74    -0.065 NA
HETATM   14  C15   D T   1      -8.893  -6.751  -7.785  1.00  8.67    -0.007 A 
HETATM   15  C16   D T   1     -10.090  -7.515  -8.175  1.00 10.01     0.028 A 
HETATM   16  C17   D T   1     -11.318  -6.773  -8.374  1.00  8.30     0.011 A 
HETATM   17  C18   D T   1     -11.383  -5.338  -8.206  1.00  8.80     0.048 A 
HETATM   18  O1    D T   1      -5.693  -1.196  -6.013  1.00  9.45    -0.266 OA
ENDROOT
BRANCH   1  19
HETATM   19  N3    D T   1      -4.093  -7.217  -6.360  1.00 10.50    -0.059 NA
BRANCH  19  20
HETATM   20  C5    D T   1      -4.699  -8.434  -6.769  1.00 13.72     0.096 A 
HETATM   21  C6    D T   1      -6.122  -8.687  -6.465  1.00 16.17     0.021 A 
HETATM   22  C7    D T   1      -6.793  -9.830  -6.954  1.00 18.76     0.014 A 
HETATM   23  C8    D T   1      -5.972 -10.694  -7.749  1.00 19.63     0.038 A 
HETATM   24  C9    D T   1      -4.528 -10.497  -8.063  1.00 18.58     0.071 A 
HETATM   25  C10   D T   1      -3.878  -9.328  -7.551  1.00 14.74    -0.000 A 
BRANCH  23  26
HETATM   26  N7    D T   1      -6.751 -11.711  -8.241  1.00 23.52    -0.347 N 
HETATM   27  C27   D T   1      -6.266 -12.328  -9.450  1.00 25.21     0.137 C 
HETATM   28  C28   D T   1      -7.412 -12.539 -10.430  1.00 27.80     0.274 C 
HETATM   29  N8    D T   1      -8.511 -13.160  -9.672  1.00 28.55     0.143 N 
HETATM   30  C29   D T   1      -9.100 -12.240  -8.687  1.00 28.15     0.274 C 
HETATM   31  C31   D T   1      -9.573 -13.253 -10.663  1.00 29.41     0.286 C 
HETATM   32  C30   D T   1      -8.029 -12.220  -7.599  1.00 25.70     0.137 C 
ENDBRANCH  23  26
ENDBRANCH  19  20
ENDBRANCH   1  19
BRANCH   9  33
HETATM   33  C19   D T   1      -8.322  -0.764  -6.962  1.00  9.46     0.076 A 
HETATM   34  C20   D T   1      -9.117  -0.215  -5.864  1.00  9.11    -0.005 A 
HETATM   35  C21   D T   1      -9.717   1.106  -5.999  1.00  9.01    -0.003 A 
HETATM   36  C26   D T   1      -9.307  -1.052  -4.614  1.00  8.02     0.033 C 
HETATM   37  C22   D T   1      -9.560   1.906  -7.174  1.00  9.80    -0.001 A 
HETATM   38  C23   D T   1      -8.782   1.327  -8.205  1.00 10.49    -0.003 A 
HETATM   39  C24   D T   1      -8.156   0.024  -8.156  1.00 10.01    -0.005 A 
HETATM   40  C25   D T   1      -7.396  -0.483  -9.364  1.00 10.21     0.033 C 
ENDBRANCH   9  33
TORSDOF 4
ENDMDL
MODEL 4
REMARK VINA RESULT:    -8.449      2.314      4.482
REMARK INTER + INTRA:         -11.413
REMARK INTER:                 -10.397
REMARK INTRA:                  -1.017
REMARK UNBOUND:                -0.989
REMARK  4 active torsions:
REMARK  status: ('A' for Active; 'I' for Inactive)
REMARK    1  A    between atoms: C1_1  and  N3_7 
REMARK    2  A    between atoms: N3_7  and  C5_8 
REMARK    3  A    between atoms: C8_11  and  N7_34 
REMARK    4  A    between atoms: N5_16  and  C19_26 
ROOT
HETATM    1  C1    D T   1      -4.640  -5.943  -6.411  1.00  8.98     0.751 A 
HETATM    2  N1    D T   1      -5.936  -5.719  -6.808  1.00  8.90    -0.041 NA
HETATM    3  C2    D T   1      -6.510  -4.500  -6.842  1.00  9.32     0.188 A 
HETATM    4  C3    D T   1      -5.638  -3.371  -6.414  1.00  8.55     0.112 A 
HETATM    5  C4    D T   1      -4.247  -3.587  -5.998  1.00 10.16     0.126 A 
HETATM    6  N2    D T   1      -3.814  -4.891  -6.015  1.00  8.40    -0.057 NA
HETATM    7  N4    D T   1      -7.917  -4.349  -7.229  1.00 10.02    -0.124 N 
HETATM    8  C11   D T   1      -8.572  -3.133  -7.255  1.00  8.08     0.723 A 
HETATM    9  N5    D T   1      -7.802  -2.003  -6.875  1.00  9.52    -0.107 N 
HETATM   10  C12   D T   1      -6.388  -2.154  -6.458  1.00  8.74     0.283 A 
HETATM   11  C13   D T   1      -8.950  -5.264  -7.632  1.00  8.60     0.093 A 
HETATM   12  C14   D T   1     -10.225  -4.567  -7.872  1.00  8.87     0.094 A 
HETATM   13  N6    D T   1      -9.949  -3.242  -7.632  1.00  8.74    -0.065 NA
HETATM   14  C15   D T   1      -8.987  -6.731  -7.824  1.00  8.67    -0.007 A 
HETATM   15  C16   D T   1     -10.189  -7.479  -8.229  1.00 10.01     0.028 A 
HETATM   16  C17   D T   1     -11.405  -6.720  -8.441  1.00  8.30     0.011 A 
HETATM   17  C18   D T   1     -11.454  -5.285  -8.272  1.00  8.80     0.048 A 
HETATM   18  O1    D T   1      -5.736  -1.220  -6.009  1.00  9.45    -0.266 OA
ENDROOT
BRANCH   1  19
HETATM   19  N3    D T   1      -4.210  -7.261  -6.346  1.00 10.50    -0.059 NA
BRANCH  19  20
HETATM   20  C5    D T   1      -4.794  -8.461  -6.827  1.00 13.72     0.096 A 
HETATM   21  C6    D T   1      -3.967  -9.443  -7.556  1.00 16.17     0.021 A 
HETATM   22  C7    D T   1      -4.481 -10.699  -7.949  1.00 18.76     0.014 A 
HETATM   23  C8    D T   1      -5.848 -10.913  -7.582  1.00 19.63     0.038 A 
HETATM   24  C9    D T   1      -6.732  -9.945  -6.870  1.00 18.58     0.071 A 
HETATM   25  C10   D T   1      -6.181  -8.681  -6.486  1.00 14.74    -0.000 A 
BRANCH  23  26
HETATM   26  N7    D T   1      -6.204 -12.191  -7.931  1.00 23.52    -0.347 N 
HETATM   27  C27   D T   1      -7.546 -12.577  -7.571  1.00 25.21     0.137 C 
HETATM   28  C28   D T   1      -7.550 -13.980  -6.980  1.00 27.80     0.274 C 
HETATM   29  N8    D T   1      -6.755 -14.826  -7.885  1.00 28.55     0.143 N 
HETATM   30  C29   D T   1      -5.326 -14.476  -7.865  1.00 28.15     0.274 C 
HETATM   31  C31   D T   1      -6.755 -16.113  -7.206  1.00 29.41     0.286 C 
HETATM   32  C30   D T   1      -5.311 -13.176  -8.664  1.00 25.70     0.137 C 
ENDBRANCH  23  26
ENDBRANCH  19  20
ENDBRANCH   1  19
BRANCH   9  33
HETATM   33  C19   D T   1      -8.349  -0.752  -6.987  1.00  9.46     0.076 A 
HETATM   34  C20   D T   1      -9.129  -0.185  -5.888  1.00  9.11    -0.005 A 
HETATM   35  C21   D T   1      -9.711   1.143  -6.029  1.00  9.01    -0.003 A 
HETATM   36  C26   D T   1      -9.324  -1.012  -4.632  1.00  8.02     0.033 C 
HETATM   37  C22   D T   1      -9.549   1.933  -7.209  1.00  9.80    -0.001 A 
HETATM   38  C23   D T   1      -8.785   1.337  -8.241  1.00 10.49    -0.003 A 
HETATM   39  C24   D T   1      -8.178   0.025  -8.188  1.00 10.01    -0.005 A 
HETATM   40  C25   D T   1      -7.433  -0.500  -9.396  1.00 10.21     0.033 C 
ENDBRANCH   9  33
TORSDOF 4
ENDMDL
MODEL 5
REMARK VINA RESULT:    -8.407      7.096     13.400
REMARK INTER + INTRA:         -11.363
REMARK INTER:                  -9.974
REMARK INTRA:                  -1.389
REMARK UNBOUND:                -0.989
REMARK  4 active torsions:
REMARK  status: ('A' for Active; 'I' for Inactive)
REMARK    1  A    between atoms: C1_1  and  N3_7 
REMARK    2  A    between atoms: N3_7  and  C5_8 
REMARK    3  A    between atoms: C8_11  and  N7_34 
REMARK    4  A    between atoms: N5_16  and  C19_26 
ROOT
HETATM    1  C1    D T   1     -12.152   2.280  -4.785  1.00  8.98     0.751 A 
HETATM    2  N1    D T   1     -11.290   1.356  -5.323  1.00  8.90    -0.041 NA
HETATM    3  C2    D T   1     -11.642   0.093  -5.633  1.00  9.32     0.188 A 
HETATM    4  C3    D T   1     -13.061  -0.261  -5.355  1.00  8.55     0.112 A 
HETATM    5  C4    D T   1     -14.003   0.715  -4.793  1.00 10.16     0.126 A 
HETATM    6  N2    D T   1     -13.485   1.960  -4.529  1.00  8.40    -0.057 NA
HETATM    7  N4    D T   1     -10.648  -0.851  -6.157  1.00 10.02    -0.124 N 
HETATM    8  C11   D T   1     -10.937  -2.167  -6.465  1.00  8.08     0.723 A 
HETATM    9  N5    D T   1     -12.277  -2.578  -6.242  1.00  9.52    -0.107 N 
HETATM   10  C12   D T   1     -13.278  -1.635  -5.689  1.00  8.74     0.283 A 
HETATM   11  C13   D T   1      -9.246  -0.764  -6.463  1.00  8.60     0.093 A 
HETATM   12  C14   D T   1      -8.716  -2.055  -6.934  1.00  8.87     0.094 A 
HETATM   13  N6    D T   1      -9.799  -2.901  -6.926  1.00  8.74    -0.065 NA
HETATM   14  C15   D T   1      -8.255   0.332  -6.378  1.00  8.67    -0.007 A 
HETATM   15  C16   D T   1      -6.834   0.187  -6.732  1.00 10.01     0.028 A 
HETATM   16  C17   D T   1      -6.389  -1.116  -7.182  1.00  8.30     0.011 A 
HETATM   17  C18   D T   1      -7.293  -2.240  -7.291  1.00  8.80     0.048 A 
HETATM   18  O1    D T   1     -14.406  -1.991  -5.373  1.00  9.45    -0.266 OA
ENDROOT
BRANCH   1  19
HETATM   19  N3    D T   1     -11.629   3.518  -4.438  1.00 10.50    -0.059 NA
BRANCH  19  20
HETATM   20  C5    D T   1     -10.713   4.368  -5.110  1.00 13.72     0.096 A 
HETATM   21  C6    D T   1      -9.319   4.474  -4.633  1.00 16.17     0.021 A 
HETATM   22  C7    D T   1      -8.348   5.217  -5.340  1.00 18.76     0.014 A 
HETATM   23  C8    D T   1      -8.842   5.842  -6.530  1.00 19.63     0.038 A 
HETATM   24  C9    D T   1     -10.242   5.787  -7.040  1.00 18.58     0.071 A 
HETATM   25  C10   D T   1     -11.202   5.026  -6.299  1.00 14.74    -0.000 A 
BRANCH  23  26
HETATM   26  N7    D T   1      -7.795   6.452  -7.175  1.00 23.52    -0.347 N 
HETATM   27  C27   D T   1      -7.466   5.905  -8.468  1.00 25.21     0.137 C 
HETATM   28  C28   D T   1      -5.957   5.766  -8.614  1.00 27.80     0.274 C 
HETATM   29  N8    D T   1      -5.368   7.043  -8.178  1.00 28.55     0.143 N 
HETATM   30  C29   D T   1      -5.530   7.270  -6.734  1.00 28.15     0.274 C 
HETATM   31  C31   D T   1      -3.938   6.791  -8.281  1.00 29.41     0.286 C 
HETATM   32  C30   D T   1      -7.009   7.634  -6.638  1.00 25.70     0.137 C 
ENDBRANCH  23  26
ENDBRANCH  19  20
ENDBRANCH   1  19
BRANCH   9  33
HETATM   33  C19   D T   1     -12.666  -3.832  -6.633  1.00  9.46     0.076 A 
HETATM   34  C20   D T   1     -12.588  -4.954  -5.700  1.00  9.11    -0.005 A 
HETATM   35  C21   D T   1     -12.997  -6.283  -6.135  1.00  9.01    -0.003 A 
HETATM   36  C26   D T   1     -12.062  -4.701  -4.300  1.00  8.02     0.033 C 
HETATM   37  C22   D T   1     -13.484  -6.544  -7.454  1.00  9.80    -0.001 A 
HETATM   38  C23   D T   1     -13.539  -5.423  -8.315  1.00 10.49    -0.003 A 
HETATM   39  C24   D T   1     -13.149  -4.074  -7.968  1.00 10.01    -0.005 A 
HETATM   40  C25   D T   1     -13.215  -2.986  -9.018  1.00 10.21     0.033 C 
ENDBRANCH   9  33
TORSDOF 4
ENDMDL
MODEL 6
REMARK VINA RESULT:    -8.283      4.043      8.239
REMARK INTER + INTRA:         -11.209
REMARK INTER:                 -10.465
REMARK INTRA:                  -0.744
REMARK UNBOUND:                -0.989
REMARK  4 active torsions:
REMARK  status: ('A' for Active; 'I' for Inactive)
REMARK    1  A    between atoms: C1_1  and  N3_7 
REMARK    2  A    between atoms: N3_7  and  C5_8 
REMARK    3  A    between atoms: C8_11  and  N7_34 
REMARK    4  A    between atoms: N5_16  and  C19_26 
ROOT
HETATM    1  C1    D T   1      -8.374  -1.598  -8.216  1.00  8.98     0.751 A 
HETATM    2  N1    D T   1      -9.570  -0.941  -8.059  1.00  8.90    -0.041 NA
HETATM    3  C2    D T   1      -9.685   0.295  -7.536  1.00  9.32     0.188 A 
HETATM    4  C3    D T   1      -8.406   0.936  -7.125  1.00  8.55     0.112 A 
HETATM    5  C4    D T   1      -7.114   0.258  -7.295  1.00 10.16     0.126 A 
HETATM    6  N2    D T   1      -7.170  -1.002  -7.840  1.00  8.40    -0.057 NA
HETATM    7  N4    D T   1     -11.005   0.908  -7.354  1.00 10.02    -0.124 N 
HETATM    8  C11   D T   1     -11.193   2.159  -6.796  1.00  8.08     0.723 A 
HETATM    9  N5    D T   1     -10.017   2.842  -6.392  1.00  9.52    -0.107 N 
HETATM   10  C12   D T   1      -8.683   2.216  -6.550  1.00  8.74     0.283 A 
HETATM   11  C13   D T   1     -12.353   0.486  -7.624  1.00  8.60     0.093 A 
HETATM   12  C14   D T   1     -13.332   1.500  -7.197  1.00  8.87     0.094 A 
HETATM   13  N6    D T   1     -12.572   2.528  -6.690  1.00  8.74    -0.065 NA
HETATM   14  C15   D T   1     -12.933  -0.742  -8.212  1.00  8.67    -0.007 A 
HETATM   15  C16   D T   1     -14.377  -0.974  -8.378  1.00 10.01     0.028 A 
HETATM   16  C17   D T   1     -15.275   0.070  -7.927  1.00  8.30     0.011 A 
HETATM   17  C18   D T   1     -14.790   1.300  -7.340  1.00  8.80     0.048 A 
HETATM   18  O1    D T   1      -7.665   2.727  -6.101  1.00  9.45    -0.266 OA
ENDROOT
BRANCH   1  19
HETATM   19  N3    D T   1      -8.416  -2.901  -8.690  1.00 10.50    -0.059 NA
BRANCH  19  20
HETATM   20  C5    D T   1      -7.974  -4.121  -8.115  1.00 13.72     0.096 A 
HETATM   21  C6    D T   1      -8.701  -5.375  -8.398  1.00 16.17     0.021 A 
HETATM   22  C7    D T   1      -8.229  -6.625  -7.940  1.00 18.76     0.014 A 
HETATM   23  C8    D T   1      -7.009  -6.552  -7.193  1.00 19.63     0.038 A 
HETATM   24  C9    D T   1      -6.252  -5.311  -6.859  1.00 18.58     0.071 A 
HETATM   25  C10   D T   1      -6.759  -4.060  -7.337  1.00 14.74    -0.000 A 
BRANCH  23  26
HETATM   26  N7    D T   1      -6.604  -7.826  -6.885  1.00 23.52    -0.347 N 
HETATM   27  C27   D T   1      -5.221  -7.955  -6.496  1.00 25.21     0.137 C 
HETATM   28  C28   D T   1      -4.594  -9.165  -7.173  1.00 27.80     0.274 C 
HETATM   29  N8    D T   1      -5.524 -10.290  -6.982  1.00 28.55     0.143 N 
HETATM   30  C29   D T   1      -6.774 -10.116  -7.736  1.00 28.15     0.274 C 
HETATM   31  C31   D T   1      -4.881 -11.369  -7.718  1.00 29.41     0.286 C 
HETATM   32  C30   D T   1      -7.495  -9.055  -6.908  1.00 25.70     0.137 C 
ENDBRANCH  23  26
ENDBRANCH  19  20
ENDBRANCH   1  19
BRANCH   9  33
HETATM   33  C19   D T   1     -10.115   4.131  -5.939  1.00  9.46     0.076 A 
HETATM   34  C20   D T   1     -10.430   4.400  -4.537  1.00  9.11    -0.005 A 
HETATM   35  C21   D T   1     -10.539   5.777  -4.074  1.00  9.01    -0.003 A 
HETATM   36  C26   D T   1     -10.652   3.226  -3.603  1.00  8.02     0.033 C 
HETATM   37  C22   D T   1     -10.345   6.898  -4.941  1.00  9.80    -0.001 A 
HETATM   38  C23   D T   1     -10.042   6.580  -6.287  1.00 10.49    -0.003 A 
HETATM   39  C24   D T   1      -9.920   5.246  -6.831  1.00 10.01    -0.005 A 
HETATM   40  C25   D T   1      -9.644   5.065  -8.308  1.00 10.21     0.033 C 
ENDBRANCH   9  33
TORSDOF 4
ENDMDL
MODEL 7
REMARK VINA RESULT:    -8.245      1.372      2.267
REMARK INTER + INTRA:         -11.162
REMARK INTER:                 -10.067
REMARK INTRA:                  -1.096
REMARK UNBOUND:                -0.989
REMARK  4 active torsions:
REMARK  status: ('A' for Active; 'I' for Inactive)
REMARK    1  A    between atoms: C1_1  and  N3_7 
REMARK    2  A    between atoms: N3_7  and  C5_8 
REMARK    3  A    between atoms: C8_11  and  N7_34 
REMARK    4  A    between atoms: N5_16  and  C19_26 
ROOT
HETATM    1  C1    D T   1      -7.073  -8.503  -7.560  1.00  8.98     0.751 A 
HETATM    2  N1    D T   1      -6.612  -7.304  -7.074  1.00  8.90    -0.041 NA
HETATM    3  C2    D T   1      -7.336  -6.167  -7.073  1.00  9.32     0.188 A 
HETATM    4  C3    D T   1      -8.707  -6.282  -7.642  1.00  8.55     0.112 A 
HETATM    5  C4    D T   1      -9.224  -7.556  -8.155  1.00 10.16     0.126 A 
HETATM    6  N2    D T   1      -8.358  -8.622  -8.088  1.00  8.40    -0.057 NA
HETATM    7  N4    D T   1      -6.754  -4.912  -6.582  1.00 10.02    -0.124 N 
HETATM    8  C11   D T   1      -7.431  -3.708  -6.582  1.00  8.08     0.723 A 
HETATM    9  N5    D T   1      -8.754  -3.738  -7.096  1.00  9.52    -0.107 N 
HETATM   10  C12   D T   1      -9.337  -4.998  -7.617  1.00  8.74     0.283 A 
HETATM   11  C13   D T   1      -5.474  -4.546  -6.039  1.00  8.60     0.093 A 
HETATM   12  C14   D T   1      -5.407  -3.105  -5.741  1.00  8.87     0.094 A 
HETATM   13  N6    D T   1      -6.645  -2.619  -6.089  1.00  8.74    -0.065 NA
HETATM   14  C15   D T   1      -4.239  -5.308  -5.749  1.00  8.67    -0.007 A 
HETATM   15  C16   D T   1      -3.011  -4.710  -5.200  1.00 10.01     0.028 A 
HETATM   16  C17   D T   1      -3.024  -3.285  -4.940  1.00  8.30     0.011 A 
HETATM   17  C18   D T   1      -4.189  -2.468  -5.197  1.00  8.80     0.048 A 
HETATM   18  O1    D T   1     -10.425  -5.031  -8.177  1.00  9.45    -0.266 OA
ENDROOT
BRANCH   1  19
HETATM   19  N3    D T   1      -6.187  -9.571  -7.574  1.00 10.50    -0.059 NA
BRANCH  19  20
HETATM   20  C5    D T   1      -6.405 -10.969  -7.468  1.00 13.72     0.096 A 
HETATM   21  C6    D T   1      -7.171 -11.510  -6.327  1.00 16.17     0.021 A 
HETATM   22  C7    D T   1      -7.509 -12.880  -6.244  1.00 18.76     0.014 A 
HETATM   23  C8    D T   1      -7.043 -13.665  -7.347  1.00 19.63     0.038 A 
HETATM   24  C9    D T   1      -6.246 -13.172  -8.508  1.00 18.58     0.071 A 
HETATM   25  C10   D T   1      -5.919 -11.779  -8.560  1.00 14.74    -0.000 A 
BRANCH  23  26
HETATM   26  N7    D T   1      -7.509 -14.948  -7.203  1.00 23.52    -0.347 N 
HETATM   27  C27   D T   1      -6.864 -15.934  -8.034  1.00 25.21     0.137 C 
HETATM   28  C28   D T   1      -7.901 -16.865  -8.647  1.00 27.80     0.274 C 
HETATM   29  N8    D T   1      -8.793 -17.287  -7.555  1.00 28.55     0.143 N 
HETATM   30  C29   D T   1      -9.619 -16.181  -7.048  1.00 28.15     0.274 C 
HETATM   31  C31   D T   1      -9.782 -18.104  -8.243  1.00 29.41     0.286 C 
HETATM   32  C30   D T   1      -8.603 -15.376  -6.241  1.00 25.70     0.137 C 
ENDBRANCH  23  26
ENDBRANCH  19  20
ENDBRANCH   1  19
BRANCH   9  33
HETATM   33  C19   D T   1      -9.526  -2.610  -7.021  1.00  9.46     0.076 A 
HETATM   34  C20   D T   1      -9.529  -1.642  -8.117  1.00  9.11    -0.005 A 
HETATM   35  C21   D T   1     -10.350  -0.443  -8.016  1.00  9.01    -0.003 A 
HETATM   36  C26   D T   1      -8.657  -1.911  -9.328  1.00  8.02     0.033 C 
HETATM   37  C22   D T   1     -11.171  -0.166  -6.878  1.00  9.80    -0.001 A 
HETATM   38  C23   D T   1     -11.130  -1.135  -5.848  1.00 10.49    -0.003 A 
HETATM   39  C24   D T   1     -10.342  -2.347  -5.863  1.00 10.01    -0.005 A 
HETATM   40  C25   D T   1     -10.361  -3.264  -4.659  1.00 10.21     0.033 C 
ENDBRANCH   9  33
TORSDOF 4
ENDMDL
MODEL 8
REMARK VINA RESULT:    -7.907      6.512     11.463
REMARK INTER + INTRA:         -10.745
REMARK INTER:                  -9.847
REMARK INTRA:                  -0.898
REMARK UNBOUND:                -0.989
REMARK  4 active torsions:
REMARK  status: ('A' for Active; 'I' for Inactive)
REMARK    1  A    between atoms: C1_1  and  N3_7 
REMARK    2  A    between atoms: N3_7  and  C5_8 
REMARK    3  A    between atoms: C8_11  and  N7_34 
REMARK    4  A    between atoms: N5_16  and  C19_26 
ROOT
HETATM    1  C1    D T   1      -9.177   1.809  -7.357  1.00  8.98     0.751 A 
HETATM    2  N1    D T   1     -10.515   2.117  -7.346  1.00  8.90    -0.041 NA
HETATM    3  C2    D T   1     -11.059   3.075  -6.570  1.00  9.32     0.188 A 
HETATM    4  C3    D T   1     -10.102   3.810  -5.699  1.00  8.55     0.112 A 
HETATM    5  C4    D T   1      -8.665   3.507  -5.704  1.00 10.16     0.126 A 
HETATM    6  N2    D T   1      -8.272   2.497  -6.549  1.00  8.40    -0.057 NA
HETATM    7  N4    D T   1     -12.507   3.309  -6.578  1.00 10.02    -0.124 N 
HETATM    8  C11   D T   1     -13.130   4.254  -5.786  1.00  8.08     0.723 A 
HETATM    9  N5    D T   1     -12.281   5.010  -4.935  1.00  9.52    -0.107 N 
HETATM   10  C12   D T   1     -10.820   4.759  -4.906  1.00  8.74     0.283 A 
HETATM   11  C13   D T   1     -13.614   2.718  -7.280  1.00  8.60     0.093 A 
HETATM   12  C14   D T   1     -14.895   3.319  -6.869  1.00  8.87     0.094 A 
HETATM   13  N6    D T   1     -14.552   4.273  -5.941  1.00  8.74    -0.065 NA
HETATM   14  C15   D T   1     -13.718   1.641  -8.289  1.00  8.67    -0.007 A 
HETATM   15  C16   D T   1     -14.988   1.174  -8.869  1.00 10.01     0.028 A 
HETATM   16  C17   D T   1     -16.204   1.812  -8.409  1.00  8.30     0.011 A 
HETATM   17  C18   D T   1     -16.191   2.871  -7.424  1.00  8.80     0.048 A 
HETATM   18  O1    D T   1     -10.080   5.307  -4.098  1.00  9.45    -0.266 OA
ENDROOT
BRANCH   1  19
HETATM   19  N3    D T   1      -8.772   0.740  -8.144  1.00 10.50    -0.059 NA
BRANCH  19  20
HETATM   20  C5    D T   1      -7.839  -0.301  -7.899  1.00 13.72     0.096 A 
HETATM   21  C6    D T   1      -6.434  -0.148  -8.326  1.00 16.17     0.021 A 
HETATM   22  C7    D T   1      -5.451  -1.109  -8.000  1.00 18.76     0.014 A 
HETATM   23  C8    D T   1      -5.945  -2.215  -7.237  1.00 19.63     0.038 A 
HETATM   24  C9    D T   1      -7.356  -2.428  -6.803  1.00 18.58     0.071 A 
HETATM   25  C10   D T   1      -8.328  -1.437  -7.152  1.00 14.74    -0.000 A 
BRANCH  23  26
HETATM   26  N7    D T   1      -4.890  -3.027  -6.903  1.00 23.52    -0.347 N 
HETATM   27  C27   D T   1      -5.011  -4.400  -7.327  1.00 25.21     0.137 C 
HETATM   28  C28   D T   1      -4.580  -5.336  -6.206  1.00 27.80     0.274 C 
HETATM   29  N8    D T   1      -3.294  -4.829  -5.698  1.00 28.55     0.143 N 
HETATM   30  C29   D T   1      -3.437  -3.543  -5.001  1.00 28.15     0.274 C 
HETATM   31  C31   D T   1      -3.004  -5.735  -4.596  1.00 29.41     0.286 C 
HETATM   32  C30   D T   1      -3.642  -2.576  -6.164  1.00 25.70     0.137 C 
ENDBRANCH  23  26
ENDBRANCH  19  20
ENDBRANCH   1  19
BRANCH   9  33
HETATM   33  C19   D T   1     -12.809   6.042  -4.208  1.00  9.46     0.076 A 
HETATM   34  C20   D T   1     -13.519   5.778  -2.957  1.00  9.11    -0.005 A 
HETATM   35  C21   D T   1     -14.083   6.888  -2.201  1.00  9.01    -0.003 A 
HETATM   36  C26   D T   1     -13.661   4.342  -2.491  1.00  8.02     0.033 C 
HETATM   37  C22   D T   1     -13.970   8.247  -2.629  1.00  9.80    -0.001 A 
HETATM   38  C23   D T   1     -13.274   8.446  -3.846  1.00 10.49    -0.003 A 
HETATM   39  C24   D T   1     -12.688   7.405  -4.661  1.00 10.01    -0.005 A 
HETATM   40  C25   D T   1     -12.019   7.769  -5.968  1.00 10.21     0.033 C 
ENDBRANCH   9  33
TORSDOF 4
ENDMDL
MODEL 9
REMARK VINA RESULT:    -7.785      3.353      3.939
REMARK INTER + INTRA:         -10.594
REMARK INTER:                  -9.512
REMARK INTRA:                  -1.082
REMARK UNBOUND:                -0.989
REMARK  4 active torsions:
REMARK  status: ('A' for Active; 'I' for Inactive)
REMARK    1  A    between atoms: C1_1  and  N3_7 
REMARK    2  A    between atoms: N3_7  and  C5_8 
REMARK    3  A    between atoms: C8_11  and  N7_34 
REMARK    4  A    between atoms: N5_16  and  C19_26 
ROOT
HETATM    1  C1    D T   1      -8.434  -7.216  -7.779  1.00  8.98     0.751 A 
HETATM    2  N1    D T   1      -7.573  -6.266  -7.287  1.00  8.90    -0.041 NA
HETATM    3  C2    D T   1      -7.843  -4.946  -7.268  1.00  9.32     0.188 A 
HETATM    4  C3    D T   1      -9.168  -4.557  -7.825  1.00  8.55     0.112 A 
HETATM    5  C4    D T   1     -10.110  -5.557  -8.344  1.00 10.16     0.126 A 
HETATM    6  N2    D T   1      -9.681  -6.862  -8.295  1.00  8.40    -0.057 NA
HETATM    7  N4    D T   1      -6.847  -3.989  -6.773  1.00 10.02    -0.124 N 
HETATM    8  C11   D T   1      -7.050  -2.622  -6.755  1.00  8.08     0.723 A 
HETATM    9  N5    D T   1      -8.299  -2.172  -7.256  1.00  9.52    -0.107 N 
HETATM   10  C12   D T   1      -9.297  -3.134  -7.781  1.00  8.74     0.283 A 
HETATM   11  C13   D T   1      -5.518  -4.110  -6.240  1.00  8.60     0.093 A 
HETATM   12  C14   D T   1      -4.939  -2.792  -5.930  1.00  8.87     0.094 A 
HETATM   13  N6    D T   1      -5.924  -1.891  -6.260  1.00  8.74    -0.065 NA
HETATM   14  C15   D T   1      -4.635  -5.266  -5.969  1.00  8.67    -0.007 A 
HETATM   15  C16   D T   1      -3.271  -5.152  -5.428  1.00 10.01     0.028 A 
HETATM   16  C17   D T   1      -2.772  -3.820  -5.154  1.00  8.30     0.011 A 
HETATM   17  C18   D T   1      -3.570  -2.638  -5.392  1.00  8.80     0.048 A 
HETATM   18  O1    D T   1     -10.329  -2.769  -8.330  1.00  9.45    -0.266 OA
ENDROOT
BRANCH   1  19
HETATM   19  N3    D T   1      -7.988  -8.530  -7.812  1.00 10.50    -0.059 NA
BRANCH  19  20
HETATM   20  C5    D T   1      -8.682  -9.748  -8.035  1.00 13.72     0.096 A 
HETATM   21  C6    D T   1      -9.671 -10.224  -7.047  1.00 16.17     0.021 A 
HETATM   22  C7    D T   1     -10.466 -11.368  -7.285  1.00 18.76     0.014 A 
HETATM   23  C8    D T   1     -10.216 -12.001  -8.545  1.00 19.63     0.038 A 
HETATM   24  C9    D T   1      -9.212 -11.576  -9.563  1.00 18.58     0.071 A 
HETATM   25  C10   D T   1      -8.423 -10.413  -9.290  1.00 14.74    -0.000 A 
BRANCH  23  26
HETATM   26  N7    D T   1     -11.104 -13.036  -8.702  1.00 23.52    -0.347 N 
HETATM   27  C27   D T   1     -10.739 -14.014  -9.696  1.00 25.21     0.137 C 
HETATM   28  C28   D T   1     -11.951 -14.381 -10.542  1.00 27.80     0.274 C 
HETATM   29  N8    D T   1     -13.056 -14.652  -9.608  1.00 28.55     0.143 N 
HETATM   30  C29   D T   1     -13.510 -13.438  -8.912  1.00 28.15     0.274 C 
HETATM   31  C31   D T   1     -14.175 -14.918 -10.500  1.00 29.41     0.286 C 
HETATM   32  C30   D T   1     -12.384 -13.215  -7.906  1.00 25.70     0.137 C 
ENDBRANCH  23  26
ENDBRANCH  19  20
ENDBRANCH   1  19
BRANCH   9  33
HETATM   33  C19   D T   1      -8.618  -0.843  -7.163  1.00  9.46     0.076 A 
HETATM   34  C20   D T   1      -9.278  -0.323  -5.966  1.00  9.11    -0.005 A 
HETATM   35  C21   D T   1      -9.618   1.091  -5.889  1.00  9.01    -0.003 A 
HETATM   36  C26   D T   1      -9.606  -1.285  -4.841  1.00  8.02     0.033 C 
HETATM   37  C22   D T   1      -9.328   2.012  -6.943  1.00  9.80    -0.001 A 
HETATM   38  C23   D T   1      -8.688   1.456  -8.077  1.00 10.49    -0.003 A 
HETATM   39  C24   D T   1      -8.321   0.067  -8.240  1.00 10.01    -0.005 A 
HETATM   40  C25   D T   1      -7.689  -0.390  -9.537  1.00 10.21     0.033 C 
ENDBRANCH   9  33
TORSDOF 4
ENDMDL
