MODEL 1
REMARK VINA RESULT:    -9.131      0.000      0.000
REMARK INTER + INTRA:         -12.559
REMARK INTER:                 -11.267
REMARK INTRA:                  -1.292
REMARK UNBOUND:                -1.292
REMARK  4 active torsions:
REMARK  status: ('A' for Active; 'I' for Inactive)
REMARK    1  A    between atoms: C1_1  and  N3_7 
REMARK    2  A    between atoms: N3_7  and  C5_8 
REMARK    3  A    between atoms: C8_11  and  N7_34 
REMARK    4  A    between atoms: N5_16  and  C19_26 
ROOT
HETATM    1  C1    D T   1     -16.983   1.788  -5.187  1.00  8.98     0.751 A 
HETATM    2  N1    D T   1     -15.813   1.572  -5.873  1.00  8.90    -0.041 NA
HETATM    3  C2    D T   1     -15.649   0.600  -6.791  1.00  9.32     0.188 A 
HETATM    4  C3    D T   1     -16.841  -0.256  -7.034  1.00  8.55     0.112 A 
HETATM    5  C4    D T   1     -18.108  -0.036  -6.323  1.00 10.16     0.126 A 
HETATM    6  N2    D T   1     -18.108   0.996  -5.414  1.00  8.40    -0.057 NA
HETATM    7  N4    D T   1     -14.349   0.401  -7.442  1.00 10.02    -0.124 N 
HETATM    8  C11   D T   1     -14.107  -0.594  -8.368  1.00  8.08     0.723 A 
HETATM    9  N5    D T   1     -15.203  -1.446  -8.667  1.00  9.52    -0.107 N 
HETATM   10  C12   D T   1     -16.510  -1.265  -7.992  1.00  8.74     0.283 A 
HETATM   11  C13   D T   1     -13.070   1.051  -7.347  1.00  8.60     0.093 A 
HETATM   12  C14   D T   1     -12.072   0.406  -8.216  1.00  8.87     0.094 A 
HETATM   13  N6    D T   1     -12.756  -0.612  -8.839  1.00  8.74    -0.065 NA
HETATM   14  C15   D T   1     -12.570   2.195  -6.554  1.00  8.67    -0.007 A 
HETATM   15  C16   D T   1     -11.183   2.688  -6.600  1.00 10.01     0.028 A 
HETATM   16  C17   D T   1     -10.260   1.994  -7.476  1.00  8.30     0.011 A 
HETATM   17  C18   D T   1     -10.668   0.867  -8.283  1.00  8.80     0.048 A 
HETATM   18  O1    D T   1     -17.434  -2.055  -8.137  1.00  9.45    -0.266 OA
ENDROOT
BRANCH   1  19
HETATM   19  N3    D T   1     -16.982   2.772  -4.209  1.00 10.50    -0.059 NA
BRANCH  19  20
HETATM   20  C5    D T   1     -15.930   3.569  -3.686  1.00 13.72     0.096 A 
HETATM   21  C6    D T   1     -15.330   4.634  -4.513  1.00 16.17     0.021 A 
HETATM   22  C7    D T   1     -14.365   5.524  -3.992  1.00 18.76     0.014 A 
HETATM   23  C8    D T   1     -14.036   5.290  -2.618  1.00 19.63     0.038 A 
HETATM   24  C9    D T   1     -14.594   4.216  -1.748  1.00 18.58     0.071 A 
HETATM   25  C10   D T   1     -15.569   3.329  -2.308  1.00 14.74    -0.000 A 
BRANCH  23  26
HETATM   26  N7    D T   1     -13.166   6.265  -2.200  1.00 23.52    -0.347 N 
HETATM   27  C27   D T   1     -13.353   6.718  -0.844  1.00 25.21     0.137 C 
HETATM   28  C28   D T   1     -13.261   8.236  -0.776  1.00 27.80     0.274 C 
HETATM   29  N8    D T   1     -12.055   8.623  -1.526  1.00 28.55     0.143 N 
HETATM   30  C29   D T   1     -12.189   8.375  -2.970  1.00 28.15     0.274 C 
HETATM   31  C31   D T   1     -12.092  10.077  -1.470  1.00 29.41     0.286 C 
HETATM   32  C30   D T   1     -12.049   6.857  -3.041  1.00 25.70     0.137 C 
ENDBRANCH  23  26
ENDBRANCH  19  20
ENDBRANCH   1  19
BRANCH   9  33
HETATM   33  C19   D T   1     -15.073  -2.382  -9.660  1.00  9.46     0.076 A 
HETATM   34  C20   D T   1     -15.385  -2.038 -11.046  1.00  9.11    -0.005 A 
HETATM   35  C21   D T   1     -15.250  -3.048 -12.086  1.00  9.01    -0.003 A 
HETATM   36  C26   D T   1     -15.861  -0.632 -11.356  1.00  8.02     0.033 C 
HETATM   37  C22   D T   1     -14.814  -4.381 -11.812  1.00  9.80    -0.001 A 
HETATM   38  C23   D T   1     -14.524  -4.661 -10.455  1.00 10.49    -0.003 A 
HETATM   39  C24   D T   1     -14.637  -3.721  -9.361  1.00 10.01    -0.005 A 
HETATM   40  C25   D T   1     -14.343  -4.183  -7.949  1.00 10.21     0.033 C 
ENDBRANCH   9  33
TORSDOF 4
ENDMDL
MODEL 2
REMARK VINA RESULT:    -8.901      2.589      4.775
REMARK INTER + INTRA:         -12.275
REMARK INTER:                 -11.508
REMARK INTRA:                  -0.766
REMARK UNBOUND:                -1.292
REMARK  4 active torsions:
REMARK  status: ('A' for Active; 'I' for Inactive)
REMARK    1  A    between atoms: C1_1  and  N3_7 
REMARK    2  A    between atoms: N3_7  and  C5_8 
REMARK    3  A    between atoms: C8_11  and  N7_34 
REMARK    4  A    between atoms: N5_16  and  C19_26 
ROOT
HETATM    1  C1    D T   1     -12.968  -0.081  -8.317  1.00  8.98     0.751 A 
HETATM    2  N1    D T   1     -12.834  -0.998  -9.331  1.00  8.90    -0.041 NA
HETATM    3  C2    D T   1     -13.618  -2.085  -9.468  1.00  9.32     0.188 A 
HETATM    4  C3    D T   1     -14.673  -2.246  -8.432  1.00  8.55     0.112 A 
HETATM    5  C4    D T   1     -14.845  -1.271  -7.347  1.00 10.16     0.126 A 
HETATM    6  N2    D T   1     -13.959  -0.219  -7.346  1.00  8.40    -0.057 NA
HETATM    7  N4    D T   1     -13.376  -3.047 -10.549  1.00 10.02    -0.124 N 
HETATM    8  C11   D T   1     -14.123  -4.194 -10.728  1.00  8.08     0.723 A 
HETATM    9  N5    D T   1     -15.163  -4.412  -9.787  1.00  9.52    -0.107 N 
HETATM   10  C12   D T   1     -15.394  -3.456  -8.677  1.00  8.74     0.283 A 
HETATM   11  C13   D T   1     -12.419  -3.133 -11.619  1.00  8.60     0.093 A 
HETATM   12  C14   D T   1     -12.606  -4.360 -12.412  1.00  8.87     0.094 A 
HETATM   13  N6    D T   1     -13.678  -4.993 -11.829  1.00  8.74    -0.065 NA
HETATM   14  C15   D T   1     -11.302  -2.265 -12.054  1.00  8.67    -0.007 A 
HETATM   15  C16   D T   1     -10.417  -2.568 -13.191  1.00 10.01     0.028 A 
HETATM   16  C17   D T   1     -10.663  -3.798 -13.916  1.00  8.30     0.011 A 
HETATM   17  C18   D T   1     -11.732  -4.701 -13.555  1.00  8.80     0.048 A 
HETATM   18  O1    D T   1     -16.200  -3.678  -7.783  1.00  9.45    -0.266 OA
ENDROOT
BRANCH   1  19
HETATM   19  N3    D T   1     -12.035   0.944  -8.252  1.00 10.50    -0.059 NA
BRANCH  19  20
HETATM   20  C5    D T   1     -11.833   1.965  -7.288  1.00 13.72     0.096 A 
HETATM   21  C6    D T   1     -12.988   2.707  -6.745  1.00 16.17     0.021 A 
HETATM   22  C7    D T   1     -12.843   3.646  -5.701  1.00 18.76     0.014 A 
HETATM   23  C8    D T   1     -11.497   3.805  -5.240  1.00 19.63     0.038 A 
HETATM   24  C9    D T   1     -10.294   3.100  -5.769  1.00 18.58     0.071 A 
HETATM   25  C10   D T   1     -10.476   2.154  -6.830  1.00 14.74    -0.000 A 
BRANCH  23  26
HETATM   26  N7    D T   1     -11.494   4.666  -4.172  1.00 23.52    -0.347 N 
HETATM   27  C27   D T   1     -12.765   4.833  -3.512  1.00 25.21     0.137 C 
HETATM   28  C28   D T   1     -13.014   6.304  -3.210  1.00 27.80     0.274 C 
HETATM   29  N8    D T   1     -11.785   6.826  -2.591  1.00 28.55     0.143 N 
HETATM   30  C29   D T   1     -10.660   6.880  -3.538  1.00 28.15     0.274 C 
HETATM   31  C31   D T   1     -12.088   8.237  -2.410  1.00 29.41     0.286 C 
HETATM   32  C30   D T   1     -10.276   5.408  -3.652  1.00 25.70     0.137 C 
ENDBRANCH  23  26
ENDBRANCH  19  20
ENDBRANCH   1  19
BRANCH   9  33
HETATM   33  C19   D T   1     -16.020  -5.466  -9.966  1.00  9.46     0.076 A 
HETATM   34  C20   D T   1     -17.255  -5.295 -10.729  1.00  9.11    -0.005 A 
HETATM   35  C21   D T   1     -18.157  -6.424 -10.901  1.00  9.01    -0.003 A 
HETATM   36  C26   D T   1     -17.568  -3.927 -11.305  1.00  8.02     0.033 C 
HETATM   37  C22   D T   1     -17.885  -7.717 -10.356  1.00  9.80    -0.001 A 
HETATM   38  C23   D T   1     -16.676  -7.829  -9.627  1.00 10.49    -0.003 A 
HETATM   39  C24   D T   1     -15.728  -6.760  -9.403  1.00 10.01    -0.005 A 
HETATM   40  C25   D T   1     -14.501  -7.018  -8.555  1.00 10.21     0.033 C 
ENDBRANCH   9  33
TORSDOF 4
ENDMDL
MODEL 3
REMARK VINA RESULT:    -8.747      2.589      9.803
REMARK INTER + INTRA:         -12.085
REMARK INTER:                 -10.973
REMARK INTRA:                  -1.112
REMARK UNBOUND:                -1.292
REMARK  4 active torsions:
REMARK  status: ('A' for Active; 'I' for Inactive)
REMARK    1  A    between atoms: C1_1  and  N3_7 
REMARK    2  A    between atoms: N3_7  and  C5_8 
REMARK    3  A    between atoms: C8_11  and  N7_34 
REMARK    4  A    between atoms: N5_16  and  C19_26 
ROOT
HETATM    1  C1    D T   1     -16.189  -0.625  -7.737  1.00  8.98     0.751 A 
HETATM    2  N1    D T   1     -14.975  -0.031  -7.489  1.00  8.90    -0.041 NA
HETATM    3  C2    D T   1     -14.777   0.903  -6.538  1.00  9.32     0.188 A 
HETATM    4  C3    D T   1     -15.980   1.267  -5.741  1.00  8.55     0.112 A 
HETATM    5  C4    D T   1     -17.284   0.635  -5.978  1.00 10.16     0.126 A 
HETATM    6  N2    D T   1     -17.319  -0.295  -6.990  1.00  8.40    -0.057 NA
HETATM    7  N4    D T   1     -13.461   1.529  -6.370  1.00 10.02    -0.124 N 
HETATM    8  C11   D T   1     -13.200   2.511  -5.436  1.00  8.08     0.723 A 
HETATM    9  N5    D T   1     -14.295   2.904  -4.623  1.00  9.52    -0.107 N 
HETATM   10  C12   D T   1     -15.633   2.293  -4.807  1.00  8.74     0.283 A 
HETATM   11  C13   D T   1     -12.190   1.383  -7.027  1.00  8.60     0.093 A 
HETATM   12  C14   D T   1     -11.188   2.311  -6.475  1.00  8.87     0.094 A 
HETATM   13  N6    D T   1     -11.853   2.994  -5.485  1.00  8.74    -0.065 NA
HETATM   14  C15   D T   1     -11.712   0.522  -8.131  1.00  8.67    -0.007 A 
HETATM   15  C16   D T   1     -10.342   0.556  -8.670  1.00 10.01     0.028 A 
HETATM   16  C17   D T   1      -9.418   1.501  -8.076  1.00  8.30     0.011 A 
HETATM   17  C18   D T   1      -9.806   2.379  -6.995  1.00  8.80     0.048 A 
HETATM   18  O1    D T   1     -16.622   2.695  -4.207  1.00  9.45    -0.266 OA
ENDROOT
BRANCH   1  19
HETATM   19  N3    D T   1     -16.264  -1.508  -8.804  1.00 10.50    -0.059 NA
BRANCH  19  20
HETATM   20  C5    D T   1     -15.249  -2.117  -9.588  1.00 13.72     0.096 A 
HETATM   21  C6    D T   1     -15.283  -1.999 -11.059  1.00 16.17     0.021 A 
HETATM   22  C7    D T   1     -14.233  -2.487 -11.867  1.00 18.76     0.014 A 
HETATM   23  C8    D T   1     -13.165  -3.095 -11.133  1.00 19.63     0.038 A 
HETATM   24  C9    D T   1     -13.093  -3.261  -9.653  1.00 18.58     0.071 A 
HETATM   25  C10   D T   1     -14.176  -2.756  -8.863  1.00 14.74    -0.000 A 
BRANCH  23  26
HETATM   26  N7    D T   1     -12.169  -3.445 -12.011  1.00 23.52    -0.347 N 
HETATM   27  C27   D T   1     -11.107  -2.481 -12.152  1.00 25.21     0.137 C 
HETATM   28  C28   D T   1     -10.743  -2.308 -13.620  1.00 27.80     0.274 C 
HETATM   29  N8    D T   1     -10.596  -3.659 -14.185  1.00 28.55     0.143 N 
HETATM   30  C29   D T   1     -11.878  -4.378 -14.256  1.00 28.15     0.274 C 
HETATM   31  C31   D T   1     -10.327  -3.394 -15.591  1.00 29.41     0.286 C 
HETATM   32  C30   D T   1     -12.113  -4.745 -12.794  1.00 25.70     0.137 C 
ENDBRANCH  23  26
ENDBRANCH  19  20
ENDBRANCH   1  19
BRANCH   9  33
HETATM   33  C19   D T   1     -14.086   3.789  -3.598  1.00  9.46     0.076 A 
HETATM   34  C20   D T   1     -13.870   3.304  -2.235  1.00  9.11    -0.005 A 
HETATM   35  C21   D T   1     -13.659   4.259  -1.156  1.00  9.01    -0.003 A 
HETATM   36  C26   D T   1     -13.893   1.808  -1.985  1.00  8.02     0.033 C 
HETATM   37  C22   D T   1     -13.645   5.672  -1.371  1.00  9.80    -0.001 A 
HETATM   38  C23   D T   1     -13.858   6.087  -2.708  1.00 10.49    -0.003 A 
HETATM   39  C24   D T   1     -14.081   5.209  -3.835  1.00 10.01    -0.005 A 
HETATM   40  C25   D T   1     -14.348   5.805  -5.201  1.00 10.21     0.033 C 
ENDBRANCH   9  33
TORSDOF 4
ENDMDL
MODEL 4
REMARK VINA RESULT:    -8.712      2.187      4.589
REMARK INTER + INTRA:         -12.042
REMARK INTER:                 -10.883
REMARK INTRA:                  -1.158
REMARK UNBOUND:                -1.292
REMARK  4 active torsions:
REMARK  status: ('A' for Active; 'I' for Inactive)
REMARK    1  A    between atoms: C1_1  and  N3_7 
REMARK    2  A    between atoms: N3_7  and  C5_8 
REMARK    3  A    between atoms: C8_11  and  N7_34 
REMARK    4  A    between atoms: N5_16  and  C19_26 
ROOT
HETATM    1  C1    D T   1     -12.292   3.111  -5.935  1.00  8.98     0.751 A 
HETATM    2  N1    D T   1     -13.552   2.571  -5.847  1.00  8.90    -0.041 NA
HETATM    3  C2    D T   1     -13.943   1.467  -6.512  1.00  9.32     0.188 A 
HETATM    4  C3    D T   1     -12.905   0.839  -7.374  1.00  8.55     0.112 A 
HETATM    5  C4    D T   1     -11.547   1.389  -7.473  1.00 10.16     0.126 A 
HETATM    6  N2    D T   1     -11.311   2.524  -6.734  1.00  8.40    -0.057 NA
HETATM    7  N4    D T   1     -15.324   0.983  -6.406  1.00 10.02    -0.124 N 
HETATM    8  C11   D T   1     -15.797  -0.123  -7.083  1.00  8.08     0.723 A 
HETATM    9  N5    D T   1     -14.860  -0.789  -7.917  1.00  9.52    -0.107 N 
HETATM   10  C12   D T   1     -13.471  -0.289  -8.048  1.00  8.74     0.283 A 
HETATM   11  C13   D T   1     -16.491   1.429  -5.693  1.00  8.60     0.093 A 
HETATM   12  C14   D T   1     -17.658   0.577  -5.982  1.00  8.87     0.094 A 
HETATM   13  N6    D T   1     -17.185  -0.380  -6.849  1.00  8.74    -0.065 NA
HETATM   14  C15   D T   1     -16.746   2.555  -4.769  1.00  8.67    -0.007 A 
HETATM   15  C16   D T   1     -18.055   2.842  -4.159  1.00 10.01     0.028 A 
HETATM   16  C17   D T   1     -19.154   1.960  -4.499  1.00  8.30     0.011 A 
HETATM   17  C18   D T   1     -18.989   0.838  -5.395  1.00  8.80     0.048 A 
HETATM   18  O1    D T   1     -12.678  -0.767  -8.849  1.00  9.45    -0.266 OA
ENDROOT
BRANCH   1  19
HETATM   19  N3    D T   1     -12.055   4.299  -5.260  1.00 10.50    -0.059 NA
BRANCH  19  20
HETATM   20  C5    D T   1     -12.590   4.810  -4.049  1.00 13.72     0.096 A 
HETATM   21  C6    D T   1     -14.053   4.914  -3.876  1.00 16.17     0.021 A 
HETATM   22  C7    D T   1     -14.628   5.305  -2.647  1.00 18.76     0.014 A 
HETATM   23  C8    D T   1     -13.673   5.587  -1.617  1.00 19.63     0.038 A 
HETATM   24  C9    D T   1     -12.190   5.520  -1.748  1.00 18.58     0.071 A 
HETATM   25  C10   D T   1     -11.638   5.122  -3.009  1.00 14.74    -0.000 A 
BRANCH  23  26
HETATM   26  N7    D T   1     -14.347   5.863  -0.455  1.00 23.52    -0.347 N 
HETATM   27  C27   D T   1     -14.714   4.713   0.333  1.00 25.21     0.137 C 
HETATM   28  C28   D T   1     -16.143   4.853   0.839  1.00 27.80     0.274 C 
HETATM   29  N8    D T   1     -16.263   6.207   1.405  1.00 28.55     0.143 N 
HETATM   30  C29   D T   1     -16.184   7.254   0.375  1.00 28.15     0.274 C 
HETATM   31  C31   D T   1     -17.665   6.273   1.789  1.00 29.41     0.286 C 
HETATM   32  C30   D T   1     -14.695   7.255   0.043  1.00 25.70     0.137 C 
ENDBRANCH  23  26
ENDBRANCH  19  20
ENDBRANCH   1  19
BRANCH   9  33
HETATM   33  C19   D T   1     -15.222  -1.961  -8.530  1.00  9.46     0.076 A 
HETATM   34  C20   D T   1     -15.120  -3.232  -7.815  1.00  9.11    -0.005 A 
HETATM   35  C21   D T   1     -15.501  -4.467  -8.485  1.00  9.01    -0.003 A 
HETATM   36  C26   D T   1     -14.598  -3.224  -6.391  1.00  8.02     0.033 C 
HETATM   37  C22   D T   1     -15.983  -4.496  -9.831  1.00  9.80    -0.001 A 
HETATM   38  C23   D T   1     -16.063  -3.239 -10.476  1.00 10.49    -0.003 A 
HETATM   39  C24   D T   1     -15.702  -1.967  -9.888  1.00 10.01    -0.005 A 
HETATM   40  C25   D T   1     -15.791  -0.708 -10.724  1.00 10.21     0.033 C 
ENDBRANCH   9  33
TORSDOF 4
ENDMDL
MODEL 5
REMARK VINA RESULT:    -8.666      3.377     10.418
REMARK INTER + INTRA:         -11.985
REMARK INTER:                 -10.903
REMARK INTRA:                  -1.081
REMARK UNBOUND:                -1.292
REMARK  4 active torsions:
REMARK  status: ('A' for Active; 'I' for Inactive)
REMARK    1  A    between atoms: C1_1  and  N3_7 
REMARK    2  A    between atoms: N3_7  and  C5_8 
REMARK    3  A    between atoms: C8_11  and  N7_34 
REMARK    4  A    between atoms: N5_16  and  C19_26 
ROOT
HETATM    1  C1    D T   1     -14.379   2.775  -5.205  1.00  8.98     0.751 A 
HETATM    2  N1    D T   1     -15.751   2.804  -5.155  1.00  8.90    -0.041 NA
HETATM    3  C2    D T   1     -16.459   2.916  -4.014  1.00  9.32     0.188 A 
HETATM    4  C3    D T   1     -15.650   3.013  -2.768  1.00  8.55     0.112 A 
HETATM    5  C4    D T   1     -14.181   2.999  -2.798  1.00 10.16     0.126 A 
HETATM    6  N2    D T   1     -13.613   2.873  -4.044  1.00  8.40    -0.057 NA
HETATM    7  N4    D T   1     -17.925   2.886  -4.039  1.00 10.02    -0.124 N 
HETATM    8  C11   D T   1     -18.708   2.966  -2.905  1.00  8.08     0.723 A 
HETATM    9  N5    D T   1     -18.009   3.077  -1.674  1.00  9.52    -0.107 N 
HETATM   10  C12   D T   1     -16.527   3.082  -1.641  1.00  8.74     0.283 A 
HETATM   11  C13   D T   1     -18.907   2.760  -5.082  1.00  8.60     0.093 A 
HETATM   12  C14   D T   1     -20.275   2.747  -4.536  1.00  8.87     0.094 A 
HETATM   13  N6    D T   1     -20.110   2.881  -3.178  1.00  8.74    -0.065 NA
HETATM   14  C15   D T   1     -18.814   2.624  -6.553  1.00  8.67    -0.007 A 
HETATM   15  C16   D T   1     -19.978   2.485  -7.444  1.00 10.01     0.028 A 
HETATM   16  C17   D T   1     -21.290   2.474  -6.827  1.00  8.30     0.011 A 
HETATM   17  C18   D T   1     -21.467   2.600  -5.398  1.00  8.80     0.048 A 
HETATM   18  O1    D T   1     -15.898   3.053  -0.591  1.00  9.45    -0.266 OA
ENDROOT
BRANCH   1  19
HETATM   19  N3    D T   1     -13.787   2.570  -6.443  1.00 10.50    -0.059 NA
BRANCH  19  20
HETATM   20  C5    D T   1     -13.423   1.377  -7.120  1.00 13.72     0.096 A 
HETATM   21  C6    D T   1     -14.373   0.250  -7.189  1.00 16.17     0.021 A 
HETATM   22  C7    D T   1     -14.098  -0.907  -7.951  1.00 18.76     0.014 A 
HETATM   23  C8    D T   1     -12.836  -0.876  -8.626  1.00 19.63     0.038 A 
HETATM   24  C9    D T   1     -11.832   0.225  -8.570  1.00 18.58     0.071 A 
HETATM   25  C10   D T   1     -12.142   1.384  -7.787  1.00 14.74    -0.000 A 
BRANCH  23  26
HETATM   26  N7    D T   1     -12.722  -2.002  -9.401  1.00 23.52    -0.347 N 
HETATM   27  C27   D T   1     -11.962  -1.840 -10.616  1.00 25.21     0.137 C 
HETATM   28  C28   D T   1     -12.670  -2.524 -11.777  1.00 27.80     0.274 C 
HETATM   29  N8    D T   1     -13.047  -3.870 -11.313  1.00 28.55     0.143 N 
HETATM   30  C29   D T   1     -14.092  -3.833 -10.278  1.00 28.15     0.274 C 
HETATM   31  C31   D T   1     -13.775  -4.411 -12.451  1.00 29.41     0.286 C 
HETATM   32  C30   D T   1     -13.307  -3.361  -9.058  1.00 25.70     0.137 C 
ENDBRANCH  23  26
ENDBRANCH  19  20
ENDBRANCH   1  19
BRANCH   9  33
HETATM   33  C19   D T   1     -18.716   3.278  -0.517  1.00  9.46     0.076 A 
HETATM   34  C20   D T   1     -19.272   2.142   0.216  1.00  9.11    -0.005 A 
HETATM   35  C21   D T   1     -20.028   2.375   1.438  1.00  9.01    -0.003 A 
HETATM   36  C26   D T   1     -19.056   0.746  -0.336  1.00  8.02     0.033 C 
HETATM   37  C22   D T   1     -20.252   3.684   1.967  1.00  9.80    -0.001 A 
HETATM   38  C23   D T   1     -19.692   4.747   1.219  1.00 10.49    -0.003 A 
HETATM   39  C24   D T   1     -18.934   4.606  -0.004  1.00 10.01    -0.005 A 
HETATM   40  C25   D T   1     -18.443   5.844  -0.723  1.00 10.21     0.033 C 
ENDBRANCH   9  33
TORSDOF 4
ENDMDL
MODEL 6
REMARK VINA RESULT:    -8.486      2.453      4.554
REMARK INTER + INTRA:         -11.762
REMARK INTER:                 -10.622
REMARK INTRA:                  -1.140
REMARK UNBOUND:                -1.292
REMARK  4 active torsions:
REMARK  status: ('A' for Active; 'I' for Inactive)
REMARK    1  A    between atoms: C1_1  and  N3_7 
REMARK    2  A    between atoms: N3_7  and  C5_8 
REMARK    3  A    between atoms: C8_11  and  N7_34 
REMARK    4  A    between atoms: N5_16  and  C19_26 
ROOT
HETATM    1  C1    D T   1     -12.488   1.388  -7.109  1.00  8.98     0.751 A 
HETATM    2  N1    D T   1     -13.715   0.773  -7.178  1.00  8.90    -0.041 NA
HETATM    3  C2    D T   1     -13.998  -0.245  -8.014  1.00  9.32     0.188 A 
HETATM    4  C3    D T   1     -12.876  -0.687  -8.885  1.00  8.55     0.112 A 
HETATM    5  C4    D T   1     -11.552  -0.055  -8.819  1.00 10.16     0.126 A 
HETATM    6  N2    D T   1     -11.428   0.975  -7.917  1.00  8.40    -0.057 NA
HETATM    7  N4    D T   1     -15.350  -0.813  -8.065  1.00 10.02    -0.124 N 
HETATM    8  C11   D T   1     -15.713  -1.836  -8.917  1.00  8.08     0.723 A 
HETATM    9  N5    D T   1     -14.691  -2.326  -9.773  1.00  9.52    -0.107 N 
HETATM   10  C12   D T   1     -13.331  -1.737  -9.743  1.00  8.74     0.283 A 
HETATM   11  C13   D T   1     -16.580  -0.537  -7.374  1.00  8.60     0.093 A 
HETATM   12  C14   D T   1     -17.673  -1.400  -7.852  1.00  8.87     0.094 A 
HETATM   13  N6    D T   1     -17.094  -2.198  -8.810  1.00  8.74    -0.065 NA
HETATM   14  C15   D T   1     -16.957   0.433  -6.321  1.00  8.67    -0.007 A 
HETATM   15  C16   D T   1     -18.314   0.558  -5.763  1.00 10.01     0.028 A 
HETATM   16  C17   D T   1     -19.335  -0.325  -6.292  1.00  8.30     0.011 A 
HETATM   17  C18   D T   1     -19.049  -1.298  -7.322  1.00  8.80     0.048 A 
HETATM   18  O1    D T   1     -12.466  -2.053 -10.549  1.00  9.45    -0.266 OA
ENDROOT
BRANCH   1  19
HETATM   19  N3    D T   1     -12.364   2.480  -6.263  1.00 10.50    -0.059 NA
BRANCH  19  20
HETATM   20  C5    D T   1     -13.048   2.818  -5.066  1.00 13.72     0.096 A 
HETATM   21  C6    D T   1     -13.363   1.770  -4.075  1.00 16.17     0.021 A 
HETATM   22  C7    D T   1     -13.935   2.081  -2.823  1.00 18.76     0.014 A 
HETATM   23  C8    D T   1     -14.178   3.478  -2.621  1.00 19.63     0.038 A 
HETATM   24  C9    D T   1     -13.902   4.571  -3.597  1.00 18.58     0.071 A 
HETATM   25  C10   D T   1     -13.322   4.221  -4.859  1.00 14.74    -0.000 A 
BRANCH  23  26
HETATM   26  N7    D T   1     -14.645   3.665  -1.345  1.00 23.52    -0.347 N 
HETATM   27  C27   D T   1     -15.711   2.781  -0.943  1.00 25.21     0.137 C 
HETATM   28  C28   D T   1     -16.793   3.559  -0.208  1.00 27.80     0.274 C 
HETATM   29  N8    D T   1     -16.112   4.398   0.791  1.00 28.55     0.143 N 
HETATM   30  C29   D T   1     -15.313   5.468   0.173  1.00 28.15     0.274 C 
HETATM   31  C31   D T   1     -17.207   5.150   1.383  1.00 29.41     0.286 C 
HETATM   32  C30   D T   1     -14.112   4.692  -0.362  1.00 25.70     0.137 C 
ENDBRANCH  23  26
ENDBRANCH  19  20
ENDBRANCH   1  19
BRANCH   9  33
HETATM   33  C19   D T   1     -14.944  -3.416 -10.563  1.00  9.46     0.076 A 
HETATM   34  C20   D T   1     -15.375  -3.241 -11.949  1.00  9.11    -0.005 A 
HETATM   35  C21   D T   1     -15.648  -4.411 -12.772  1.00  9.01    -0.003 A 
HETATM   36  C26   D T   1     -15.544  -1.832 -12.484  1.00  8.02     0.033 C 
HETATM   37  C22   D T   1     -15.506  -5.746 -12.282  1.00  9.80    -0.001 A 
HETATM   38  C23   D T   1     -15.085  -5.859 -10.935  1.00 10.49    -0.003 A 
HETATM   39  C24   D T   1     -14.799  -4.753 -10.048  1.00 10.01    -0.005 A 
HETATM   40  C25   D T   1     -14.409  -5.032  -8.612  1.00 10.21     0.033 C 
ENDBRANCH   9  33
TORSDOF 4
ENDMDL
MODEL 7
REMARK VINA RESULT:    -8.191      1.993      2.793
REMARK INTER + INTRA:         -11.399
REMARK INTER:                 -10.273
REMARK INTRA:                  -1.126
REMARK UNBOUND:                -1.292
REMARK  4 active torsions:
REMARK  status: ('A' for Active; 'I' for Inactive)
REMARK    1  A    between atoms: C1_1  and  N3_7 
REMARK    2  A    between atoms: N3_7  and  C5_8 
REMARK    3  A    between atoms: C8_11  and  N7_34 
REMARK    4  A    between atoms: N5_16  and  C19_26 
ROOT
HETATM    1  C1    D T   1     -18.091   2.388  -5.082  1.00  8.98     0.751 A 
HETATM    2  N1    D T   1     -16.834   2.153  -5.584  1.00  8.90    -0.041 NA
HETATM    3  C2    D T   1     -16.504   1.059  -6.299  1.00  9.32     0.188 A 
HETATM    4  C3    D T   1     -17.608   0.088  -6.526  1.00  8.55     0.112 A 
HETATM    5  C4    D T   1     -18.963   0.325  -6.011  1.00 10.16     0.126 A 
HETATM    6  N2    D T   1     -19.133   1.487  -5.297  1.00  8.40    -0.057 NA
HETATM    7  N4    D T   1     -15.125   0.856  -6.756  1.00 10.02    -0.124 N 
HETATM    8  C11   D T   1     -14.715  -0.255  -7.465  1.00  8.08     0.723 A 
HETATM    9  N5    D T   1     -15.716  -1.224  -7.737  1.00  9.52    -0.107 N 
HETATM   10  C12   D T   1     -17.105  -1.035  -7.255  1.00  8.74     0.283 A 
HETATM   11  C13   D T   1     -13.905   1.607  -6.629  1.00  8.60     0.093 A 
HETATM   12  C14   D T   1     -12.772   0.906  -7.257  1.00  8.87     0.094 A 
HETATM   13  N6    D T   1     -13.317  -0.248  -7.770  1.00  8.74    -0.065 NA
HETATM   14  C15   D T   1     -13.572   2.899  -5.990  1.00  8.67    -0.007 A 
HETATM   15  C16   D T   1     -12.219   3.480  -5.962  1.00 10.01     0.028 A 
HETATM   16  C17   D T   1     -11.157   2.725  -6.597  1.00  8.30     0.011 A 
HETATM   17  C18   D T   1     -11.399   1.454  -7.242  1.00  8.80     0.048 A 
HETATM   18  O1    D T   1     -17.959  -1.906  -7.367  1.00  9.45    -0.266 OA
ENDROOT
BRANCH   1  19
HETATM   19  N3    D T   1     -18.265   3.515  -4.292  1.00 10.50    -0.059 NA
BRANCH  19  20
HETATM   20  C5    D T   1     -17.689   3.884  -3.049  1.00 13.72     0.096 A 
HETATM   21  C6    D T   1     -16.222   3.982  -2.915  1.00 16.17     0.021 A 
HETATM   22  C7    D T   1     -15.615   4.458  -1.733  1.00 18.76     0.014 A 
HETATM   23  C8    D T   1     -16.543   4.822  -0.704  1.00 19.63     0.038 A 
HETATM   24  C9    D T   1     -18.028   4.720  -0.780  1.00 18.58     0.071 A 
HETATM   25  C10   D T   1     -18.612   4.231  -1.993  1.00 14.74    -0.000 A 
BRANCH  23  26
HETATM   26  N7    D T   1     -15.845   5.353   0.351  1.00 23.52    -0.347 N 
HETATM   27  C27   D T   1     -16.575   5.434   1.592  1.00 25.21     0.137 C 
HETATM   28  C28   D T   1     -16.332   6.780   2.261  1.00 27.80     0.274 C 
HETATM   29  N8    D T   1     -14.877   7.010   2.240  1.00 28.55     0.143 N 
HETATM   30  C29   D T   1     -14.365   7.231   0.879  1.00 28.15     0.274 C 
HETATM   31  C31   D T   1     -14.752   8.337   2.824  1.00 29.41     0.286 C 
HETATM   32  C30   D T   1     -14.402   5.821   0.297  1.00 25.70     0.137 C 
ENDBRANCH  23  26
ENDBRANCH  19  20
ENDBRANCH   1  19
BRANCH   9  33
HETATM   33  C19   D T   1     -15.413  -2.297  -8.535  1.00  9.46     0.076 A 
HETATM   34  C20   D T   1     -14.975  -3.559  -7.942  1.00  9.11    -0.005 A 
HETATM   35  C21   D T   1     -14.648  -4.685  -8.805  1.00  9.01    -0.003 A 
HETATM   36  C26   D T   1     -14.857  -3.650  -6.432  1.00  8.02     0.033 C 
HETATM   37  C22   D T   1     -14.742  -4.615 -10.230  1.00  9.80    -0.001 A 
HETATM   38  C23   D T   1     -15.172  -3.371 -10.752  1.00 10.49    -0.003 A 
HETATM   39  C24   D T   1     -15.510  -2.203  -9.969  1.00 10.01    -0.005 A 
HETATM   40  C25   D T   1     -15.903  -0.922 -10.674  1.00 10.21     0.033 C 
ENDBRANCH   9  33
TORSDOF 4
ENDMDL
MODEL 8
REMARK VINA RESULT:    -8.174      2.299      9.438
REMARK INTER + INTRA:         -11.377
REMARK INTER:                  -9.991
REMARK INTRA:                  -1.387
REMARK UNBOUND:                -1.292
REMARK  4 active torsions:
REMARK  status: ('A' for Active; 'I' for Inactive)
REMARK    1  A    between atoms: C1_1  and  N3_7 
REMARK    2  A    between atoms: N3_7  and  C5_8 
REMARK    3  A    between atoms: C8_11  and  N7_34 
REMARK    4  A    between atoms: N5_16  and  C19_26 
ROOT
HETATM    1  C1    D T   1     -17.011   0.278  -6.551  1.00  8.98     0.751 A 
HETATM    2  N1    D T   1     -15.708   0.713  -6.526  1.00  8.90    -0.041 NA
HETATM    3  C2    D T   1     -15.265   1.711  -5.737  1.00  9.32     0.188 A 
HETATM    4  C3    D T   1     -16.292   2.336  -4.861  1.00  8.55     0.112 A 
HETATM    5  C4    D T   1     -17.688   1.879  -4.860  1.00 10.16     0.126 A 
HETATM    6  N2    D T   1     -17.979   0.854  -5.728  1.00  8.40    -0.057 NA
HETATM    7  N4    D T   1     -13.868   2.152  -5.807  1.00 10.02    -0.124 N 
HETATM    8  C11   D T   1     -13.357   3.186  -5.048  1.00  8.08     0.723 A 
HETATM    9  N5    D T   1     -14.274   3.826  -4.173  1.00  9.52    -0.107 N 
HETATM   10  C12   D T   1     -15.693   3.400  -4.117  1.00  8.74     0.283 A 
HETATM   11  C13   D T   1     -12.726   1.746  -6.581  1.00  8.60     0.093 A 
HETATM   12  C14   D T   1     -11.546   2.575  -6.277  1.00  8.87     0.094 A 
HETATM   13  N6    D T   1     -11.978   3.457  -5.316  1.00  8.74    -0.065 NA
HETATM   14  C15   D T   1     -12.516   0.704  -7.610  1.00  8.67    -0.007 A 
HETATM   15  C16   D T   1     -11.237   0.475  -8.303  1.00 10.01     0.028 A 
HETATM   16  C17   D T   1     -10.126   1.336  -7.951  1.00  8.30     0.011 A 
HETATM   17  C18   D T   1     -10.249   2.380  -6.958  1.00  8.80     0.048 A 
HETATM   18  O1    D T   1     -16.532   4.009  -3.465  1.00  9.45    -0.266 OA
ENDROOT
BRANCH   1  19
HETATM   19  N3    D T   1     -17.343  -0.701  -7.476  1.00 10.50    -0.059 NA
BRANCH  19  20
HETATM   20  C5    D T   1     -16.554  -1.387  -8.435  1.00 13.72     0.096 A 
HETATM   21  C6    D T   1     -16.437  -0.859  -9.809  1.00 16.17     0.021 A 
HETATM   22  C7    D T   1     -15.570  -1.444 -10.758  1.00 18.76     0.014 A 
HETATM   23  C8    D T   1     -14.842  -2.574 -10.266  1.00 19.63     0.038 A 
HETATM   24  C9    D T   1     -14.941  -3.161  -8.899  1.00 18.58     0.071 A 
HETATM   25  C10   D T   1     -15.831  -2.545  -7.961  1.00 14.74    -0.000 A 
BRANCH  23  26
HETATM   26  N7    D T   1     -13.973  -2.997 -11.240  1.00 23.52    -0.347 N 
HETATM   27  C27   D T   1     -12.603  -3.153 -10.817  1.00 25.21     0.137 C 
HETATM   28  C28   D T   1     -11.659  -2.571 -11.860  1.00 27.80     0.274 C 
HETATM   29  N8    D T   1     -12.094  -3.090 -13.167  1.00 28.55     0.143 N 
HETATM   30  C29   D T   1     -13.398  -2.548 -13.578  1.00 28.15     0.274 C 
HETATM   31  C31   D T   1     -11.191  -2.426 -14.095  1.00 29.41     0.286 C 
HETATM   32  C30   D T   1     -14.357  -3.317 -12.673  1.00 25.70     0.137 C 
ENDBRANCH  23  26
ENDBRANCH  19  20
ENDBRANCH   1  19
BRANCH   9  33
HETATM   33  C19   D T   1     -13.816   4.782  -3.304  1.00  9.46     0.076 A 
HETATM   34  C20   D T   1     -13.660   6.167  -3.744  1.00  9.11    -0.005 A 
HETATM   35  C21   D T   1     -13.163   7.168  -2.811  1.00  9.01    -0.003 A 
HETATM   36  C26   D T   1     -14.007   6.517  -5.179  1.00  8.02     0.033 C 
HETATM   37  C22   D T   1     -12.820   6.856  -1.458  1.00  9.80    -0.001 A 
HETATM   38  C23   D T   1     -12.990   5.501  -1.084  1.00 10.49    -0.003 A 
HETATM   39  C24   D T   1     -13.471   4.445  -1.947  1.00 10.01    -0.005 A 
HETATM   40  C25   D T   1     -13.549   3.028  -1.418  1.00 10.21     0.033 C 
ENDBRANCH   9  33
TORSDOF 4
ENDMDL
MODEL 9
REMARK VINA RESULT:    -8.040      2.619      4.083
REMARK INTER + INTRA:         -11.212
REMARK INTER:                 -10.432
REMARK INTRA:                  -0.780
REMARK UNBOUND:                -1.292
REMARK  4 active torsions:
REMARK  status: ('A' for Active; 'I' for Inactive)
REMARK    1  A    between atoms: C1_1  and  N3_7 
REMARK    2  A    between atoms: N3_7  and  C5_8 
REMARK    3  A    between atoms: C8_11  and  N7_34 
REMARK    4  A    between atoms: N5_16  and  C19_26 
ROOT
HETATM    1  C1    D T   1     -14.027  -0.406  -6.781  1.00  8.98     0.751 A 
HETATM    2  N1    D T   1     -13.728  -1.107  -7.924  1.00  8.90    -0.041 NA
HETATM    3  C2    D T   1     -14.372  -2.227  -8.307  1.00  9.32     0.188 A 
HETATM    4  C3    D T   1     -15.463  -2.678  -7.401  1.00  8.55     0.112 A 
HETATM    5  C4    D T   1     -15.810  -1.936  -6.182  1.00 10.16     0.126 A 
HETATM    6  N2    D T   1     -15.053  -0.817  -5.930  1.00  8.40    -0.057 NA
HETATM    7  N4    D T   1     -13.958  -2.948  -9.515  1.00 10.02    -0.124 N 
HETATM    8  C11   D T   1     -14.555  -4.115  -9.947  1.00  8.08     0.723 A 
HETATM    9  N5    D T   1     -15.619  -4.604  -9.143  1.00  9.52    -0.107 N 
HETATM   10  C12   D T   1     -16.024  -3.892  -7.907  1.00  8.74     0.283 A 
HETATM   11  C13   D T   1     -12.934  -2.743 -10.505  1.00  8.60     0.093 A 
HETATM   12  C14   D T   1     -12.931  -3.821 -11.509  1.00  8.87     0.094 A 
HETATM   13  N6    D T   1     -13.957  -4.654 -11.130  1.00  8.74    -0.065 NA
HETATM   14  C15   D T   1     -11.900  -1.702 -10.694  1.00  8.67    -0.007 A 
HETATM   15  C16   D T   1     -10.919  -1.703 -11.792  1.00 10.01     0.028 A 
HETATM   16  C17   D T   1     -10.979  -2.802 -12.735  1.00  8.30     0.011 A 
HETATM   17  C18   D T   1     -11.957  -3.860 -12.620  1.00  8.80     0.048 A 
HETATM   18  O1    D T   1     -16.852  -4.352  -7.131  1.00  9.45    -0.266 OA
ENDROOT
BRANCH   1  19
HETATM   19  N3    D T   1     -13.224   0.681  -6.467  1.00 10.50    -0.059 NA
BRANCH  19  20
HETATM   20  C5    D T   1     -13.338   1.667  -5.453  1.00 13.72     0.096 A 
HETATM   21  C6    D T   1     -13.603   1.263  -4.058  1.00 16.17     0.021 A 
HETATM   22  C7    D T   1     -13.607   2.200  -3.002  1.00 18.76     0.014 A 
HETATM   23  C8    D T   1     -13.340   3.545  -3.413  1.00 19.63     0.038 A 
HETATM   24  C9    D T   1     -13.092   4.009  -4.808  1.00 18.58     0.071 A 
HETATM   25  C10   D T   1     -13.096   3.033  -5.857  1.00 14.74    -0.000 A 
BRANCH  23  26
HETATM   26  N7    D T   1     -13.279   4.343  -2.299  1.00 23.52    -0.347 N 
HETATM   27  C27   D T   1     -14.269   4.067  -1.288  1.00 25.21     0.137 C 
HETATM   28  C28   D T   1     -14.861   5.366  -0.759  1.00 27.80     0.274 C 
HETATM   29  N8    D T   1     -13.729   6.260  -0.462  1.00 28.55     0.143 N 
HETATM   30  C29   D T   1     -13.029   6.700  -1.679  1.00 28.15     0.274 C 
HETATM   31  C31   D T   1     -14.389   7.487  -0.040  1.00 29.41     0.286 C 
HETATM   32  C30   D T   1     -12.257   5.442  -2.067  1.00 25.70     0.137 C 
ENDBRANCH  23  26
ENDBRANCH  19  20
ENDBRANCH   1  19
BRANCH   9  33
HETATM   33  C19   D T   1     -16.336  -5.691  -9.568  1.00  9.46     0.076 A 
HETATM   34  C20   D T   1     -17.535  -5.513 -10.385  1.00  9.11    -0.005 A 
HETATM   35  C21   D T   1     -18.290  -6.679 -10.821  1.00  9.01    -0.003 A 
HETATM   36  C26   D T   1     -17.968  -4.103 -10.741  1.00  8.02     0.033 C 
HETATM   37  C22   D T   1     -17.904  -8.015 -10.486  1.00  9.80    -0.001 A 
HETATM   38  C23   D T   1     -16.736  -8.131  -9.695  1.00 10.49    -0.003 A 
HETATM   39  C24   D T   1     -15.932  -7.028  -9.215  1.00 10.01    -0.005 A 
HETATM   40  C25   D T   1     -14.737  -7.308  -8.330  1.00 10.21     0.033 C 
ENDBRANCH   9  33
TORSDOF 4
ENDMDL
