MODEL 1
REMARK VINA RESULT:   -10.106      0.000      0.000
REMARK INTER + INTRA:         -12.952
REMARK INTER:                 -12.469
REMARK INTRA:                  -0.482
REMARK UNBOUND:                -0.482
REMARK  4 active torsions:
REMARK  status: ('A' for Active; 'I' for Inactive)
REMARK    1  A    between atoms: C1_1  and  N3_7 
REMARK    2  A    between atoms: N3_7  and  C5_8 
REMARK    3  A    between atoms: C8_11  and  N7_34 
REMARK    4  A    between atoms: N5_16  and  C19_26 
ROOT
HETATM    1  C1    D T   1       7.164  13.669   0.974  1.00  8.98     0.751 A 
HETATM    2  N1    D T   1       5.878  13.732   0.496  1.00  8.90    -0.041 NA
HETATM    3  C2    D T   1       5.466  14.614  -0.437  1.00  9.32     0.188 A 
HETATM    4  C3    D T   1       6.511  15.545  -0.941  1.00  8.55     0.112 A 
HETATM    5  C4    D T   1       7.896  15.487  -0.454  1.00 10.16     0.126 A 
HETATM    6  N2    D T   1       8.152  14.532   0.502  1.00  8.40    -0.057 NA
HETATM    7  N4    D T   1       4.061  14.653  -0.857  1.00 10.02    -0.124 N 
HETATM    8  C11   D T   1       3.568  15.550  -1.784  1.00  8.08     0.723 A 
HETATM    9  N5    D T   1       4.510  16.465  -2.326  1.00  9.52    -0.107 N 
HETATM   10  C12   D T   1       5.925  16.445  -1.884  1.00  8.74     0.283 A 
HETATM   11  C13   D T   1       2.885  13.908  -0.496  1.00  8.60     0.093 A 
HETATM   12  C14   D T   1       1.695  14.399  -1.211  1.00  8.87     0.094 A 
HETATM   13  N6    D T   1       2.160  15.418  -2.006  1.00  8.74    -0.065 NA
HETATM   14  C15   D T   1       2.641  12.790   0.443  1.00  8.67    -0.007 A 
HETATM   15  C16   D T   1       1.320  12.182   0.674  1.00 10.01     0.028 A 
HETATM   16  C17   D T   1       0.198  12.725  -0.063  1.00  8.30     0.011 A 
HETATM   17  C18   D T   1       0.352  13.818  -0.999  1.00  8.80     0.048 A 
HETATM   18  O1    D T   1       6.731  17.296  -2.240  1.00  9.45    -0.266 OA
ENDROOT
BRANCH   1  19
HETATM   19  N3    D T   1       7.424  12.766   1.994  1.00 10.50    -0.059 NA
BRANCH  19  20
HETATM   20  C5    D T   1       8.623  12.115   2.383  1.00 13.72     0.096 A 
HETATM   21  C6    D T   1       9.148  12.291   3.751  1.00 16.17     0.021 A 
HETATM   22  C7    D T   1      10.270  11.569   4.215  1.00 18.76     0.014 A 
HETATM   23  C8    D T   1      10.833  10.678   3.246  1.00 19.63     0.038 A 
HETATM   24  C9    D T   1      10.356  10.481   1.846  1.00 18.58     0.071 A 
HETATM   25  C10   D T   1       9.217  11.229   1.408  1.00 14.74    -0.000 A 
BRANCH  23  26
HETATM   26  N7    D T   1      11.850   9.970   3.835  1.00 23.52    -0.347 N 
HETATM   27  C27   D T   1      11.434   8.970   4.786  1.00 25.21     0.137 C 
HETATM   28  C28   D T   1      12.318   9.023   6.026  1.00 27.80     0.274 C 
HETATM   29  N8    D T   1      13.712   9.062   5.555  1.00 28.55     0.143 N 
HETATM   30  C29   D T   1      14.038  10.325   4.876  1.00 28.15     0.274 C 
HETATM   31  C31   D T   1      14.467   9.184   6.792  1.00 29.41     0.286 C 
HETATM   32  C30   D T   1      13.328  10.154   3.536  1.00 25.70     0.137 C 
ENDBRANCH  23  26
ENDBRANCH  19  20
ENDBRANCH   1  19
BRANCH   9  33
HETATM   33  C19   D T   1       4.123  17.307  -3.334  1.00  9.46     0.076 A 
HETATM   34  C20   D T   1       4.563  17.067  -4.708  1.00  9.11    -0.005 A 
HETATM   35  C21   D T   1       4.150  17.978  -5.765  1.00  9.01    -0.003 A 
HETATM   36  C26   D T   1       5.461  15.878  -4.985  1.00  8.02     0.033 C 
HETATM   37  C22   D T   1       3.313  19.112  -5.521  1.00  9.80    -0.001 A 
HETATM   38  C23   D T   1       2.915  19.296  -4.175  1.00 10.49    -0.003 A 
HETATM   39  C24   D T   1       3.283  18.446  -3.065  1.00 10.01    -0.005 A 
HETATM   40  C25   D T   1       2.823  18.803  -1.669  1.00 10.21     0.033 C 
ENDBRANCH   9  33
TORSDOF 4
ENDMDL
MODEL 2
REMARK VINA RESULT:   -10.053      0.148      1.396
REMARK INTER + INTRA:         -12.886
REMARK INTER:                 -12.582
REMARK INTRA:                  -0.304
REMARK UNBOUND:                -0.482
REMARK  4 active torsions:
REMARK  status: ('A' for Active; 'I' for Inactive)
REMARK    1  A    between atoms: C1_1  and  N3_7 
REMARK    2  A    between atoms: N3_7  and  C5_8 
REMARK    3  A    between atoms: C8_11  and  N7_34 
REMARK    4  A    between atoms: N5_16  and  C19_26 
ROOT
HETATM    1  C1    D T   1       7.162  13.596   0.970  1.00  8.98     0.751 A 
HETATM    2  N1    D T   1       5.876  13.678   0.495  1.00  8.90    -0.041 NA
HETATM    3  C2    D T   1       5.475  14.568  -0.434  1.00  9.32     0.188 A 
HETATM    4  C3    D T   1       6.532  15.487  -0.936  1.00  8.55     0.112 A 
HETATM    5  C4    D T   1       7.917  15.409  -0.453  1.00 10.16     0.126 A 
HETATM    6  N2    D T   1       8.161  14.447   0.500  1.00  8.40    -0.057 NA
HETATM    7  N4    D T   1       4.070  14.627  -0.852  1.00 10.02    -0.124 N 
HETATM    8  C11   D T   1       3.588  15.535  -1.775  1.00  8.08     0.723 A 
HETATM    9  N5    D T   1       4.541  16.438  -2.315  1.00  9.52    -0.107 N 
HETATM   10  C12   D T   1       5.956  16.399  -1.875  1.00  8.74     0.283 A 
HETATM   11  C13   D T   1       2.885  13.896  -0.492  1.00  8.60     0.093 A 
HETATM   12  C14   D T   1       1.700  14.406  -1.203  1.00  8.87     0.094 A 
HETATM   13  N6    D T   1       2.178  15.422  -1.995  1.00  8.74    -0.065 NA
HETATM   14  C15   D T   1       2.627  12.779   0.443  1.00  8.67    -0.007 A 
HETATM   15  C16   D T   1       1.299  12.188   0.675  1.00 10.01     0.028 A 
HETATM   16  C17   D T   1       0.183  12.748  -0.059  1.00  8.30     0.011 A 
HETATM   17  C18   D T   1       0.350  13.842  -0.991  1.00  8.80     0.048 A 
HETATM   18  O1    D T   1       6.772  17.240  -2.230  1.00  9.45    -0.266 OA
ENDROOT
BRANCH   1  19
HETATM   19  N3    D T   1       7.412  12.685   1.987  1.00 10.50    -0.059 NA
BRANCH  19  20
HETATM   20  C5    D T   1       8.614  12.060   2.407  1.00 13.72     0.096 A 
HETATM   21  C6    D T   1       8.917  11.936   3.846  1.00 16.17     0.021 A 
HETATM   22  C7    D T   1      10.042  11.218   4.310  1.00 18.76     0.014 A 
HETATM   23  C8    D T   1      10.838  10.643   3.268  1.00 19.63     0.038 A 
HETATM   24  C9    D T   1      10.589  10.758   1.801  1.00 18.58     0.071 A 
HETATM   25  C10   D T   1       9.441  11.494   1.365  1.00 14.74    -0.000 A 
BRANCH  23  26
HETATM   26  N7    D T   1      11.840   9.899   3.837  1.00 23.52    -0.347 N 
HETATM   27  C27   D T   1      11.414   8.965   4.849  1.00 25.21     0.137 C 
HETATM   28  C28   D T   1      12.361   9.014   6.042  1.00 27.80     0.274 C 
HETATM   29  N8    D T   1      13.730   8.949   5.503  1.00 28.55     0.143 N 
HETATM   30  C29   D T   1      14.095  10.161   4.755  1.00 28.15     0.274 C 
HETATM   31  C31   D T   1      14.553   9.075   6.695  1.00 29.41     0.286 C 
HETATM   32  C30   D T   1      13.309   9.979   3.459  1.00 25.70     0.137 C 
ENDBRANCH  23  26
ENDBRANCH  19  20
ENDBRANCH   1  19
BRANCH   9  33
HETATM   33  C19   D T   1       4.163  17.289  -3.319  1.00  9.46     0.076 A 
HETATM   34  C20   D T   1       3.314  18.445  -3.028  1.00  9.11    -0.005 A 
HETATM   35  C21   D T   1       2.914  19.334  -4.109  1.00  9.01    -0.003 A 
HETATM   36  C26   D T   1       2.860  18.670  -1.600  1.00  8.02     0.033 C 
HETATM   37  C22   D T   1       3.323  19.131  -5.464  1.00  9.80    -0.001 A 
HETATM   38  C23   D T   1       4.144  18.000  -5.690  1.00 10.49    -0.003 A 
HETATM   39  C24   D T   1       4.583  17.064  -4.678  1.00 10.01    -0.005 A 
HETATM   40  C25   D T   1       5.416  15.867  -5.082  1.00 10.21     0.033 C 
ENDBRANCH   9  33
TORSDOF 4
ENDMDL
MODEL 3
REMARK VINA RESULT:    -9.858      1.695      4.236
REMARK INTER + INTRA:         -12.645
REMARK INTER:                 -12.264
REMARK INTRA:                  -0.382
REMARK UNBOUND:                -0.482
REMARK  4 active torsions:
REMARK  status: ('A' for Active; 'I' for Inactive)
REMARK    1  A    between atoms: C1_1  and  N3_7 
REMARK    2  A    between atoms: N3_7  and  C5_8 
REMARK    3  A    between atoms: C8_11  and  N7_34 
REMARK    4  A    between atoms: N5_16  and  C19_26 
ROOT
HETATM    1  C1    D T   1       4.731  12.728   1.429  1.00  8.98     0.751 A 
HETATM    2  N1    D T   1       5.604  13.586   0.806  1.00  8.90    -0.041 NA
HETATM    3  C2    D T   1       5.254  14.415  -0.197  1.00  9.32     0.188 A 
HETATM    4  C3    D T   1       3.825  14.353  -0.607  1.00  8.55     0.112 A 
HETATM    5  C4    D T   1       2.870  13.454   0.054  1.00 10.16     0.126 A 
HETATM    6  N2    D T   1       3.389  12.669   1.057  1.00  8.40    -0.057 NA
HETATM    7  N4    D T   1       6.258  15.264  -0.848  1.00 10.02    -0.124 N 
HETATM    8  C11   D T   1       5.972  16.112  -1.900  1.00  8.08     0.723 A 
HETATM    9  N5    D T   1       4.621  16.123  -2.340  1.00  9.52    -0.107 N 
HETATM   10  C12   D T   1       3.610  15.247  -1.702  1.00  8.74     0.283 A 
HETATM   11  C13   D T   1       7.670  15.465  -0.666  1.00  8.60     0.093 A 
HETATM   12  C14   D T   1       8.208  16.428  -1.643  1.00  8.87     0.094 A 
HETATM   13  N6    D T   1       7.120  16.811  -2.390  1.00  8.74    -0.065 NA
HETATM   14  C15   D T   1       8.665  14.894   0.269  1.00  8.67    -0.007 A 
HETATM   15  C16   D T   1      10.096  15.238   0.260  1.00 10.01     0.028 A 
HETATM   16  C17   D T   1      10.547  16.188  -0.735  1.00  8.30     0.011 A 
HETATM   17  C18   D T   1       9.640  16.791  -1.686  1.00  8.80     0.048 A 
HETATM   18  O1    D T   1       2.470  15.144  -2.137  1.00  9.45    -0.266 OA
ENDROOT
BRANCH   1  19
HETATM   19  N3    D T   1       5.250  11.872   2.390  1.00 10.50    -0.059 NA
BRANCH  19  20
HETATM   20  C5    D T   1       6.569  11.396   2.603  1.00 13.72     0.096 A 
HETATM   21  C6    D T   1       7.588  11.546   1.546  1.00 16.17     0.021 A 
HETATM   22  C7    D T   1       8.939  11.193   1.761  1.00 18.76     0.014 A 
HETATM   23  C8    D T   1       9.209  10.685   3.072  1.00 19.63     0.038 A 
HETATM   24  C9    D T   1       8.213  10.492   4.166  1.00 18.58     0.071 A 
HETATM   25  C10   D T   1       6.852  10.858   3.915  1.00 14.74    -0.000 A 
BRANCH  23  26
HETATM   26  N7    D T   1      10.558  10.466   3.192  1.00 23.52    -0.347 N 
HETATM   27  C27   D T   1      10.966   9.789   4.396  1.00 25.21     0.137 C 
HETATM   28  C28   D T   1      12.202  10.458   4.984  1.00 27.80     0.274 C 
HETATM   29  N8    D T   1      13.156  10.640   3.877  1.00 28.55     0.143 N 
HETATM   30  C29   D T   1      12.691  11.632   2.896  1.00 28.15     0.274 C 
HETATM   31  C31   D T   1      14.258  11.344   4.514  1.00 29.41     0.286 C 
HETATM   32  C30   D T   1      11.601  10.858   2.160  1.00 25.70     0.137 C 
ENDBRANCH  23  26
ENDBRANCH  19  20
ENDBRANCH   1  19
BRANCH   9  33
HETATM   33  C19   D T   1       4.237  17.021  -3.299  1.00  9.46     0.076 A 
HETATM   34  C20   D T   1       3.411  18.175  -2.944  1.00  9.11    -0.005 A 
HETATM   35  C21   D T   1       3.004  19.114  -3.979  1.00  9.01    -0.003 A 
HETATM   36  C26   D T   1       2.986  18.345  -1.499  1.00  8.02     0.033 C 
HETATM   37  C22   D T   1       3.385  18.964  -5.349  1.00  9.80    -0.001 A 
HETATM   38  C23   D T   1       4.185  17.832  -5.637  1.00 10.49    -0.003 A 
HETATM   39  C24   D T   1       4.629  16.848  -4.675  1.00 10.01    -0.005 A 
HETATM   40  C25   D T   1       5.437  15.658  -5.145  1.00 10.21     0.033 C 
ENDBRANCH   9  33
TORSDOF 4
ENDMDL
MODEL 4
REMARK VINA RESULT:    -9.662      1.803      2.622
REMARK INTER + INTRA:         -12.403
REMARK INTER:                 -11.662
REMARK INTRA:                  -0.741
REMARK UNBOUND:                -0.482
REMARK  4 active torsions:
REMARK  status: ('A' for Active; 'I' for Inactive)
REMARK    1  A    between atoms: C1_1  and  N3_7 
REMARK    2  A    between atoms: N3_7  and  C5_8 
REMARK    3  A    between atoms: C8_11  and  N7_34 
REMARK    4  A    between atoms: N5_16  and  C19_26 
ROOT
HETATM    1  C1    D T   1       7.981  12.210   2.566  1.00  8.98     0.751 A 
HETATM    2  N1    D T   1       6.719  12.415   2.062  1.00  8.90    -0.041 NA
HETATM    3  C2    D T   1       6.457  13.185   0.988  1.00  9.32     0.188 A 
HETATM    4  C3    D T   1       7.643  13.820   0.352  1.00  8.55     0.112 A 
HETATM    5  C4    D T   1       9.002  13.604   0.865  1.00 10.16     0.126 A 
HETATM    6  N2    D T   1       9.098  12.795   1.973  1.00  8.40    -0.057 NA
HETATM    7  N4    D T   1       5.075  13.397   0.542  1.00 10.02    -0.124 N 
HETATM    8  C11   D T   1       4.736  14.197  -0.531  1.00  8.08     0.723 A 
HETATM    9  N5    D T   1       5.816  14.828  -1.203  1.00  9.52    -0.107 N 
HETATM   10  C12   D T   1       7.211  14.637  -0.739  1.00  8.74     0.283 A 
HETATM   11  C13   D T   1       3.792  12.940   1.003  1.00  8.60     0.093 A 
HETATM   12  C14   D T   1       2.697  13.504   0.196  1.00  8.87     0.094 A 
HETATM   13  N6    D T   1       3.324  14.277  -0.752  1.00  8.74    -0.065 NA
HETATM   14  C15   D T   1       3.367  12.058   2.113  1.00  8.67    -0.007 A 
HETATM   15  C16   D T   1       1.964  11.738   2.420  1.00 10.01     0.028 A 
HETATM   16  C17   D T   1       0.945  12.336   1.582  1.00  8.30     0.011 A 
HETATM   17  C18   D T   1       1.276  13.211   0.479  1.00  8.80     0.048 A 
HETATM   18  O1    D T   1       8.149  15.261  -1.220  1.00  9.45    -0.266 OA
ENDROOT
BRANCH   1  19
HETATM   19  N3    D T   1       8.092  11.461   3.728  1.00 10.50    -0.059 NA
BRANCH  19  20
HETATM   20  C5    D T   1       9.230  11.018   4.451  1.00 13.72     0.096 A 
HETATM   21  C6    D T   1      10.314  11.966   4.772  1.00 16.17     0.021 A 
HETATM   22  C7    D T   1      11.407  11.596   5.588  1.00 18.76     0.014 A 
HETATM   23  C8    D T   1      11.356  10.244   6.054  1.00 19.63     0.038 A 
HETATM   24  C9    D T   1      10.298   9.240   5.740  1.00 18.58     0.071 A 
HETATM   25  C10   D T   1       9.206   9.647   4.908  1.00 14.74    -0.000 A 
BRANCH  23  26
HETATM   26  N7    D T   1      12.411  10.030   6.905  1.00 23.52    -0.347 N 
HETATM   27  C27   D T   1      13.109  11.217   7.331  1.00 25.21     0.137 C 
HETATM   28  C28   D T   1      14.614  10.990   7.278  1.00 27.80     0.274 C 
HETATM   29  N8    D T   1      14.875   9.701   7.939  1.00 28.55     0.143 N 
HETATM   30  C29   D T   1      14.353   8.561   7.170  1.00 28.15     0.274 C 
HETATM   31  C31   D T   1      16.311   9.538   7.776  1.00 29.41     0.286 C 
HETATM   32  C30   D T   1      12.852   8.672   7.424  1.00 25.70     0.137 C 
ENDBRANCH  23  26
ENDBRANCH  19  20
ENDBRANCH   1  19
BRANCH   9  33
HETATM   33  C19   D T   1       5.569  15.542  -2.344  1.00  9.46     0.076 A 
HETATM   34  C20   D T   1       5.702  14.909  -3.656  1.00  9.11    -0.005 A 
HETATM   35  C21   D T   1       5.445  15.686  -4.860  1.00  9.01    -0.003 A 
HETATM   36  C26   D T   1       6.125  13.455  -3.720  1.00  8.02     0.033 C 
HETATM   37  C22   D T   1       5.056  17.062  -4.820  1.00  9.80    -0.001 A 
HETATM   38  C23   D T   1       4.941  17.625  -3.526  1.00 10.49    -0.003 A 
HETATM   39  C24   D T   1       5.183  16.929  -2.282  1.00 10.01    -0.005 A 
HETATM   40  C25   D T   1       5.072  17.682  -0.974  1.00 10.21     0.033 C 
ENDBRANCH   9  33
TORSDOF 4
ENDMDL
MODEL 5
REMARK VINA RESULT:    -9.507      3.307      5.982
REMARK INTER + INTRA:         -12.212
REMARK INTER:                 -11.879
REMARK INTRA:                  -0.333
REMARK UNBOUND:                -0.482
REMARK  4 active torsions:
REMARK  status: ('A' for Active; 'I' for Inactive)
REMARK    1  A    between atoms: C1_1  and  N3_7 
REMARK    2  A    between atoms: N3_7  and  C5_8 
REMARK    3  A    between atoms: C8_11  and  N7_34 
REMARK    4  A    between atoms: N5_16  and  C19_26 
ROOT
HETATM    1  C1    D T   1       6.532  10.847   3.697  1.00  8.98     0.751 A 
HETATM    2  N1    D T   1       6.235  11.836   2.791  1.00  8.90    -0.041 NA
HETATM    3  C2    D T   1       4.989  12.105   2.355  1.00  9.32     0.188 A 
HETATM    4  C3    D T   1       3.914  11.249   2.927  1.00  8.55     0.112 A 
HETATM    5  C4    D T   1       4.206  10.194   3.907  1.00 10.16     0.126 A 
HETATM    6  N2    D T   1       5.531  10.046   4.244  1.00  8.40    -0.057 NA
HETATM    7  N4    D T   1       4.759  13.144   1.346  1.00 10.02    -0.124 N 
HETATM    8  C11   D T   1       3.513  13.448   0.835  1.00  8.08     0.723 A 
HETATM    9  N5    D T   1       2.429  12.683   1.344  1.00  9.52    -0.107 N 
HETATM   10  C12   D T   1       2.661  11.614   2.345  1.00  8.74     0.283 A 
HETATM   11  C13   D T   1       5.614  14.052   0.629  1.00  8.60     0.093 A 
HETATM   12  C14   D T   1       4.850  14.875  -0.323  1.00  8.87     0.094 A 
HETATM   13  N6    D T   1       3.545  14.473  -0.163  1.00  8.74    -0.065 NA
HETATM   14  C15   D T   1       7.074  14.298   0.645  1.00  8.67    -0.007 A 
HETATM   15  C16   D T   1       7.752  15.286  -0.210  1.00 10.01     0.028 A 
HETATM   16  C17   D T   1       6.930  16.052  -1.124  1.00  8.30     0.011 A 
HETATM   17  C18   D T   1       5.497  15.871  -1.203  1.00  8.80     0.048 A 
HETATM   18  O1    D T   1       1.768  10.860   2.710  1.00  9.45    -0.266 OA
ENDROOT
BRANCH   1  19
HETATM   19  N3    D T   1       7.870  10.629   3.991  1.00 10.50    -0.059 NA
BRANCH  19  20
HETATM   20  C5    D T   1       9.051  11.223   3.474  1.00 13.72     0.096 A 
HETATM   21  C6    D T   1       9.219  11.381   2.016  1.00 16.17     0.021 A 
HETATM   22  C7    D T   1      10.323  12.072   1.467  1.00 18.76     0.014 A 
HETATM   23  C8    D T   1      11.236  12.584   2.443  1.00 19.63     0.038 A 
HETATM   24  C9    D T   1      11.124  12.431   3.923  1.00 18.58     0.071 A 
HETATM   25  C10   D T   1       9.995  11.724   4.447  1.00 14.74    -0.000 A 
BRANCH  23  26
HETATM   26  N7    D T   1      12.208  13.309   1.801  1.00 23.52    -0.347 N 
HETATM   27  C27   D T   1      13.052  14.102   2.659  1.00 25.21     0.137 C 
HETATM   28  C28   D T   1      13.260  15.487   2.059  1.00 27.80     0.274 C 
HETATM   29  N8    D T   1      13.619  15.289   0.645  1.00 28.55     0.143 N 
HETATM   30  C29   D T   1      12.499  14.763  -0.149  1.00 28.15     0.274 C 
HETATM   31  C31   D T   1      13.724  16.651   0.146  1.00 29.41     0.286 C 
HETATM   32  C30   D T   1      12.453  13.305   0.302  1.00 25.70     0.137 C 
ENDBRANCH  23  26
ENDBRANCH  19  20
ENDBRANCH   1  19
BRANCH   9  33
HETATM   33  C19   D T   1       1.151  13.004   0.972  1.00  9.46     0.076 A 
HETATM   34  C20   D T   1       0.696  12.762  -0.397  1.00  9.11    -0.005 A 
HETATM   35  C21   D T   1      -0.663  13.117  -0.777  1.00  9.01    -0.003 A 
HETATM   36  C26   D T   1       1.671  12.160  -1.389  1.00  8.02     0.033 C 
HETATM   37  C22   D T   1      -1.593  13.697   0.142  1.00  9.80    -0.001 A 
HETATM   38  C23   D T   1      -1.102  13.908   1.453  1.00 10.49    -0.003 A 
HETATM   39  C24   D T   1       0.231  13.591   1.913  1.00 10.01    -0.005 A 
HETATM   40  C25   D T   1       0.628  13.927   3.334  1.00 10.21     0.033 C 
ENDBRANCH   9  33
TORSDOF 4
ENDMDL
MODEL 6
REMARK VINA RESULT:    -9.438      3.690     12.068
REMARK INTER + INTRA:         -12.127
REMARK INTER:                 -11.421
REMARK INTRA:                  -0.706
REMARK UNBOUND:                -0.482
REMARK  4 active torsions:
REMARK  status: ('A' for Active; 'I' for Inactive)
REMARK    1  A    between atoms: C1_1  and  N3_7 
REMARK    2  A    between atoms: N3_7  and  C5_8 
REMARK    3  A    between atoms: C8_11  and  N7_34 
REMARK    4  A    between atoms: N5_16  and  C19_26 
ROOT
HETATM    1  C1    D T   1       7.899  11.449   1.677  1.00  8.98     0.751 A 
HETATM    2  N1    D T   1       9.227  11.783   1.778  1.00  8.90    -0.041 NA
HETATM    3  C2    D T   1      10.013  11.431   2.814  1.00  9.32     0.188 A 
HETATM    4  C3    D T   1       9.346  10.632   3.878  1.00  8.55     0.112 A 
HETATM    5  C4    D T   1       7.931  10.252   3.786  1.00 10.16     0.126 A 
HETATM    6  N2    D T   1       7.268  10.695   2.665  1.00  8.40    -0.057 NA
HETATM    7  N4    D T   1      11.411  11.872   2.874  1.00 10.02    -0.124 N 
HETATM    8  C11   D T   1      12.260  11.572   3.921  1.00  8.08     0.723 A 
HETATM    9  N5    D T   1      11.702  10.796   4.971  1.00  9.52    -0.107 N 
HETATM   10  C12   D T   1      10.282  10.371   4.927  1.00  8.74     0.283 A 
HETATM   11  C13   D T   1      12.250  12.664   2.015  1.00  8.60     0.093 A 
HETATM   12  C14   D T   1      13.596  12.838   2.588  1.00  8.87     0.094 A 
HETATM   13  N6    D T   1      13.565  12.141   3.771  1.00  8.74    -0.065 NA
HETATM   14  C15   D T   1      12.025  13.336   0.716  1.00  8.67    -0.007 A 
HETATM   15  C16   D T   1      13.046  14.129   0.012  1.00 10.01     0.028 A 
HETATM   16  C17   D T   1      14.342  14.258   0.643  1.00  8.30     0.011 A 
HETATM   17  C18   D T   1      14.643  13.634   1.913  1.00  8.80     0.048 A 
HETATM   18  O1    D T   1       9.741   9.808   5.870  1.00  9.45    -0.266 OA
ENDROOT
BRANCH   1  19
HETATM   19  N3    D T   1       7.192  11.952   0.594  1.00 10.50    -0.059 NA
BRANCH  19  20
HETATM   20  C5    D T   1       5.820  12.279   0.443  1.00 13.72     0.096 A 
HETATM   21  C6    D T   1       4.967  12.454   1.635  1.00 16.17     0.021 A 
HETATM   22  C7    D T   1       3.629  12.894   1.533  1.00 18.76     0.014 A 
HETATM   23  C8    D T   1       3.196  13.140   0.191  1.00 19.63     0.038 A 
HETATM   24  C9    D T   1       4.008  12.956  -1.047  1.00 18.58     0.071 A 
HETATM   25  C10   D T   1       5.361  12.508  -0.908  1.00 14.74    -0.000 A 
BRANCH  23  26
HETATM   26  N7    D T   1       1.921  13.647   0.223  1.00 23.52    -0.347 N 
HETATM   27  C27   D T   1       1.287  13.635   1.518  1.00 25.21     0.137 C 
HETATM   28  C28   D T   1      -0.155  13.158   1.393  1.00 27.80     0.274 C 
HETATM   29  N8    D T   1      -0.758  13.909   0.280  1.00 28.55     0.143 N 
HETATM   30  C29   D T   1      -0.185  13.537  -1.022  1.00 28.15     0.274 C 
HETATM   31  C31   D T   1      -2.093  13.339   0.192  1.00 29.41     0.286 C 
HETATM   32  C30   D T   1       1.179  14.220  -0.971  1.00 25.70     0.137 C 
ENDBRANCH  23  26
ENDBRANCH  19  20
ENDBRANCH   1  19
BRANCH   9  33
HETATM   33  C19   D T   1      12.512  10.361   5.986  1.00  9.46     0.076 A 
HETATM   34  C20   D T   1      12.781  11.222   7.138  1.00  9.11    -0.005 A 
HETATM   35  C21   D T   1      13.652  10.747   8.203  1.00  9.01    -0.003 A 
HETATM   36  C26   D T   1      12.152  12.600   7.176  1.00  8.02     0.033 C 
HETATM   37  C22   D T   1      14.263   9.455   8.179  1.00  9.80    -0.001 A 
HETATM   38  C23   D T   1      13.969   8.663   7.043  1.00 10.49    -0.003 A 
HETATM   39  C24   D T   1      13.121   9.057   5.940  1.00 10.01    -0.005 A 
HETATM   40  C25   D T   1      12.945   8.119   4.765  1.00 10.21     0.033 C 
ENDBRANCH   9  33
TORSDOF 4
ENDMDL
MODEL 7
REMARK VINA RESULT:    -9.318      3.899      6.915
REMARK INTER + INTRA:         -11.979
REMARK INTER:                 -10.592
REMARK INTRA:                  -1.387
REMARK UNBOUND:                -0.482
REMARK  4 active torsions:
REMARK  status: ('A' for Active; 'I' for Inactive)
REMARK    1  A    between atoms: C1_1  and  N3_7 
REMARK    2  A    between atoms: N3_7  and  C5_8 
REMARK    3  A    between atoms: C8_11  and  N7_34 
REMARK    4  A    between atoms: N5_16  and  C19_26 
ROOT
HETATM    1  C1    D T   1       5.594  14.719  -3.547  1.00  8.98     0.751 A 
HETATM    2  N1    D T   1       6.775  15.297  -3.151  1.00  8.90    -0.041 NA
HETATM    3  C2    D T   1       7.467  16.179  -3.898  1.00  9.32     0.188 A 
HETATM    4  C3    D T   1       6.865  16.508  -5.219  1.00  8.55     0.112 A 
HETATM    5  C4    D T   1       5.596  15.912  -5.658  1.00 10.16     0.126 A 
HETATM    6  N2    D T   1       5.018  15.027  -4.779  1.00  8.40    -0.057 NA
HETATM    7  N4    D T   1       8.749  16.713  -3.426  1.00 10.02    -0.124 N 
HETATM    8  C11   D T   1       9.522  17.595  -4.156  1.00  8.08     0.723 A 
HETATM    9  N5    D T   1       9.006  17.971  -5.424  1.00  9.52    -0.107 N 
HETATM   10  C12   D T   1       7.723  17.413  -5.916  1.00  8.74     0.283 A 
HETATM   11  C13   D T   1       9.540  16.521  -2.240  1.00  8.60     0.093 A 
HETATM   12  C14   D T   1      10.796  17.288  -2.299  1.00  8.87     0.094 A 
HETATM   13  N6    D T   1      10.747  17.947  -3.504  1.00  8.74    -0.065 NA
HETATM   14  C15   D T   1       9.353  15.709  -1.017  1.00  8.67    -0.007 A 
HETATM   15  C16   D T   1      10.325  15.646   0.087  1.00 10.01     0.028 A 
HETATM   16  C17   D T   1      11.539  16.425  -0.049  1.00  8.30     0.011 A 
HETATM   17  C18   D T   1      11.799  17.243  -1.214  1.00  8.80     0.048 A 
HETATM   18  O1    D T   1       7.314  17.623  -7.051  1.00  9.45    -0.266 OA
ENDROOT
BRANCH   1  19
HETATM   19  N3    D T   1       5.035  13.764  -2.710  1.00 10.50    -0.059 NA
BRANCH  19  20
HETATM   20  C5    D T   1       5.414  13.317  -1.417  1.00 13.72     0.096 A 
HETATM   21  C6    D T   1       6.592  12.443  -1.255  1.00 16.17     0.021 A 
HETATM   22  C7    D T   1       7.072  12.072   0.021  1.00 18.76     0.014 A 
HETATM   23  C8    D T   1       6.315  12.613   1.109  1.00 19.63     0.038 A 
HETATM   24  C9    D T   1       5.106  13.480   0.999  1.00 18.58     0.071 A 
HETATM   25  C10   D T   1       4.645  13.836  -0.309  1.00 14.74    -0.000 A 
BRANCH  23  26
HETATM   26  N7    D T   1       6.924  12.264   2.288  1.00 23.52    -0.347 N 
HETATM   27  C27   D T   1       8.313  12.636   2.396  1.00 25.21     0.137 C 
HETATM   28  C28   D T   1       9.121  11.488   2.989  1.00 27.80     0.274 C 
HETATM   29  N8    D T   1       8.386  11.017   4.174  1.00 28.55     0.143 N 
HETATM   30  C29   D T   1       7.116  10.364   3.822  1.00 28.15     0.274 C 
HETATM   31  C31   D T   1       9.186   9.888   4.622  1.00 29.41     0.286 C 
HETATM   32  C30   D T   1       6.243  11.560   3.448  1.00 25.70     0.137 C 
ENDBRANCH  23  26
ENDBRANCH  19  20
ENDBRANCH   1  19
BRANCH   9  33
HETATM   33  C19   D T   1       9.657  18.929  -6.154  1.00  9.46     0.076 A 
HETATM   34  C20   D T   1       9.261  20.334  -6.050  1.00  9.11    -0.005 A 
HETATM   35  C21   D T   1       9.958  21.338  -6.841  1.00  9.01    -0.003 A 
HETATM   36  C26   D T   1       8.115  20.698  -5.128  1.00  8.02     0.033 C 
HETATM   37  C22   D T   1      11.033  21.012  -7.725  1.00  9.80    -0.001 A 
HETATM   38  C23   D T   1      11.376  19.640  -7.787  1.00 10.49    -0.003 A 
HETATM   39  C24   D T   1      10.735  18.578  -7.043  1.00 10.01    -0.005 A 
HETATM   40  C25   D T   1      11.178  17.147  -7.256  1.00 10.21     0.033 C 
ENDBRANCH   9  33
TORSDOF 4
ENDMDL
MODEL 8
REMARK VINA RESULT:    -9.238      1.833      3.029
REMARK INTER + INTRA:         -11.881
REMARK INTER:                 -11.210
REMARK INTRA:                  -0.671
REMARK UNBOUND:                -0.482
REMARK  4 active torsions:
REMARK  status: ('A' for Active; 'I' for Inactive)
REMARK    1  A    between atoms: C1_1  and  N3_7 
REMARK    2  A    between atoms: N3_7  and  C5_8 
REMARK    3  A    between atoms: C8_11  and  N7_34 
REMARK    4  A    between atoms: N5_16  and  C19_26 
ROOT
HETATM    1  C1    D T   1       8.832  12.172   2.669  1.00  8.98     0.751 A 
HETATM    2  N1    D T   1       7.517  12.262   2.281  1.00  8.90    -0.041 NA
HETATM    3  C2    D T   1       7.082  13.051   1.279  1.00  9.32     0.188 A 
HETATM    4  C3    D T   1       8.135  13.846   0.590  1.00  8.55     0.112 A 
HETATM    5  C4    D T   1       9.549  13.755   0.978  1.00 10.16     0.126 A 
HETATM    6  N2    D T   1       9.826  12.906   2.024  1.00  8.40    -0.057 NA
HETATM    7  N4    D T   1       5.653  13.132   0.960  1.00 10.02    -0.124 N 
HETATM    8  C11   D T   1       5.139  13.943  -0.032  1.00  8.08     0.723 A 
HETATM    9  N5    D T   1       6.085  14.723  -0.750  1.00  9.52    -0.107 N 
HETATM   10  C12   D T   1       7.527  14.664  -0.412  1.00  8.74     0.283 A 
HETATM   11  C13   D T   1       4.470  12.513   1.495  1.00  8.60     0.093 A 
HETATM   12  C14   D T   1       3.255  12.992   0.813  1.00  8.87     0.094 A 
HETATM   13  N6    D T   1       3.713  13.877  -0.134  1.00  8.74    -0.065 NA
HETATM   14  C15   D T   1       4.239  11.534   2.580  1.00  8.67    -0.007 A 
HETATM   15  C16   D T   1       2.909  11.045   2.979  1.00 10.01     0.028 A 
HETATM   16  C17   D T   1       1.764  11.569   2.263  1.00  8.30     0.011 A 
HETATM   17  C18   D T   1       1.903  12.530   1.192  1.00  8.80     0.048 A 
HETATM   18  O1    D T   1       8.348  15.411  -0.928  1.00  9.45    -0.266 OA
ENDROOT
BRANCH   1  19
HETATM   19  N3    D T   1       9.122  11.381   3.772  1.00 10.50    -0.059 NA
BRANCH  19  20
HETATM   20  C5    D T   1      10.250  10.575   4.074  1.00 13.72     0.096 A 
HETATM   21  C6    D T   1      11.372  10.488   3.119  1.00 16.17     0.021 A 
HETATM   22  C7    D T   1      12.561   9.793   3.432  1.00 18.76     0.014 A 
HETATM   23  C8    D T   1      12.563   9.195   4.732  1.00 19.63     0.038 A 
HETATM   24  C9    D T   1      11.449   9.233   5.723  1.00 18.58     0.071 A 
HETATM   25  C10   D T   1      10.257   9.944   5.374  1.00 14.74    -0.000 A 
BRANCH  23  26
HETATM   26  N7    D T   1      13.794   8.633   4.958  1.00 23.52    -0.347 N 
HETATM   27  C27   D T   1      14.076   7.442   4.196  1.00 25.21     0.137 C 
HETATM   28  C28   D T   1      14.724   6.389   5.085  1.00 27.80     0.274 C 
HETATM   29  N8    D T   1      15.800   7.062   5.830  1.00 28.55     0.143 N 
HETATM   30  C29   D T   1      15.282   8.031   6.808  1.00 28.15     0.274 C 
HETATM   31  C31   D T   1      16.305   6.007   6.694  1.00 29.41     0.286 C 
HETATM   32  C30   D T   1      14.844   9.183   5.907  1.00 25.70     0.137 C 
ENDBRANCH  23  26
ENDBRANCH  19  20
ENDBRANCH   1  19
BRANCH   9  33
HETATM   33  C19   D T   1       5.666  15.462  -1.823  1.00  9.46     0.076 A 
HETATM   34  C20   D T   1       5.564  14.851  -3.148  1.00  9.11    -0.005 A 
HETATM   35  C21   D T   1       5.126  15.655  -4.280  1.00  9.01    -0.003 A 
HETATM   36  C26   D T   1       5.940  13.391  -3.304  1.00  8.02     0.033 C 
HETATM   37  C22   D T   1       4.778  17.036  -4.155  1.00  9.80    -0.001 A 
HETATM   38  C23   D T   1       4.893  17.577  -2.851  1.00 10.49    -0.003 A 
HETATM   39  C24   D T   1       5.324  16.854  -1.675  1.00 10.01    -0.005 A 
HETATM   40  C25   D T   1       5.450  17.585  -0.356  1.00 10.21     0.033 C 
ENDBRANCH   9  33
TORSDOF 4
ENDMDL
MODEL 9
REMARK VINA RESULT:    -9.071      3.800      6.397
REMARK INTER + INTRA:         -11.675
REMARK INTER:                 -10.475
REMARK INTRA:                  -1.200
REMARK UNBOUND:                -0.482
REMARK  4 active torsions:
REMARK  status: ('A' for Active; 'I' for Inactive)
REMARK    1  A    between atoms: C1_1  and  N3_7 
REMARK    2  A    between atoms: N3_7  and  C5_8 
REMARK    3  A    between atoms: C8_11  and  N7_34 
REMARK    4  A    between atoms: N5_16  and  C19_26 
ROOT
HETATM    1  C1    D T   1       5.810  15.467  -1.601  1.00  8.98     0.751 A 
HETATM    2  N1    D T   1       7.154  15.751  -1.593  1.00  8.90    -0.041 NA
HETATM    3  C2    D T   1       7.790  16.402  -2.587  1.00  9.32     0.188 A 
HETATM    4  C3    D T   1       6.932  16.813  -3.731  1.00  8.55     0.112 A 
HETATM    5  C4    D T   1       5.491  16.533  -3.756  1.00 10.16     0.126 A 
HETATM    6  N2    D T   1       4.998  15.855  -2.665  1.00  8.40    -0.057 NA
HETATM    7  N4    D T   1       9.239  16.621  -2.527  1.00 10.02    -0.124 N 
HETATM    8  C11   D T   1       9.955  17.252  -3.525  1.00  8.08     0.723 A 
HETATM    9  N5    D T   1       9.204  17.691  -4.647  1.00  9.52    -0.107 N 
HETATM   10  C12   D T   1       7.743  17.448  -4.723  1.00  8.74     0.283 A 
HETATM   11  C13   D T   1      10.265  16.289  -1.576  1.00  8.60     0.093 A 
HETATM   12  C14   D T   1      11.594  16.718  -2.044  1.00  8.87     0.094 A 
HETATM   13  N6    D T   1      11.360  17.317  -3.258  1.00  8.74    -0.065 NA
HETATM   14  C15   D T   1      10.250  15.601  -0.265  1.00  8.67    -0.007 A 
HETATM   15  C16   D T   1      11.452  15.346   0.545  1.00 10.01     0.028 A 
HETATM   16  C17   D T   1      12.722  15.794   0.013  1.00  8.30     0.011 A 
HETATM   17  C18   D T   1      12.823  16.473  -1.260  1.00  8.80     0.048 A 
HETATM   18  O1    D T   1       7.091  17.704  -5.727  1.00  9.45    -0.266 OA
ENDROOT
BRANCH   1  19
HETATM   19  N3    D T   1       5.307  14.717  -0.548  1.00 10.50    -0.059 NA
BRANCH  19  20
HETATM   20  C5    D T   1       5.887  13.671   0.216  1.00 13.72     0.096 A 
HETATM   21  C6    D T   1       6.861  12.755  -0.407  1.00 16.17     0.021 A 
HETATM   22  C7    D T   1       7.549  11.777   0.346  1.00 18.76     0.014 A 
HETATM   23  C8    D T   1       7.208  11.765   1.736  1.00 19.63     0.038 A 
HETATM   24  C9    D T   1       6.215  12.651   2.410  1.00 18.58     0.071 A 
HETATM   25  C10   D T   1       5.535  13.630   1.617  1.00 14.74    -0.000 A 
BRANCH  23  26
HETATM   26  N7    D T   1       8.000  10.845   2.377  1.00 23.52    -0.347 N 
HETATM   27  C27   D T   1       7.427  10.260   3.563  1.00 25.21     0.137 C 
HETATM   28  C28   D T   1       8.466  10.199   4.675  1.00 27.80     0.274 C 
HETATM   29  N8    D T   1       9.689   9.630   4.086  1.00 28.55     0.143 N 
HETATM   30  C29   D T   1      10.316  10.537   3.112  1.00 28.15     0.274 C 
HETATM   31  C31   D T   1      10.634   9.680   5.190  1.00 29.41     0.286 C 
HETATM   32  C30   D T   1       9.378  10.407   1.914  1.00 25.70     0.137 C 
ENDBRANCH  23  26
ENDBRANCH  19  20
ENDBRANCH   1  19
BRANCH   9  33
HETATM   33  C19   D T   1       9.823  18.426  -5.622  1.00  9.46     0.076 A 
HETATM   34  C20   D T   1      10.504  17.759  -6.732  1.00  9.11    -0.005 A 
HETATM   35  C21   D T   1      11.166  18.557  -7.754  1.00  9.01    -0.003 A 
HETATM   36  C26   D T   1      10.513  16.244  -6.771  1.00  8.02     0.033 C 
HETATM   37  C22   D T   1      11.177  19.986  -7.728  1.00  9.80    -0.001 A 
HETATM   38  C23   D T   1      10.503  20.581  -6.634  1.00 10.49    -0.003 A 
HETATM   39  C24   D T   1       9.826  19.866  -5.574  1.00 10.01    -0.005 A 
HETATM   40  C25   D T   1       9.196  20.642  -4.438  1.00 10.21     0.033 C 
ENDBRANCH   9  33
TORSDOF 4
ENDMDL
