MODEL 1
REMARK VINA RESULT:    -4.778      0.000      0.000
REMARK INTER + INTRA:          -9.792
REMARK INTER:                  -7.570
REMARK INTRA:                  -2.221
REMARK UNBOUND:                -2.221
REMARK  20 active torsions:
REMARK  status: ('A' for Active; 'I' for Inactive)
REMARK    1  A    between atoms: C1_1  and  O1_20 
REMARK    2  A    between atoms: C4_4  and  C9_9 
REMARK    3  A    between atoms: C7_7  and  C8_8 
REMARK    4  A    between atoms: C7_7  and  O1_20 
REMARK    5  A    between atoms: C8_8  and  C10_10 
REMARK    6  A    between atoms: C10_10  and  C8'_18 
REMARK    7  A    between atoms: C1'_11  and  O1'_21 
REMARK    8  A    between atoms: C4'_14  and  C9'_19 
REMARK    9  A    between atoms: C7'_17  and  C8'_18 
REMARK   10  A    between atoms: C7'_17  and  O1'_21 
REMARK   11  A    between atoms: C1_26  and  O1_45 
REMARK   12  A    between atoms: C4_29  and  C9_34 
REMARK   13  A    between atoms: C7_32  and  C8_33 
REMARK   14  A    between atoms: C7_32  and  O1_45 
REMARK   15  A    between atoms: C8_33  and  C10_35 
REMARK   16  A    between atoms: C10_35  and  C8'_43 
REMARK   17  A    between atoms: C1'_36  and  O1'_46 
REMARK   18  A    between atoms: C4'_39  and  C9'_44 
REMARK   19  A    between atoms: C7'_42  and  C8'_43 
REMARK   20  A    between atoms: C7'_42  and  O1'_46 
ROOT
HETATM    1  C10   D T 101       0.502   2.688   2.997  0.50 43.26     0.005 C 
ENDROOT
BRANCH   1   2
HETATM    2  C8    D T 101       0.871   4.156   3.209  0.50 44.23     0.033 C 
BRANCH   2   3
HETATM    3  C7    D T 101       0.790   4.941   1.900  0.50 45.07     0.149 C 
BRANCH   3   4
HETATM    4  O1    D T 101       0.265   6.260   2.087  0.50 45.77    -0.331 OA
BRANCH   4   5
HETATM    5  C1    D T 101       0.407   7.205   1.094  0.50 45.59     0.094 A 
HETATM    6  C2    D T 101       0.553   8.554   1.422  0.50 45.41     0.024 A 
HETATM    7  C3    D T 101       0.701   9.508   0.412  0.50 45.63     0.005 A 
HETATM    8  C4    D T 101       0.701   9.125  -0.934  0.50 45.70     0.040 A 
HETATM    9  C5    D T 101       0.551   7.776  -1.252  0.50 45.73     0.005 A 
HETATM   10  C6    D T 101       0.405   6.821  -0.247  0.50 45.57     0.024 A 
BRANCH   8  11
HETATM   11  C9    D T 101       0.850  10.151  -2.034  0.50 45.61     0.205 C 
HETATM   12  N1    D T 101      -0.140  10.506  -2.730  0.50 44.78    -0.125 N 
HETATM   13  N2    D T 101       2.041  10.691  -2.295  0.50 45.85    -0.125 N 
ENDBRANCH   8  11
ENDBRANCH   4   5
ENDBRANCH   3   4
ENDBRANCH   2   3
ENDBRANCH   1   2
BRANCH   1  14
HETATM   14  C8'   D T 101      -1.009   2.470   3.002  0.50 42.61     0.033 C 
BRANCH  14  15
HETATM   15  C7'   D T 101      -1.751   3.357   4.003  0.50 41.92     0.149 C 
BRANCH  15  16
HETATM   16  O1'   D T 101      -2.922   3.938   3.418  0.50 41.20    -0.331 OA
BRANCH  16  17
HETATM   17  C1'   D T 101      -2.971   5.213   2.904  0.50 40.56     0.094 A 
HETATM   18  C2'   D T 101      -2.787   6.323   3.723  0.50 40.10     0.024 A 
HETATM   19  C3'   D T 101      -2.850   7.609   3.198  0.50 39.98     0.005 A 
HETATM   20  C4'   D T 101      -3.088   7.802   1.840  0.50 40.28     0.040 A 
HETATM   21  C5'   D T 101      -3.276   6.692   1.011  0.50 40.14     0.005 A 
HETATM   22  C6'   D T 101      -3.219   5.403   1.542  0.50 40.31     0.024 A 
BRANCH  20  23
HETATM   23  C9'   D T 101      -3.148   9.202   1.289  0.50 40.31     0.205 C 
HETATM   24  N1'   D T 101      -2.818   9.426   0.094  0.50 39.70    -0.125 N 
HETATM   25  N2'   D T 101      -3.553  10.217   2.052  0.50 40.00    -0.125 N 
ENDBRANCH  20  23
ENDBRANCH  16  17
ENDBRANCH  15  16
ENDBRANCH  14  15
ENDBRANCH   1  14
TORSDOF 20
ENDMDL
MODEL 2
REMARK VINA RESULT:    -4.743      4.031      7.054
REMARK INTER + INTRA:          -9.738
REMARK INTER:                  -6.905
REMARK INTRA:                  -2.832
REMARK UNBOUND:                -2.221
REMARK  20 active torsions:
REMARK  status: ('A' for Active; 'I' for Inactive)
REMARK    1  A    between atoms: C1_1  and  O1_20 
REMARK    2  A    between atoms: C4_4  and  C9_9 
REMARK    3  A    between atoms: C7_7  and  C8_8 
REMARK    4  A    between atoms: C7_7  and  O1_20 
REMARK    5  A    between atoms: C8_8  and  C10_10 
REMARK    6  A    between atoms: C10_10  and  C8'_18 
REMARK    7  A    between atoms: C1'_11  and  O1'_21 
REMARK    8  A    between atoms: C4'_14  and  C9'_19 
REMARK    9  A    between atoms: C7'_17  and  C8'_18 
REMARK   10  A    between atoms: C7'_17  and  O1'_21 
REMARK   11  A    between atoms: C1_26  and  O1_45 
REMARK   12  A    between atoms: C4_29  and  C9_34 
REMARK   13  A    between atoms: C7_32  and  C8_33 
REMARK   14  A    between atoms: C7_32  and  O1_45 
REMARK   15  A    between atoms: C8_33  and  C10_35 
REMARK   16  A    between atoms: C10_35  and  C8'_43 
REMARK   17  A    between atoms: C1'_36  and  O1'_46 
REMARK   18  A    between atoms: C4'_39  and  C9'_44 
REMARK   19  A    between atoms: C7'_42  and  C8'_43 
REMARK   20  A    between atoms: C7'_42  and  O1'_46 
ROOT
HETATM    1  C10   D T 101      -2.403   9.829   1.333  0.50 43.26     0.005 C 
ENDROOT
BRANCH   1   2
HETATM    2  C8    D T 101      -3.305  10.388   2.433  0.50 44.23     0.033 C 
BRANCH   2   3
HETATM    3  C7    D T 101      -4.185   9.293   3.037  0.50 45.07     0.149 C 
BRANCH   3   4
HETATM    4  O1    D T 101      -4.055   8.046   2.346  0.50 45.77    -0.331 OA
BRANCH   4   5
HETATM    5  C1    D T 101      -3.665   6.916   3.032  0.50 45.59     0.094 A 
HETATM    6  C2    D T 101      -4.373   5.722   2.880  0.50 45.41     0.024 A 
HETATM    7  C3    D T 101      -3.971   4.578   3.575  0.50 45.63     0.005 A 
HETATM    8  C4    D T 101      -2.862   4.615   4.427  0.50 45.70     0.040 A 
HETATM    9  C5    D T 101      -2.163   5.812   4.573  0.50 45.73     0.005 A 
HETATM   10  C6    D T 101      -2.560   6.956   3.882  0.50 45.57     0.024 A 
BRANCH   8  11
HETATM   11  C9    D T 101      -2.426   3.384   5.188  0.50 45.61     0.205 C 
HETATM   12  N1    D T 101      -1.353   3.377   5.851  0.50 44.78    -0.125 N 
HETATM   13  N2    D T 101      -3.167   2.277   5.161  0.50 45.85    -0.125 N 
ENDBRANCH   8  11
ENDBRANCH   4   5
ENDBRANCH   3   4
ENDBRANCH   2   3
ENDBRANCH   1   2
BRANCH   1  14
HETATM   14  C8'   D T 101      -0.951   9.704   1.789  0.50 42.61     0.033 C 
BRANCH  14  15
HETATM   15  C7'   D T 101      -0.037   9.057   0.747  0.50 41.92     0.149 C 
BRANCH  15  16
HETATM   16  O1'   D T 101      -0.601   7.840   0.244  0.50 41.20    -0.331 OA
BRANCH  16  17
HETATM   17  C1'   D T 101      -0.411   6.608   0.827  0.50 40.56     0.094 A 
HETATM   18  C2'   D T 101       0.691   6.364   1.642  0.50 40.10     0.024 A 
HETATM   19  C3'   D T 101       0.882   5.113   2.218  0.50 39.98     0.005 A 
HETATM   20  C4'   D T 101      -0.035   4.089   1.995  0.50 40.28     0.040 A 
HETATM   21  C5'   D T 101      -1.143   4.326   1.176  0.50 40.14     0.005 A 
HETATM   22  C6'   D T 101      -1.329   5.581   0.594  0.50 40.31     0.024 A 
BRANCH  20  23
HETATM   23  C9'   D T 101       0.187   2.743   2.632  0.50 40.31     0.205 C 
HETATM   24  N1'   D T 101      -0.687   1.842   2.527  0.50 39.70    -0.125 N 
HETATM   25  N2'   D T 101       1.308   2.485   3.306  0.50 40.00    -0.125 N 
ENDBRANCH  20  23
ENDBRANCH  16  17
ENDBRANCH  15  16
ENDBRANCH  14  15
ENDBRANCH   1  14
TORSDOF 20
ENDMDL
MODEL 3
REMARK VINA RESULT:    -4.730      1.473      2.151
REMARK INTER + INTRA:          -9.716
REMARK INTER:                  -7.133
REMARK INTRA:                  -2.583
REMARK UNBOUND:                -2.221
REMARK  20 active torsions:
REMARK  status: ('A' for Active; 'I' for Inactive)
REMARK    1  A    between atoms: C1_1  and  O1_20 
REMARK    2  A    between atoms: C4_4  and  C9_9 
REMARK    3  A    between atoms: C7_7  and  C8_8 
REMARK    4  A    between atoms: C7_7  and  O1_20 
REMARK    5  A    between atoms: C8_8  and  C10_10 
REMARK    6  A    between atoms: C10_10  and  C8'_18 
REMARK    7  A    between atoms: C1'_11  and  O1'_21 
REMARK    8  A    between atoms: C4'_14  and  C9'_19 
REMARK    9  A    between atoms: C7'_17  and  C8'_18 
REMARK   10  A    between atoms: C7'_17  and  O1'_21 
REMARK   11  A    between atoms: C1_26  and  O1_45 
REMARK   12  A    between atoms: C4_29  and  C9_34 
REMARK   13  A    between atoms: C7_32  and  C8_33 
REMARK   14  A    between atoms: C7_32  and  O1_45 
REMARK   15  A    between atoms: C8_33  and  C10_35 
REMARK   16  A    between atoms: C10_35  and  C8'_43 
REMARK   17  A    between atoms: C1'_36  and  O1'_46 
REMARK   18  A    between atoms: C4'_39  and  C9'_44 
REMARK   19  A    between atoms: C7'_42  and  C8'_43 
REMARK   20  A    between atoms: C7'_42  and  O1'_46 
ROOT
HETATM    1  C10   D T 101      -1.945   2.656   4.249  0.50 43.26     0.005 C 
ENDROOT
BRANCH   1   2
HETATM    2  C8    D T 101      -0.666   3.377   4.672  0.50 44.23     0.033 C 
BRANCH   2   3
HETATM    3  C7    D T 101       0.408   3.280   3.588  0.50 45.07     0.149 C 
BRANCH   3   4
HETATM    4  O1    D T 101      -0.134   3.418   2.270  0.50 45.77    -0.331 OA
BRANCH   4   5
HETATM    5  C1    D T 101       0.026   4.599   1.578  0.50 45.59     0.094 A 
HETATM    6  C2    D T 101       1.132   5.415   1.826  0.50 45.41     0.024 A 
HETATM    7  C3    D T 101       1.292   6.610   1.120  0.50 45.63     0.005 A 
HETATM    8  C4    D T 101       0.350   7.002   0.162  0.50 45.70     0.040 A 
HETATM    9  C5    D T 101      -0.752   6.182  -0.077  0.50 45.73     0.005 A 
HETATM   10  C6    D T 101      -0.915   4.989   0.625  0.50 45.57     0.024 A 
BRANCH   8  11
HETATM   11  C9    D T 101       0.511   8.297  -0.600  0.50 45.61     0.205 C 
HETATM   12  N1    D T 101       0.259   8.360  -1.835  0.50 44.78    -0.125 N 
HETATM   13  N2    D T 101       0.935   9.397   0.022  0.50 45.85    -0.125 N 
ENDBRANCH   8  11
ENDBRANCH   4   5
ENDBRANCH   3   4
ENDBRANCH   2   3
ENDBRANCH   1   2
BRANCH   1  14
HETATM   14  C8'   D T 101      -3.038   2.755   5.312  0.50 42.61     0.033 C 
BRANCH  14  15
HETATM   15  C7'   D T 101      -3.928   3.990   5.158  0.50 41.92     0.149 C 
BRANCH  15  16
HETATM   16  O1'   D T 101      -4.132   4.316   3.778  0.50 41.20    -0.331 OA
BRANCH  16  17
HETATM   17  C1'   D T 101      -3.731   5.501   3.203  0.50 40.56     0.094 A 
HETATM   18  C2'   D T 101      -2.699   6.253   3.757  0.50 40.10     0.024 A 
HETATM   19  C3'   D T 101      -2.308   7.454   3.176  0.50 39.98     0.005 A 
HETATM   20  C4'   D T 101      -2.940   7.915   2.024  0.50 40.28     0.040 A 
HETATM   21  C5'   D T 101      -3.979   7.167   1.463  0.50 40.14     0.005 A 
HETATM   22  C6'   D T 101      -4.373   5.964   2.052  0.50 40.31     0.024 A 
BRANCH  20  23
HETATM   23  C9'   D T 101      -2.499   9.216   1.407  0.50 40.31     0.205 C 
HETATM   24  N1'   D T 101      -2.850   9.511   0.234  0.50 39.70    -0.125 N 
HETATM   25  N2'   D T 101      -1.740  10.072   2.092  0.50 40.00    -0.125 N 
ENDBRANCH  20  23
ENDBRANCH  16  17
ENDBRANCH  15  16
ENDBRANCH  14  15
ENDBRANCH   1  14
TORSDOF 20
ENDMDL
MODEL 4
REMARK VINA RESULT:    -4.630      1.967      3.170
REMARK INTER + INTRA:          -9.559
REMARK INTER:                  -6.601
REMARK INTRA:                  -2.957
REMARK UNBOUND:                -2.221
REMARK  20 active torsions:
REMARK  status: ('A' for Active; 'I' for Inactive)
REMARK    1  A    between atoms: C1_1  and  O1_20 
REMARK    2  A    between atoms: C4_4  and  C9_9 
REMARK    3  A    between atoms: C7_7  and  C8_8 
REMARK    4  A    between atoms: C7_7  and  O1_20 
REMARK    5  A    between atoms: C8_8  and  C10_10 
REMARK    6  A    between atoms: C10_10  and  C8'_18 
REMARK    7  A    between atoms: C1'_11  and  O1'_21 
REMARK    8  A    between atoms: C4'_14  and  C9'_19 
REMARK    9  A    between atoms: C7'_17  and  C8'_18 
REMARK   10  A    between atoms: C7'_17  and  O1'_21 
REMARK   11  A    between atoms: C1_26  and  O1_45 
REMARK   12  A    between atoms: C4_29  and  C9_34 
REMARK   13  A    between atoms: C7_32  and  C8_33 
REMARK   14  A    between atoms: C7_32  and  O1_45 
REMARK   15  A    between atoms: C8_33  and  C10_35 
REMARK   16  A    between atoms: C10_35  and  C8'_43 
REMARK   17  A    between atoms: C1'_36  and  O1'_46 
REMARK   18  A    between atoms: C4'_39  and  C9'_44 
REMARK   19  A    between atoms: C7'_42  and  C8'_43 
REMARK   20  A    between atoms: C7'_42  and  O1'_46 
ROOT
HETATM    1  C10   D T 101       0.135   3.206   5.259  0.50 43.26     0.005 C 
ENDROOT
BRANCH   1   2
HETATM    2  C8    D T 101      -1.253   3.558   4.722  0.50 44.23     0.033 C 
BRANCH   2   3
HETATM    3  C7    D T 101      -1.423   3.087   3.278  0.50 45.07     0.149 C 
BRANCH   3   4
HETATM    4  O1    D T 101      -0.239   3.284   2.497  0.50 45.77    -0.331 OA
BRANCH   4   5
HETATM    5  C1    D T 101      -0.069   4.452   1.786  0.50 45.59     0.094 A 
HETATM    6  C2    D T 101      -1.045   4.875   0.881  0.50 45.41     0.024 A 
HETATM    7  C3    D T 101      -0.870   6.062   0.166  0.50 45.63     0.005 A 
HETATM    8  C4    D T 101       0.281   6.837   0.346  0.50 45.70     0.040 A 
HETATM    9  C5    D T 101       1.251   6.406   1.249  0.50 45.73     0.005 A 
HETATM   10  C6    D T 101       1.080   5.222   1.965  0.50 45.57     0.024 A 
BRANCH   8  11
HETATM   11  C9    D T 101       0.483   8.118  -0.431  0.50 45.61     0.205 C 
HETATM   12  N1    D T 101       0.781   9.194   0.157  0.50 44.78    -0.125 N 
HETATM   13  N2    D T 101       0.336   8.134  -1.755  0.50 45.85    -0.125 N 
ENDBRANCH   8  11
ENDBRANCH   4   5
ENDBRANCH   3   4
ENDBRANCH   2   3
ENDBRANCH   1   2
BRANCH   1  14
HETATM   14  C8'   D T 101       0.933   4.450   5.646  0.50 42.61     0.033 C 
BRANCH  14  15
HETATM   15  C7'   D T 101       0.055   5.637   6.047  0.50 41.92     0.149 C 
BRANCH  15  16
HETATM   16  O1'   D T 101       0.462   6.836   5.378  0.50 41.20    -0.331 OA
BRANCH  16  17
HETATM   17  C1'   D T 101      -0.325   7.519   4.480  0.50 40.56     0.094 A 
HETATM   18  C2'   D T 101      -1.520   6.975   4.017  0.50 40.10     0.024 A 
HETATM   19  C3'   D T 101      -2.304   7.667   3.101  0.50 39.98     0.005 A 
HETATM   20  C4'   D T 101      -1.908   8.921   2.642  0.50 40.28     0.040 A 
HETATM   21  C5'   D T 101      -0.709   9.473   3.101  0.50 40.14     0.005 A 
HETATM   22  C6'   D T 101       0.079   8.773   4.016  0.50 40.31     0.024 A 
BRANCH  20  23
HETATM   23  C9'   D T 101      -2.774   9.656   1.654  0.50 40.31     0.205 C 
HETATM   24  N1'   D T 101      -3.455  10.649   2.026  0.50 39.70    -0.125 N 
HETATM   25  N2'   D T 101      -2.829   9.273   0.378  0.50 40.00    -0.125 N 
ENDBRANCH  20  23
ENDBRANCH  16  17
ENDBRANCH  15  16
ENDBRANCH  14  15
ENDBRANCH   1  14
TORSDOF 20
ENDMDL
MODEL 5
REMARK VINA RESULT:    -4.511      3.843      5.687
REMARK INTER + INTRA:          -9.369
REMARK INTER:                  -6.956
REMARK INTRA:                  -2.413
REMARK UNBOUND:                -2.221
REMARK  20 active torsions:
REMARK  status: ('A' for Active; 'I' for Inactive)
REMARK    1  A    between atoms: C1_1  and  O1_20 
REMARK    2  A    between atoms: C4_4  and  C9_9 
REMARK    3  A    between atoms: C7_7  and  C8_8 
REMARK    4  A    between atoms: C7_7  and  O1_20 
REMARK    5  A    between atoms: C8_8  and  C10_10 
REMARK    6  A    between atoms: C10_10  and  C8'_18 
REMARK    7  A    between atoms: C1'_11  and  O1'_21 
REMARK    8  A    between atoms: C4'_14  and  C9'_19 
REMARK    9  A    between atoms: C7'_17  and  C8'_18 
REMARK   10  A    between atoms: C7'_17  and  O1'_21 
REMARK   11  A    between atoms: C1_26  and  O1_45 
REMARK   12  A    between atoms: C4_29  and  C9_34 
REMARK   13  A    between atoms: C7_32  and  C8_33 
REMARK   14  A    between atoms: C7_32  and  O1_45 
REMARK   15  A    between atoms: C8_33  and  C10_35 
REMARK   16  A    between atoms: C10_35  and  C8'_43 
REMARK   17  A    between atoms: C1'_36  and  O1'_46 
REMARK   18  A    between atoms: C4'_39  and  C9'_44 
REMARK   19  A    between atoms: C7'_42  and  C8'_43 
REMARK   20  A    between atoms: C7'_42  and  O1'_46 
ROOT
HETATM    1  C10   D T 101      -1.627   9.329   0.597  0.50 43.26     0.005 C 
ENDROOT
BRANCH   1   2
HETATM    2  C8    D T 101      -0.982   9.419  -0.786  0.50 44.23     0.033 C 
BRANCH   2   3
HETATM    3  C7    D T 101       0.463   8.921  -0.757  0.50 45.07     0.149 C 
BRANCH   3   4
HETATM    4  O1    D T 101       0.563   7.520  -1.034  0.50 45.77    -0.331 OA
BRANCH   4   5
HETATM    5  C1    D T 101       0.397   6.602  -0.019  0.50 45.59     0.094 A 
HETATM    6  C2    D T 101       1.330   6.522   1.016  0.50 45.41     0.024 A 
HETATM    7  C3    D T 101       1.155   5.592   2.045  0.50 45.63     0.005 A 
HETATM    8  C4    D T 101       0.049   4.735   2.048  0.50 45.70     0.040 A 
HETATM    9  C5    D T 101      -0.876   4.821   1.009  0.50 45.73     0.005 A 
HETATM   10  C6    D T 101      -0.706   5.747  -0.019  0.50 45.57     0.024 A 
BRANCH   8  11
HETATM   11  C9    D T 101      -0.143   3.720   3.152  0.50 45.61     0.205 C 
HETATM   12  N1    D T 101      -1.033   2.830   3.068  0.50 44.78    -0.125 N 
HETATM   13  N2    D T 101       0.621   3.759   4.244  0.50 45.85    -0.125 N 
ENDBRANCH   8  11
ENDBRANCH   4   5
ENDBRANCH   3   4
ENDBRANCH   2   3
ENDBRANCH   1   2
BRANCH   1  14
HETATM   14  C8'   D T 101      -0.613   9.551   1.718  0.50 42.61     0.033 C 
BRANCH  14  15
HETATM   15  C7'   D T 101      -0.965   8.814   3.012  0.50 41.92     0.149 C 
BRANCH  15  16
HETATM   16  O1'   D T 101      -2.312   8.328   2.986  0.50 41.20    -0.331 OA
BRANCH  16  17
HETATM   17  C1'   D T 101      -2.705   7.128   3.532  0.50 40.56     0.094 A 
HETATM   18  C2'   D T 101      -2.238   6.721   4.778  0.50 40.10     0.024 A 
HETATM   19  C3'   D T 101      -2.632   5.502   5.319  0.50 39.98     0.005 A 
HETATM   20  C4'   D T 101      -3.509   4.675   4.621  0.50 40.28     0.040 A 
HETATM   21  C5'   D T 101      -3.980   5.076   3.368  0.50 40.14     0.005 A 
HETATM   22  C6'   D T 101      -3.578   6.297   2.825  0.50 40.31     0.024 A 
BRANCH  20  23
HETATM   23  C9'   D T 101      -3.927   3.361   5.225  0.50 40.31     0.205 C 
HETATM   24  N1'   D T 101      -3.849   3.184   6.470  0.50 39.70    -0.125 N 
HETATM   25  N2'   D T 101      -4.389   2.374   4.458  0.50 40.00    -0.125 N 
ENDBRANCH  20  23
ENDBRANCH  16  17
ENDBRANCH  15  16
ENDBRANCH  14  15
ENDBRANCH   1  14
TORSDOF 20
ENDMDL
MODEL 6
REMARK VINA RESULT:    -4.469      4.006      6.142
REMARK INTER + INTRA:          -9.303
REMARK INTER:                  -6.265
REMARK INTRA:                  -3.037
REMARK UNBOUND:                -2.221
REMARK  20 active torsions:
REMARK  status: ('A' for Active; 'I' for Inactive)
REMARK    1  A    between atoms: C1_1  and  O1_20 
REMARK    2  A    between atoms: C4_4  and  C9_9 
REMARK    3  A    between atoms: C7_7  and  C8_8 
REMARK    4  A    between atoms: C7_7  and  O1_20 
REMARK    5  A    between atoms: C8_8  and  C10_10 
REMARK    6  A    between atoms: C10_10  and  C8'_18 
REMARK    7  A    between atoms: C1'_11  and  O1'_21 
REMARK    8  A    between atoms: C4'_14  and  C9'_19 
REMARK    9  A    between atoms: C7'_17  and  C8'_18 
REMARK   10  A    between atoms: C7'_17  and  O1'_21 
REMARK   11  A    between atoms: C1_26  and  O1_45 
REMARK   12  A    between atoms: C4_29  and  C9_34 
REMARK   13  A    between atoms: C7_32  and  C8_33 
REMARK   14  A    between atoms: C7_32  and  O1_45 
REMARK   15  A    between atoms: C8_33  and  C10_35 
REMARK   16  A    between atoms: C10_35  and  C8'_43 
REMARK   17  A    between atoms: C1'_36  and  O1'_46 
REMARK   18  A    between atoms: C4'_39  and  C9'_44 
REMARK   19  A    between atoms: C7'_42  and  C8'_43 
REMARK   20  A    between atoms: C7'_42  and  O1'_46 
ROOT
HETATM    1  C10   D T 101       0.389   9.360  -0.395  0.50 43.26     0.005 C 
ENDROOT
BRANCH   1   2
HETATM    2  C8    D T 101       0.825   8.211  -1.305  0.50 44.23     0.033 C 
BRANCH   2   3
HETATM    3  C7    D T 101       0.945   6.902  -0.524  0.50 45.07     0.149 C 
BRANCH   3   4
HETATM    4  O1    D T 101      -0.249   6.115  -0.593  0.50 45.77    -0.331 OA
BRANCH   4   5
HETATM    5  C1    D T 101      -0.756   5.530   0.547  0.50 45.59     0.094 A 
HETATM    6  C2    D T 101      -2.128   5.563   0.804  0.50 45.41     0.024 A 
HETATM    7  C3    D T 101      -2.638   4.965   1.960  0.50 45.63     0.005 A 
HETATM    8  C4    D T 101      -1.783   4.332   2.869  0.50 45.70     0.040 A 
HETATM    9  C5    D T 101      -0.415   4.306   2.605  0.50 45.73     0.005 A 
HETATM   10  C6    D T 101       0.098   4.901   1.453  0.50 45.57     0.024 A 
BRANCH   8  11
HETATM   11  C9    D T 101      -2.325   3.691   4.126  0.50 45.61     0.205 C 
HETATM   12  N1    D T 101      -3.546   3.786   4.429  0.50 44.78    -0.125 N 
HETATM   13  N2    D T 101      -1.514   3.021   4.945  0.50 45.85    -0.125 N 
ENDBRANCH   8  11
ENDBRANCH   4   5
ENDBRANCH   3   4
ENDBRANCH   2   3
ENDBRANCH   1   2
BRANCH   1  14
HETATM   14  C8'   D T 101      -1.132   9.484  -0.317  0.50 42.61     0.033 C 
BRANCH  14  15
HETATM   15  C7'   D T 101      -1.686   9.300   1.098  0.50 41.92     0.149 C 
BRANCH  15  16
HETATM   16  O1'   D T 101      -0.669   8.856   2.003  0.50 41.20    -0.331 OA
BRANCH  16  17
HETATM   17  C1'   D T 101      -0.927   8.212   3.191  0.50 40.56     0.094 A 
HETATM   18  C2'   D T 101       0.105   7.674   3.953  0.50 40.10     0.024 A 
HETATM   19  C3'   D T 101      -0.165   7.014   5.146  0.50 39.98     0.005 A 
HETATM   20  C4'   D T 101      -1.476   6.893   5.601  0.50 40.28     0.040 A 
HETATM   21  C5'   D T 101      -2.518   7.429   4.840  0.50 40.14     0.005 A 
HETATM   22  C6'   D T 101      -2.244   8.085   3.638  0.50 40.31     0.024 A 
BRANCH  20  23
HETATM   23  C9'   D T 101      -1.747   6.180   6.898  0.50 40.31     0.205 C 
HETATM   24  N1'   D T 101      -0.799   5.663   7.546  0.50 39.70    -0.125 N 
HETATM   25  N2'   D T 101      -2.987   6.091   7.381  0.50 40.00    -0.125 N 
ENDBRANCH  20  23
ENDBRANCH  16  17
ENDBRANCH  15  16
ENDBRANCH  14  15
ENDBRANCH   1  14
TORSDOF 20
ENDMDL
MODEL 7
REMARK VINA RESULT:    -4.431      2.063      4.939
REMARK INTER + INTRA:          -9.243
REMARK INTER:                  -7.037
REMARK INTRA:                  -2.206
REMARK UNBOUND:                -2.221
REMARK  20 active torsions:
REMARK  status: ('A' for Active; 'I' for Inactive)
REMARK    1  A    between atoms: C1_1  and  O1_20 
REMARK    2  A    between atoms: C4_4  and  C9_9 
REMARK    3  A    between atoms: C7_7  and  C8_8 
REMARK    4  A    between atoms: C7_7  and  O1_20 
REMARK    5  A    between atoms: C8_8  and  C10_10 
REMARK    6  A    between atoms: C10_10  and  C8'_18 
REMARK    7  A    between atoms: C1'_11  and  O1'_21 
REMARK    8  A    between atoms: C4'_14  and  C9'_19 
REMARK    9  A    between atoms: C7'_17  and  C8'_18 
REMARK   10  A    between atoms: C7'_17  and  O1'_21 
REMARK   11  A    between atoms: C1_26  and  O1_45 
REMARK   12  A    between atoms: C4_29  and  C9_34 
REMARK   13  A    between atoms: C7_32  and  C8_33 
REMARK   14  A    between atoms: C7_32  and  O1_45 
REMARK   15  A    between atoms: C8_33  and  C10_35 
REMARK   16  A    between atoms: C10_35  and  C8'_43 
REMARK   17  A    between atoms: C1'_36  and  O1'_46 
REMARK   18  A    between atoms: C4'_39  and  C9'_44 
REMARK   19  A    between atoms: C7'_42  and  C8'_43 
REMARK   20  A    between atoms: C7'_42  and  O1'_46 
ROOT
HETATM    1  C10   D T 101      -2.415   4.864   2.600  0.50 43.26     0.005 C 
ENDROOT
BRANCH   1   2
HETATM    2  C8    D T 101      -2.409   5.226   1.115  0.50 44.23     0.033 C 
BRANCH   2   3
HETATM    3  C7    D T 101      -2.897   6.658   0.893  0.50 45.07     0.149 C 
BRANCH   3   4
HETATM    4  O1    D T 101      -3.383   7.261   2.097  0.50 45.77    -0.331 OA
BRANCH   4   5
HETATM    5  C1    D T 101      -2.768   8.386   2.602  0.50 45.59     0.094 A 
HETATM    6  C2    D T 101      -2.125   8.341   3.840  0.50 45.41     0.024 A 
HETATM    7  C3    D T 101      -1.499   9.483   4.346  0.50 45.63     0.005 A 
HETATM    8  C4    D T 101      -1.511  10.681   3.621  0.50 45.70     0.040 A 
HETATM    9  C5    D T 101      -2.158  10.717   2.387  0.50 45.73     0.005 A 
HETATM   10  C6    D T 101      -2.783   9.579   1.879  0.50 45.57     0.024 A 
BRANCH   8  11
HETATM   11  C9    D T 101      -0.845  11.924   4.165  0.50 45.61     0.205 C 
HETATM   12  N1    D T 101      -0.148  11.880   5.216  0.50 44.78    -0.125 N 
HETATM   13  N2    D T 101      -0.994  13.095   3.546  0.50 45.85    -0.125 N 
ENDBRANCH   8  11
ENDBRANCH   4   5
ENDBRANCH   3   4
ENDBRANCH   2   3
ENDBRANCH   1   2
BRANCH   1  14
HETATM   14  C8'   D T 101      -1.003   4.773   3.175  0.50 42.61     0.033 C 
BRANCH  14  15
HETATM   15  C7'   D T 101       0.095   4.965   2.127  0.50 41.92     0.149 C 
BRANCH  15  16
HETATM   16  O1'   D T 101       0.671   6.274   2.210  0.50 41.20    -0.331 OA
BRANCH  16  17
HETATM   17  C1'   D T 101       0.720   7.159   1.157  0.50 40.56     0.094 A 
HETATM   18  C2'   D T 101       0.820   8.529   1.378  0.50 40.10     0.024 A 
HETATM   19  C3'   D T 101       0.857   9.418   0.309  0.50 39.98     0.005 A 
HETATM   20  C4'   D T 101       0.806   8.944  -1.000  0.50 40.28     0.040 A 
HETATM   21  C5'   D T 101       0.704   7.569  -1.229  0.50 40.14     0.005 A 
HETATM   22  C6'   D T 101       0.660   6.681  -0.154  0.50 40.31     0.024 A 
BRANCH  20  23
HETATM   23  C9'   D T 101       0.853   9.922  -2.144  0.50 40.31     0.205 C 
HETATM   24  N1'   D T 101      -0.016   9.872  -3.054  0.50 39.70    -0.125 N 
HETATM   25  N2'   D T 101       1.805  10.853  -2.206  0.50 40.00    -0.125 N 
ENDBRANCH  20  23
ENDBRANCH  16  17
ENDBRANCH  15  16
ENDBRANCH  14  15
ENDBRANCH   1  14
TORSDOF 20
ENDMDL
MODEL 8
REMARK VINA RESULT:    -4.345      0.957      4.574
REMARK INTER + INTRA:          -9.107
REMARK INTER:                  -6.455
REMARK INTRA:                  -2.652
REMARK UNBOUND:                -2.221
REMARK  20 active torsions:
REMARK  status: ('A' for Active; 'I' for Inactive)
REMARK    1  A    between atoms: C1_1  and  O1_20 
REMARK    2  A    between atoms: C4_4  and  C9_9 
REMARK    3  A    between atoms: C7_7  and  C8_8 
REMARK    4  A    between atoms: C7_7  and  O1_20 
REMARK    5  A    between atoms: C8_8  and  C10_10 
REMARK    6  A    between atoms: C10_10  and  C8'_18 
REMARK    7  A    between atoms: C1'_11  and  O1'_21 
REMARK    8  A    between atoms: C4'_14  and  C9'_19 
REMARK    9  A    between atoms: C7'_17  and  C8'_18 
REMARK   10  A    between atoms: C7'_17  and  O1'_21 
REMARK   11  A    between atoms: C1_26  and  O1_45 
REMARK   12  A    between atoms: C4_29  and  C9_34 
REMARK   13  A    between atoms: C7_32  and  C8_33 
REMARK   14  A    between atoms: C7_32  and  O1_45 
REMARK   15  A    between atoms: C8_33  and  C10_35 
REMARK   16  A    between atoms: C10_35  and  C8'_43 
REMARK   17  A    between atoms: C1'_36  and  O1'_46 
REMARK   18  A    between atoms: C4'_39  and  C9'_44 
REMARK   19  A    between atoms: C7'_42  and  C8'_43 
REMARK   20  A    between atoms: C7'_42  and  O1'_46 
ROOT
HETATM    1  C10   D T 101      -1.022   2.881   2.928  0.50 43.26     0.005 C 
ENDROOT
BRANCH   1   2
HETATM    2  C8    D T 101      -1.611   2.754   4.333  0.50 44.23     0.033 C 
BRANCH   2   3
HETATM    3  C7    D T 101      -3.101   3.093   4.342  0.50 45.07     0.149 C 
BRANCH   3   4
HETATM    4  O1    D T 101      -3.359   4.405   4.854  0.50 45.77    -0.331 OA
BRANCH   4   5
HETATM    5  C1    D T 101      -3.266   5.500   4.023  0.50 45.59     0.094 A 
HETATM    6  C2    D T 101      -3.732   5.428   2.709  0.50 45.41     0.024 A 
HETATM    7  C3    D T 101      -3.639   6.543   1.871  0.50 45.63     0.005 A 
HETATM    8  C4    D T 101      -3.078   7.737   2.337  0.50 45.70     0.040 A 
HETATM    9  C5    D T 101      -2.613   7.799   3.649  0.50 45.73     0.005 A 
HETATM   10  C6    D T 101      -2.705   6.689   4.488  0.50 45.57     0.024 A 
BRANCH   8  11
HETATM   11  C9    D T 101      -2.965   8.945   1.435  0.50 45.61     0.205 C 
HETATM   12  N1    D T 101      -3.452   8.934   0.271  0.50 44.78    -0.125 N 
HETATM   13  N2    D T 101      -2.334  10.042   1.853  0.50 45.85    -0.125 N 
ENDBRANCH   8  11
ENDBRANCH   4   5
ENDBRANCH   3   4
ENDBRANCH   2   3
ENDBRANCH   1   2
BRANCH   1  14
HETATM   14  C8'   D T 101       0.505   2.854   2.941  0.50 42.61     0.033 C 
BRANCH  14  15
HETATM   15  C7'   D T 101       1.140   4.241   2.826  0.50 41.92     0.149 C 
BRANCH  15  16
HETATM   16  O1'   D T 101       0.144   5.261   2.693  0.50 41.20    -0.331 OA
BRANCH  16  17
HETATM   17  C1'   D T 101       0.200   6.272   1.761  0.50 40.56     0.094 A 
HETATM   18  C2'   D T 101      -0.242   6.069   0.457  0.50 40.10     0.024 A 
HETATM   19  C3'   D T 101      -0.171   7.092  -0.482  0.50 39.98     0.005 A 
HETATM   20  C4'   D T 101       0.335   8.339  -0.124  0.50 40.28     0.040 A 
HETATM   21  C5'   D T 101       0.783   8.550   1.183  0.50 40.14     0.005 A 
HETATM   22  C6'   D T 101       0.716   7.519   2.121  0.50 40.31     0.024 A 
BRANCH  20  23
HETATM   23  C9'   D T 101       0.399   9.436  -1.154  0.50 40.31     0.205 C 
HETATM   24  N1'   D T 101      -0.662   9.953  -1.593  0.50 39.70    -0.125 N 
HETATM   25  N2'   D T 101       1.572   9.877  -1.609  0.50 40.00    -0.125 N 
ENDBRANCH  20  23
ENDBRANCH  16  17
ENDBRANCH  15  16
ENDBRANCH  14  15
ENDBRANCH   1  14
TORSDOF 20
ENDMDL
MODEL 9
REMARK VINA RESULT:    -4.331      3.741      6.427
REMARK INTER + INTRA:          -9.084
REMARK INTER:                  -6.602
REMARK INTRA:                  -2.482
REMARK UNBOUND:                -2.221
REMARK  20 active torsions:
REMARK  status: ('A' for Active; 'I' for Inactive)
REMARK    1  A    between atoms: C1_1  and  O1_20 
REMARK    2  A    between atoms: C4_4  and  C9_9 
REMARK    3  A    between atoms: C7_7  and  C8_8 
REMARK    4  A    between atoms: C7_7  and  O1_20 
REMARK    5  A    between atoms: C8_8  and  C10_10 
REMARK    6  A    between atoms: C10_10  and  C8'_18 
REMARK    7  A    between atoms: C1'_11  and  O1'_21 
REMARK    8  A    between atoms: C4'_14  and  C9'_19 
REMARK    9  A    between atoms: C7'_17  and  C8'_18 
REMARK   10  A    between atoms: C7'_17  and  O1'_21 
REMARK   11  A    between atoms: C1_26  and  O1_45 
REMARK   12  A    between atoms: C4_29  and  C9_34 
REMARK   13  A    between atoms: C7_32  and  C8_33 
REMARK   14  A    between atoms: C7_32  and  O1_45 
REMARK   15  A    between atoms: C8_33  and  C10_35 
REMARK   16  A    between atoms: C10_35  and  C8'_43 
REMARK   17  A    between atoms: C1'_36  and  O1'_46 
REMARK   18  A    between atoms: C4'_39  and  C9'_44 
REMARK   19  A    between atoms: C7'_42  and  C8'_43 
REMARK   20  A    between atoms: C7'_42  and  O1'_46 
ROOT
HETATM    1  C10   D T 101      -1.969   9.506   0.104  0.50 43.26     0.005 C 
ENDROOT
BRANCH   1   2
HETATM    2  C8    D T 101      -3.141   8.665   0.609  0.50 44.23     0.033 C 
BRANCH   2   3
HETATM    3  C7    D T 101      -3.977   9.437   1.629  0.50 45.07     0.149 C 
BRANCH   3   4
HETATM    4  O1    D T 101      -4.139   8.718   2.857  0.50 45.77    -0.331 OA
BRANCH   4   5
HETATM    5  C1    D T 101      -3.033   8.255   3.536  0.50 45.59     0.094 A 
HETATM    6  C2    D T 101      -2.757   6.888   3.583  0.50 45.41     0.024 A 
HETATM    7  C3    D T 101      -1.632   6.424   4.270  0.50 45.63     0.005 A 
HETATM    8  C4    D T 101      -0.774   7.320   4.917  0.50 45.70     0.040 A 
HETATM    9  C5    D T 101      -1.058   8.683   4.866  0.50 45.73     0.005 A 
HETATM   10  C6    D T 101      -2.180   9.151   4.182  0.50 45.57     0.024 A 
BRANCH   8  11
HETATM   11  C9    D T 101       0.440   6.826   5.669  0.50 45.61     0.205 C 
HETATM   12  N1    D T 101       0.736   5.600   5.692  0.50 44.78    -0.125 N 
HETATM   13  N2    D T 101       1.215   7.682   6.335  0.50 45.85    -0.125 N 
ENDBRANCH   8  11
ENDBRANCH   4   5
ENDBRANCH   3   4
ENDBRANCH   2   3
ENDBRANCH   1   2
BRANCH   1  14
HETATM   14  C8'   D T 101      -0.697   9.262   0.914  0.50 42.61     0.033 C 
BRANCH  14  15
HETATM   15  C7'   D T 101       0.523   8.934   0.049  0.50 41.92     0.149 C 
BRANCH  15  16
HETATM   16  O1'   D T 101       0.471   7.588  -0.436  0.50 41.20    -0.331 OA
BRANCH  16  17
HETATM   17  C1'   D T 101       0.260   6.491   0.367  0.50 40.56     0.094 A 
HETATM   18  C2'   D T 101       1.195   6.115   1.327  0.50 40.10     0.024 A 
HETATM   19  C3'   D T 101       0.979   4.998   2.126  0.50 39.98     0.005 A 
HETATM   20  C4'   D T 101      -0.184   4.245   1.983  0.50 40.28     0.040 A 
HETATM   21  C5'   D T 101      -1.127   4.615   1.020  0.50 40.14     0.005 A 
HETATM   22  C6'   D T 101      -0.904   5.733   0.214  0.50 40.31     0.024 A 
BRANCH  20  23
HETATM   23  C9'   D T 101      -0.401   3.043   2.862  0.50 40.31     0.205 C 
HETATM   24  N1'   D T 101      -1.461   2.934   3.534  0.50 39.70    -0.125 N 
HETATM   25  N2'   D T 101       0.516   2.078   2.936  0.50 40.00    -0.125 N 
ENDBRANCH  20  23
ENDBRANCH  16  17
ENDBRANCH  15  16
ENDBRANCH  14  15
ENDBRANCH   1  14
TORSDOF 20
ENDMDL
