MODEL 1
REMARK VINA RESULT:    -4.760      0.000      0.000
REMARK INTER + INTRA:          -9.424
REMARK INTER:                  -7.542
REMARK INTRA:                  -1.882
REMARK UNBOUND:                -1.882
REMARK  20 active torsions:
REMARK  status: ('A' for Active; 'I' for Inactive)
REMARK    1  A    between atoms: C1_1  and  O1_20 
REMARK    2  A    between atoms: C4_4  and  C9_9 
REMARK    3  A    between atoms: C7_7  and  C8_8 
REMARK    4  A    between atoms: C7_7  and  O1_20 
REMARK    5  A    between atoms: C8_8  and  C10_10 
REMARK    6  A    between atoms: C10_10  and  C8'_18 
REMARK    7  A    between atoms: C1'_11  and  O1'_21 
REMARK    8  A    between atoms: C4'_14  and  C9'_19 
REMARK    9  A    between atoms: C7'_17  and  C8'_18 
REMARK   10  A    between atoms: C7'_17  and  O1'_21 
REMARK   11  A    between atoms: C1_26  and  O1_45 
REMARK   12  A    between atoms: C4_29  and  C9_34 
REMARK   13  A    between atoms: C7_32  and  C8_33 
REMARK   14  A    between atoms: C7_32  and  O1_45 
REMARK   15  A    between atoms: C8_33  and  C10_35 
REMARK   16  A    between atoms: C10_35  and  C8'_43 
REMARK   17  A    between atoms: C1'_36  and  O1'_46 
REMARK   18  A    between atoms: C4'_39  and  C9'_44 
REMARK   19  A    between atoms: C7'_42  and  C8'_43 
REMARK   20  A    between atoms: C7'_42  and  O1'_46 
ROOT
HETATM    1  C10   D T 101     -21.079   6.421   3.487  0.50 43.26     0.005 C 
ENDROOT
BRANCH   1   2
HETATM    2  C8    D T 101     -21.291   6.550   4.996  0.50 44.23     0.033 C 
BRANCH   2   3
HETATM    3  C7    D T 101     -20.788   7.899   5.509  0.50 45.07     0.149 C 
BRANCH   3   4
HETATM    4  O1    D T 101     -19.746   8.442   4.687  0.50 45.77    -0.331 OA
BRANCH   4   5
HETATM    5  C1    D T 101     -19.806   9.755   4.278  0.50 45.59     0.094 A 
HETATM    6  C2    D T 101     -21.040  10.389   4.125  0.50 45.41     0.024 A 
HETATM    7  C3    D T 101     -21.097  11.723   3.713  0.50 45.63     0.005 A 
HETATM    8  C4    D T 101     -19.922  12.436   3.448  0.50 45.70     0.040 A 
HETATM    9  C5    D T 101     -18.693  11.794   3.601  0.50 45.73     0.005 A 
HETATM   10  C6    D T 101     -18.633  10.464   4.012  0.50 45.57     0.024 A 
BRANCH   8  11
HETATM   11  C9    D T 101     -19.974  13.876   2.993  0.50 45.61     0.205 C 
HETATM   12  N1    D T 101     -19.671  14.816   3.778  0.50 44.78    -0.125 N 
HETATM   13  N2    D T 101     -20.356  14.178   1.752  0.50 45.85    -0.125 N 
ENDBRANCH   8  11
ENDBRANCH   4   5
ENDBRANCH   3   4
ENDBRANCH   2   3
ENDBRANCH   1   2
BRANCH   1  14
HETATM   14  C8'   D T 101     -22.261   6.976   2.693  0.50 42.61     0.033 C 
BRANCH  14  15
HETATM   15  C7'   D T 101     -21.844   7.922   1.564  0.50 41.92     0.149 C 
BRANCH  15  16
HETATM   16  O1'   D T 101     -20.421   7.952   1.408  0.50 41.20    -0.331 OA
BRANCH  16  17
HETATM   17  C1'   D T 101     -19.773   8.637   0.405  0.50 40.56     0.094 A 
HETATM   18  C2'   D T 101     -19.650  10.022   0.450  0.50 40.10     0.024 A 
HETATM   19  C3'   D T 101     -19.005  10.708  -0.575  0.50 39.98     0.005 A 
HETATM   20  C4'   D T 101     -18.465  10.014  -1.654  0.50 40.28     0.040 A 
HETATM   21  C5'   D T 101     -18.587   8.623  -1.706  0.50 40.14     0.005 A 
HETATM   22  C6'   D T 101     -19.241   7.938  -0.680  0.50 40.31     0.024 A 
BRANCH  20  23
HETATM   23  C9'   D T 101     -17.765  10.774  -2.748  0.50 40.31     0.205 C 
HETATM   24  N1'   D T 101     -16.647  11.313  -2.528  0.50 39.70    -0.125 N 
HETATM   25  N2'   D T 101     -18.311  10.884  -3.959  0.50 40.00    -0.125 N 
ENDBRANCH  20  23
ENDBRANCH  16  17
ENDBRANCH  15  16
ENDBRANCH  14  15
ENDBRANCH   1  14
TORSDOF 20
ENDMDL
MODEL 2
REMARK VINA RESULT:    -4.432      0.910      5.481
REMARK INTER + INTRA:          -8.905
REMARK INTER:                  -7.062
REMARK INTRA:                  -1.843
REMARK UNBOUND:                -1.882
REMARK  20 active torsions:
REMARK  status: ('A' for Active; 'I' for Inactive)
REMARK    1  A    between atoms: C1_1  and  O1_20 
REMARK    2  A    between atoms: C4_4  and  C9_9 
REMARK    3  A    between atoms: C7_7  and  C8_8 
REMARK    4  A    between atoms: C7_7  and  O1_20 
REMARK    5  A    between atoms: C8_8  and  C10_10 
REMARK    6  A    between atoms: C10_10  and  C8'_18 
REMARK    7  A    between atoms: C1'_11  and  O1'_21 
REMARK    8  A    between atoms: C4'_14  and  C9'_19 
REMARK    9  A    between atoms: C7'_17  and  C8'_18 
REMARK   10  A    between atoms: C7'_17  and  O1'_21 
REMARK   11  A    between atoms: C1_26  and  O1_45 
REMARK   12  A    between atoms: C4_29  and  C9_34 
REMARK   13  A    between atoms: C7_32  and  C8_33 
REMARK   14  A    between atoms: C7_32  and  O1_45 
REMARK   15  A    between atoms: C8_33  and  C10_35 
REMARK   16  A    between atoms: C10_35  and  C8'_43 
REMARK   17  A    between atoms: C1'_36  and  O1'_46 
REMARK   18  A    between atoms: C4'_39  and  C9'_44 
REMARK   19  A    between atoms: C7'_42  and  C8'_43 
REMARK   20  A    between atoms: C7'_42  and  O1'_46 
ROOT
HETATM    1  C10   D T 101     -20.807   6.487   3.133  0.50 43.26     0.005 C 
ENDROOT
BRANCH   1   2
HETATM    2  C8    D T 101     -22.194   6.865   2.612  0.50 44.23     0.033 C 
BRANCH   2   3
HETATM    3  C7    D T 101     -22.145   8.165   1.809  0.50 45.07     0.149 C 
BRANCH   3   4
HETATM    4  O1    D T 101     -20.809   8.664   1.660  0.50 45.77    -0.331 OA
BRANCH   4   5
HETATM    5  C1    D T 101     -20.375   9.113   0.433  0.50 45.59     0.094 A 
HETATM    6  C2    D T 101     -19.312  10.014   0.349  0.50 45.41     0.024 A 
HETATM    7  C3    D T 101     -18.872  10.465  -0.898  0.50 45.63     0.005 A 
HETATM    8  C4    D T 101     -19.491  10.022  -2.073  0.50 45.70     0.040 A 
HETATM    9  C5    D T 101     -20.554   9.124  -1.980  0.50 45.73     0.005 A 
HETATM   10  C6    D T 101     -20.996   8.672  -0.737  0.50 45.57     0.024 A 
BRANCH   8  11
HETATM   11  C9    D T 101     -19.028  10.510  -3.426  0.50 45.61     0.205 C 
HETATM   12  N1    D T 101     -19.835  10.611  -4.391  0.50 44.78    -0.125 N 
HETATM   13  N2    D T 101     -17.750  10.832  -3.627  0.50 45.85    -0.125 N 
ENDBRANCH   8  11
ENDBRANCH   4   5
ENDBRANCH   3   4
ENDBRANCH   2   3
ENDBRANCH   1   2
BRANCH   1  14
HETATM   14  C8'   D T 101     -20.826   6.156   4.624  0.50 42.61     0.033 C 
BRANCH  14  15
HETATM   15  C7'   D T 101     -21.125   7.366   5.513  0.50 41.92     0.149 C 
BRANCH  15  16
HETATM   16  O1'   D T 101     -20.018   8.275   5.544  0.50 41.20    -0.331 OA
BRANCH  16  17
HETATM   17  C1'   D T 101     -20.001   9.486   4.888  0.50 40.56     0.094 A 
HETATM   18  C2'   D T 101     -18.831   9.970   4.312  0.50 40.10     0.024 A 
HETATM   19  C3'   D T 101     -18.820  11.200   3.662  0.50 39.98     0.005 A 
HETATM   20  C4'   D T 101     -19.984  11.958   3.571  0.50 40.28     0.040 A 
HETATM   21  C5'   D T 101     -21.162  11.478   4.150  0.50 40.14     0.005 A 
HETATM   22  C6'   D T 101     -21.169  10.246   4.807  0.50 40.31     0.024 A 
BRANCH  20  23
HETATM   23  C9'   D T 101     -19.952  13.283   2.858  0.50 40.31     0.205 C 
HETATM   24  N1'   D T 101     -20.227  13.346   1.629  0.50 39.70    -0.125 N 
HETATM   25  N2'   D T 101     -19.639  14.402   3.511  0.50 40.00    -0.125 N 
ENDBRANCH  20  23
ENDBRANCH  16  17
ENDBRANCH  15  16
ENDBRANCH  14  15
ENDBRANCH   1  14
TORSDOF 20
ENDMDL
MODEL 3
REMARK VINA RESULT:    -4.401      3.020      5.680
REMARK INTER + INTRA:          -8.857
REMARK INTER:                  -6.494
REMARK INTRA:                  -2.363
REMARK UNBOUND:                -1.882
REMARK  20 active torsions:
REMARK  status: ('A' for Active; 'I' for Inactive)
REMARK    1  A    between atoms: C1_1  and  O1_20 
REMARK    2  A    between atoms: C4_4  and  C9_9 
REMARK    3  A    between atoms: C7_7  and  C8_8 
REMARK    4  A    between atoms: C7_7  and  O1_20 
REMARK    5  A    between atoms: C8_8  and  C10_10 
REMARK    6  A    between atoms: C10_10  and  C8'_18 
REMARK    7  A    between atoms: C1'_11  and  O1'_21 
REMARK    8  A    between atoms: C4'_14  and  C9'_19 
REMARK    9  A    between atoms: C7'_17  and  C8'_18 
REMARK   10  A    between atoms: C7'_17  and  O1'_21 
REMARK   11  A    between atoms: C1_26  and  O1_45 
REMARK   12  A    between atoms: C4_29  and  C9_34 
REMARK   13  A    between atoms: C7_32  and  C8_33 
REMARK   14  A    between atoms: C7_32  and  O1_45 
REMARK   15  A    between atoms: C8_33  and  C10_35 
REMARK   16  A    between atoms: C10_35  and  C8'_43 
REMARK   17  A    between atoms: C1'_36  and  O1'_46 
REMARK   18  A    between atoms: C4'_39  and  C9'_44 
REMARK   19  A    between atoms: C7'_42  and  C8'_43 
REMARK   20  A    between atoms: C7'_42  and  O1'_46 
ROOT
HETATM    1  C10   D T 101     -20.178   8.251  -2.795  0.50 43.26     0.005 C 
ENDROOT
BRANCH   1   2
HETATM    2  C8    D T 101     -19.008   9.170  -3.149  0.50 44.23     0.033 C 
BRANCH   2   3
HETATM    3  C7    D T 101     -18.843  10.278  -2.109  0.50 45.07     0.149 C 
BRANCH   3   4
HETATM    4  O1    D T 101     -18.524   9.762  -0.809  0.50 45.77    -0.331 OA
BRANCH   4   5
HETATM    5  C1    D T 101     -19.073  10.340   0.314  0.50 45.59     0.094 A 
HETATM    6  C2    D T 101     -19.987  11.388   0.190  0.50 45.41     0.024 A 
HETATM    7  C3    D T 101     -20.545  11.969   1.332  0.50 45.63     0.005 A 
HETATM    8  C4    D T 101     -20.194  11.510   2.607  0.50 45.70     0.040 A 
HETATM    9  C5    D T 101     -19.278  10.464   2.721  0.50 45.73     0.005 A 
HETATM   10  C6    D T 101     -18.720   9.882   1.584  0.50 45.57     0.024 A 
BRANCH   8  11
HETATM   11  C9    D T 101     -20.785  12.139   3.848  0.50 45.61     0.205 C 
HETATM   12  N1    D T 101     -20.590  13.356   4.116  0.50 44.78    -0.125 N 
HETATM   13  N2    D T 101     -21.516  11.409   4.691  0.50 45.85    -0.125 N 
ENDBRANCH   8  11
ENDBRANCH   4   5
ENDBRANCH   3   4
ENDBRANCH   2   3
ENDBRANCH   1   2
BRANCH   1  14
HETATM   14  C8'   D T 101     -21.471   9.033  -2.564  0.50 42.61     0.033 C 
BRANCH  14  15
HETATM   15  C7'   D T 101     -22.113   8.760  -1.202  0.50 41.92     0.149 C 
BRANCH  15  16
HETATM   16  O1'   D T 101     -21.486   7.653  -0.544  0.50 41.20    -0.331 OA
BRANCH  16  17
HETATM   17  C1'   D T 101     -21.509   7.458   0.819  0.50 40.56     0.094 A 
HETATM   18  C2'   D T 101     -22.121   8.378   1.663  0.50 40.10     0.024 A 
HETATM   19  C3'   D T 101     -22.128   8.179   3.040  0.50 39.98     0.005 A 
HETATM   20  C4'   D T 101     -21.530   7.050   3.590  0.50 40.28     0.040 A 
HETATM   21  C5'   D T 101     -20.911   6.122   2.748  0.50 40.14     0.005 A 
HETATM   22  C6'   D T 101     -20.899   6.327   1.367  0.50 40.31     0.024 A 
BRANCH  20  23
HETATM   23  C9'   D T 101     -21.555   6.850   5.082  0.50 40.31     0.205 C 
HETATM   24  N1'   D T 101     -22.540   7.252   5.757  0.50 39.70    -0.125 N 
HETATM   25  N2'   D T 101     -20.544   6.245   5.706  0.50 40.00    -0.125 N 
ENDBRANCH  20  23
ENDBRANCH  16  17
ENDBRANCH  15  16
ENDBRANCH  14  15
ENDBRANCH   1  14
TORSDOF 20
ENDMDL
MODEL 4
REMARK VINA RESULT:    -4.387      2.934      5.984
REMARK INTER + INTRA:          -8.834
REMARK INTER:                  -6.721
REMARK INTRA:                  -2.113
REMARK UNBOUND:                -1.882
REMARK  20 active torsions:
REMARK  status: ('A' for Active; 'I' for Inactive)
REMARK    1  A    between atoms: C1_1  and  O1_20 
REMARK    2  A    between atoms: C4_4  and  C9_9 
REMARK    3  A    between atoms: C7_7  and  C8_8 
REMARK    4  A    between atoms: C7_7  and  O1_20 
REMARK    5  A    between atoms: C8_8  and  C10_10 
REMARK    6  A    between atoms: C10_10  and  C8'_18 
REMARK    7  A    between atoms: C1'_11  and  O1'_21 
REMARK    8  A    between atoms: C4'_14  and  C9'_19 
REMARK    9  A    between atoms: C7'_17  and  C8'_18 
REMARK   10  A    between atoms: C7'_17  and  O1'_21 
REMARK   11  A    between atoms: C1_26  and  O1_45 
REMARK   12  A    between atoms: C4_29  and  C9_34 
REMARK   13  A    between atoms: C7_32  and  C8_33 
REMARK   14  A    between atoms: C7_32  and  O1_45 
REMARK   15  A    between atoms: C8_33  and  C10_35 
REMARK   16  A    between atoms: C10_35  and  C8'_43 
REMARK   17  A    between atoms: C1'_36  and  O1'_46 
REMARK   18  A    between atoms: C4'_39  and  C9'_44 
REMARK   19  A    between atoms: C7'_42  and  C8'_43 
REMARK   20  A    between atoms: C7'_42  and  O1'_46 
ROOT
HETATM    1  C10   D T 101     -19.624   9.047  -2.187  0.50 43.26     0.005 C 
ENDROOT
BRANCH   1   2
HETATM    2  C8    D T 101     -21.060   9.562  -2.088  0.50 44.23     0.033 C 
BRANCH   2   3
HETATM    3  C7    D T 101     -22.052   8.406  -1.960  0.50 45.07     0.149 C 
BRANCH   3   4
HETATM    4  O1    D T 101     -22.878   8.523  -0.793  0.50 45.77    -0.331 OA
BRANCH   4   5
HETATM    5  C1    D T 101     -22.352   8.256   0.451  0.50 45.59     0.094 A 
HETATM    6  C2    D T 101     -22.673   9.068   1.540  0.50 45.41     0.024 A 
HETATM    7  C3    D T 101     -22.140   8.792   2.802  0.50 45.63     0.005 A 
HETATM    8  C4    D T 101     -21.280   7.703   2.988  0.50 45.70     0.040 A 
HETATM    9  C5    D T 101     -20.963   6.898   1.894  0.50 45.73     0.005 A 
HETATM   10  C6    D T 101     -21.492   7.171   0.634  0.50 45.57     0.024 A 
BRANCH   8  11
HETATM   11  C9    D T 101     -20.691   7.402   4.347  0.50 45.61     0.205 C 
HETATM   12  N1    D T 101     -20.314   8.331   5.112  0.50 44.78    -0.125 N 
HETATM   13  N2    D T 101     -20.547   6.141   4.755  0.50 45.85    -0.125 N 
ENDBRANCH   8  11
ENDBRANCH   4   5
ENDBRANCH   3   4
ENDBRANCH   2   3
ENDBRANCH   1   2
BRANCH   1  14
HETATM   14  C8'   D T 101     -18.620  10.029  -1.586  0.50 42.61     0.033 C 
BRANCH  14  15
HETATM   15  C7'   D T 101     -18.059   9.578  -0.236  0.50 41.92     0.149 C 
BRANCH  15  16
HETATM   16  O1'   D T 101     -19.067   9.605   0.782  0.50 41.20    -0.331 OA
BRANCH  16  17
HETATM   17  C1'   D T 101     -19.420  10.736   1.483  0.50 40.56     0.094 A 
HETATM   18  C2'   D T 101     -19.038  10.902   2.810  0.50 40.10     0.024 A 
HETATM   19  C3'   D T 101     -19.409  12.043   3.515  0.50 39.98     0.005 A 
HETATM   20  C4'   D T 101     -20.160  13.039   2.896  0.50 40.28     0.040 A 
HETATM   21  C5'   D T 101     -20.548  12.876   1.563  0.50 40.14     0.005 A 
HETATM   22  C6'   D T 101     -20.180  11.728   0.860  0.50 40.31     0.024 A 
BRANCH  20  23
HETATM   23  C9'   D T 101     -20.545  14.268   3.673  0.50 40.31     0.205 C 
HETATM   24  N1'   D T 101     -21.699  14.365   4.171  0.50 39.70    -0.125 N 
HETATM   25  N2'   D T 101     -19.676  15.264   3.849  0.50 40.00    -0.125 N 
ENDBRANCH  20  23
ENDBRANCH  16  17
ENDBRANCH  15  16
ENDBRANCH  14  15
ENDBRANCH   1  14
TORSDOF 20
ENDMDL
MODEL 5
REMARK VINA RESULT:    -4.385      3.190      4.571
REMARK INTER + INTRA:          -8.831
REMARK INTER:                  -5.998
REMARK INTRA:                  -2.833
REMARK UNBOUND:                -1.882
REMARK  20 active torsions:
REMARK  status: ('A' for Active; 'I' for Inactive)
REMARK    1  A    between atoms: C1_1  and  O1_20 
REMARK    2  A    between atoms: C4_4  and  C9_9 
REMARK    3  A    between atoms: C7_7  and  C8_8 
REMARK    4  A    between atoms: C7_7  and  O1_20 
REMARK    5  A    between atoms: C8_8  and  C10_10 
REMARK    6  A    between atoms: C10_10  and  C8'_18 
REMARK    7  A    between atoms: C1'_11  and  O1'_21 
REMARK    8  A    between atoms: C4'_14  and  C9'_19 
REMARK    9  A    between atoms: C7'_17  and  C8'_18 
REMARK   10  A    between atoms: C7'_17  and  O1'_21 
REMARK   11  A    between atoms: C1_26  and  O1_45 
REMARK   12  A    between atoms: C4_29  and  C9_34 
REMARK   13  A    between atoms: C7_32  and  C8_33 
REMARK   14  A    between atoms: C7_32  and  O1_45 
REMARK   15  A    between atoms: C8_33  and  C10_35 
REMARK   16  A    between atoms: C10_35  and  C8'_43 
REMARK   17  A    between atoms: C1'_36  and  O1'_46 
REMARK   18  A    between atoms: C4'_39  and  C9'_44 
REMARK   19  A    between atoms: C7'_42  and  C8'_43 
REMARK   20  A    between atoms: C7'_42  and  O1'_46 
ROOT
HETATM    1  C10   D T 101     -20.924   6.361   2.901  0.50 43.26     0.005 C 
ENDROOT
BRANCH   1   2
HETATM    2  C8    D T 101     -21.104   7.812   3.346  0.50 44.23     0.033 C 
BRANCH   2   3
HETATM    3  C7    D T 101     -20.205   8.751   2.542  0.50 45.07     0.149 C 
BRANCH   3   4
HETATM    4  O1    D T 101     -20.893   9.353   1.438  0.50 45.77    -0.331 OA
BRANCH   4   5
HETATM    5  C1    D T 101     -20.211   9.640   0.276  0.50 45.59     0.094 A 
HETATM    6  C2    D T 101     -20.910   9.937  -0.895  0.50 45.41     0.024 A 
HETATM    7  C3    D T 101     -20.215  10.232  -2.070  0.50 45.63     0.005 A 
HETATM    8  C4    D T 101     -18.816  10.230  -2.088  0.50 45.70     0.040 A 
HETATM    9  C5    D T 101     -18.125   9.929  -0.914  0.50 45.73     0.005 A 
HETATM   10  C6    D T 101     -18.815   9.635   0.260  0.50 45.57     0.024 A 
BRANCH   8  11
HETATM   11  C9    D T 101     -18.055  10.537  -3.357  0.50 45.61     0.205 C 
HETATM   12  N1    D T 101     -16.815  10.316  -3.442  0.50 44.78    -0.125 N 
HETATM   13  N2    D T 101     -18.682  11.064  -4.409  0.50 45.85    -0.125 N 
ENDBRANCH   8  11
ENDBRANCH   4   5
ENDBRANCH   3   4
ENDBRANCH   2   3
ENDBRANCH   1   2
BRANCH   1  14
HETATM   14  C8'   D T 101     -21.775   6.027   1.677  0.50 42.61     0.033 C 
BRANCH  14  15
HETATM   15  C7'   D T 101     -21.031   5.201   0.625  0.50 41.92     0.149 C 
BRANCH  15  16
HETATM   16  O1'   D T 101     -19.822   5.849   0.213  0.50 41.20    -0.331 OA
BRANCH  16  17
HETATM   17  C1'   D T 101     -19.548   6.209  -1.087  0.50 40.56     0.094 A 
HETATM   18  C2'   D T 101     -20.576   6.461  -1.990  0.50 40.10     0.024 A 
HETATM   19  C3'   D T 101     -20.290   6.811  -3.306  0.50 39.98     0.005 A 
HETATM   20  C4'   D T 101     -18.969   6.924  -3.733  0.50 40.28     0.040 A 
HETATM   21  C5'   D T 101     -17.933   6.670  -2.830  0.50 40.14     0.005 A 
HETATM   22  C6'   D T 101     -18.222   6.312  -1.512  0.50 40.31     0.024 A 
BRANCH  20  23
HETATM   23  C9'   D T 101     -18.681   7.311  -5.158  0.50 40.31     0.205 C 
HETATM   24  N1'   D T 101     -17.585   6.990  -5.691  0.50 39.70    -0.125 N 
HETATM   25  N2'   D T 101     -19.577   7.991  -5.875  0.50 40.00    -0.125 N 
ENDBRANCH  20  23
ENDBRANCH  16  17
ENDBRANCH  15  16
ENDBRANCH  14  15
ENDBRANCH   1  14
TORSDOF 20
ENDMDL
MODEL 6
REMARK VINA RESULT:    -4.359      2.958      6.174
REMARK INTER + INTRA:          -8.789
REMARK INTER:                  -7.524
REMARK INTRA:                  -1.265
REMARK UNBOUND:                -1.882
REMARK  20 active torsions:
REMARK  status: ('A' for Active; 'I' for Inactive)
REMARK    1  A    between atoms: C1_1  and  O1_20 
REMARK    2  A    between atoms: C4_4  and  C9_9 
REMARK    3  A    between atoms: C7_7  and  C8_8 
REMARK    4  A    between atoms: C7_7  and  O1_20 
REMARK    5  A    between atoms: C8_8  and  C10_10 
REMARK    6  A    between atoms: C10_10  and  C8'_18 
REMARK    7  A    between atoms: C1'_11  and  O1'_21 
REMARK    8  A    between atoms: C4'_14  and  C9'_19 
REMARK    9  A    between atoms: C7'_17  and  C8'_18 
REMARK   10  A    between atoms: C7'_17  and  O1'_21 
REMARK   11  A    between atoms: C1_26  and  O1_45 
REMARK   12  A    between atoms: C4_29  and  C9_34 
REMARK   13  A    between atoms: C7_32  and  C8_33 
REMARK   14  A    between atoms: C7_32  and  O1_45 
REMARK   15  A    between atoms: C8_33  and  C10_35 
REMARK   16  A    between atoms: C10_35  and  C8'_43 
REMARK   17  A    between atoms: C1'_36  and  O1'_46 
REMARK   18  A    between atoms: C4'_39  and  C9'_44 
REMARK   19  A    between atoms: C7'_42  and  C8'_43 
REMARK   20  A    between atoms: C7'_42  and  O1'_46 
ROOT
HETATM    1  C10   D T 101     -20.932   9.395  -1.090  0.50 43.26     0.005 C 
ENDROOT
BRANCH   1   2
HETATM    2  C8    D T 101     -22.159   8.518  -0.838  0.50 44.23     0.033 C 
BRANCH   2   3
HETATM    3  C7    D T 101     -21.829   7.039  -1.037  0.50 45.07     0.149 C 
BRANCH   3   4
HETATM    4  O1    D T 101     -22.508   6.197  -0.095  0.50 45.77    -0.331 OA
BRANCH   4   5
HETATM    5  C1    D T 101     -22.376   6.431   1.256  0.50 45.59     0.094 A 
HETATM    6  C2    D T 101     -21.167   6.165   1.901  0.50 45.41     0.024 A 
HETATM    7  C3    D T 101     -21.035   6.406   3.271  0.50 45.63     0.005 A 
HETATM    8  C4    D T 101     -22.111   6.913   4.010  0.50 45.70     0.040 A 
HETATM    9  C5    D T 101     -23.316   7.173   3.358  0.50 45.73     0.005 A 
HETATM   10  C6    D T 101     -23.451   6.934   1.991  0.50 45.57     0.024 A 
BRANCH   8  11
HETATM   11  C9    D T 101     -21.981   7.168   5.494  0.50 45.61     0.205 C 
HETATM   12  N1    D T 101     -20.848   7.250   6.042  0.50 44.78    -0.125 N 
HETATM   13  N2    D T 101     -23.069   7.297   6.254  0.50 45.85    -0.125 N 
ENDBRANCH   8  11
ENDBRANCH   4   5
ENDBRANCH   3   4
ENDBRANCH   2   3
ENDBRANCH   1   2
BRANCH   1  14
HETATM   14  C8'   D T 101     -19.651   8.758  -0.553  0.50 42.61     0.033 C 
BRANCH  14  15
HETATM   15  C7'   D T 101     -18.893   9.652   0.431  0.50 41.92     0.149 C 
BRANCH  15  16
HETATM   16  O1'   D T 101     -19.735  10.068   1.512  0.50 41.20    -0.331 OA
BRANCH  16  17
HETATM   17  C1'   D T 101     -19.880  11.377   1.913  0.50 40.56     0.094 A 
HETATM   18  C2'   D T 101     -20.434  12.328   1.062  0.50 40.10     0.024 A 
HETATM   19  C3'   D T 101     -20.565  13.651   1.471  0.50 39.98     0.005 A 
HETATM   20  C4'   D T 101     -20.151  14.039   2.742  0.50 40.28     0.040 A 
HETATM   21  C5'   D T 101     -19.591  13.089   3.600  0.50 40.14     0.005 A 
HETATM   22  C6'   D T 101     -19.455  11.763   3.186  0.50 40.31     0.024 A 
BRANCH  20  23
HETATM   23  C9'   D T 101     -20.307  15.474   3.167  0.50 40.31     0.205 C 
HETATM   24  N1'   D T 101     -20.958  16.279   2.447  0.50 39.70    -0.125 N 
HETATM   25  N2'   D T 101     -19.768  15.911   4.305  0.50 40.00    -0.125 N 
ENDBRANCH  20  23
ENDBRANCH  16  17
ENDBRANCH  15  16
ENDBRANCH  14  15
ENDBRANCH   1  14
TORSDOF 20
ENDMDL
MODEL 7
REMARK VINA RESULT:    -4.330      3.422      5.926
REMARK INTER + INTRA:          -8.743
REMARK INTER:                  -5.977
REMARK INTRA:                  -2.766
REMARK UNBOUND:                -1.882
REMARK  20 active torsions:
REMARK  status: ('A' for Active; 'I' for Inactive)
REMARK    1  A    between atoms: C1_1  and  O1_20 
REMARK    2  A    between atoms: C4_4  and  C9_9 
REMARK    3  A    between atoms: C7_7  and  C8_8 
REMARK    4  A    between atoms: C7_7  and  O1_20 
REMARK    5  A    between atoms: C8_8  and  C10_10 
REMARK    6  A    between atoms: C10_10  and  C8'_18 
REMARK    7  A    between atoms: C1'_11  and  O1'_21 
REMARK    8  A    between atoms: C4'_14  and  C9'_19 
REMARK    9  A    between atoms: C7'_17  and  C8'_18 
REMARK   10  A    between atoms: C7'_17  and  O1'_21 
REMARK   11  A    between atoms: C1_26  and  O1_45 
REMARK   12  A    between atoms: C4_29  and  C9_34 
REMARK   13  A    between atoms: C7_32  and  C8_33 
REMARK   14  A    between atoms: C7_32  and  O1_45 
REMARK   15  A    between atoms: C8_33  and  C10_35 
REMARK   16  A    between atoms: C10_35  and  C8'_43 
REMARK   17  A    between atoms: C1'_36  and  O1'_46 
REMARK   18  A    between atoms: C4'_39  and  C9'_44 
REMARK   19  A    between atoms: C7'_42  and  C8'_43 
REMARK   20  A    between atoms: C7'_42  and  O1'_46 
ROOT
HETATM    1  C10   D T 101     -18.455   9.960  -4.595  0.50 43.26     0.005 C 
ENDROOT
BRANCH   1   2
HETATM    2  C8    D T 101     -17.664  11.174  -4.108  0.50 44.23     0.033 C 
BRANCH   2   3
HETATM    3  C7    D T 101     -17.069  10.925  -2.722  0.50 45.07     0.149 C 
BRANCH   3   4
HETATM    4  O1    D T 101     -17.766   9.896  -2.006  0.50 45.77    -0.331 OA
BRANCH   4   5
HETATM    5  C1    D T 101     -18.462  10.207  -0.859  0.50 45.59     0.094 A 
HETATM    6  C2    D T 101     -19.466  11.176  -0.886  0.50 45.41     0.024 A 
HETATM    7  C3    D T 101     -20.173  11.485   0.279  0.50 45.63     0.005 A 
HETATM    8  C4    D T 101     -19.881  10.833   1.482  0.50 45.70     0.040 A 
HETATM    9  C5    D T 101     -18.874   9.869   1.500  0.50 45.73     0.005 A 
HETATM   10  C6    D T 101     -18.167   9.556   0.341  0.50 45.57     0.024 A 
BRANCH   8  11
HETATM   11  C9    D T 101     -20.633  11.168   2.749  0.50 45.61     0.205 C 
HETATM   12  N1    D T 101     -20.114  10.975   3.883  0.50 44.78    -0.125 N 
HETATM   13  N2    D T 101     -21.870  11.663   2.689  0.50 45.85    -0.125 N 
ENDBRANCH   8  11
ENDBRANCH   4   5
ENDBRANCH   3   4
ENDBRANCH   2   3
ENDBRANCH   1   2
BRANCH   1  14
HETATM   14  C8'   D T 101     -19.863  10.339  -5.053  0.50 42.61     0.033 C 
BRANCH  14  15
HETATM   15  C7'   D T 101     -20.943  10.044  -4.011  0.50 41.92     0.149 C 
BRANCH  15  16
HETATM   16  O1'   D T 101     -21.023   8.643  -3.726  0.50 41.20    -0.331 OA
BRANCH  16  17
HETATM   17  C1'   D T 101     -20.972   8.114  -2.456  0.50 40.56     0.094 A 
HETATM   18  C2'   D T 101     -20.031   7.144  -2.123  0.50 40.10     0.024 A 
HETATM   19  C3'   D T 101     -19.994   6.606  -0.840  0.50 39.98     0.005 A 
HETATM   20  C4'   D T 101     -20.893   7.040   0.130  0.50 40.28     0.040 A 
HETATM   21  C5'   D T 101     -21.842   8.012  -0.199  0.50 40.14     0.005 A 
HETATM   22  C6'   D T 101     -21.881   8.546  -1.488  0.50 40.31     0.024 A 
BRANCH  20  23
HETATM   23  C9'   D T 101     -20.832   6.450   1.514  0.50 40.31     0.205 C 
HETATM   24  N1'   D T 101     -20.790   5.200   1.666  0.50 39.70    -0.125 N 
HETATM   25  N2'   D T 101     -20.819   7.236   2.590  0.50 40.00    -0.125 N 
ENDBRANCH  20  23
ENDBRANCH  16  17
ENDBRANCH  15  16
ENDBRANCH  14  15
ENDBRANCH   1  14
TORSDOF 20
ENDMDL
MODEL 8
REMARK VINA RESULT:    -4.246      3.510      6.449
REMARK INTER + INTRA:          -8.611
REMARK INTER:                  -5.840
REMARK INTRA:                  -2.770
REMARK UNBOUND:                -1.882
REMARK  20 active torsions:
REMARK  status: ('A' for Active; 'I' for Inactive)
REMARK    1  A    between atoms: C1_1  and  O1_20 
REMARK    2  A    between atoms: C4_4  and  C9_9 
REMARK    3  A    between atoms: C7_7  and  C8_8 
REMARK    4  A    between atoms: C7_7  and  O1_20 
REMARK    5  A    between atoms: C8_8  and  C10_10 
REMARK    6  A    between atoms: C10_10  and  C8'_18 
REMARK    7  A    between atoms: C1'_11  and  O1'_21 
REMARK    8  A    between atoms: C4'_14  and  C9'_19 
REMARK    9  A    between atoms: C7'_17  and  C8'_18 
REMARK   10  A    between atoms: C7'_17  and  O1'_21 
REMARK   11  A    between atoms: C1_26  and  O1_45 
REMARK   12  A    between atoms: C4_29  and  C9_34 
REMARK   13  A    between atoms: C7_32  and  C8_33 
REMARK   14  A    between atoms: C7_32  and  O1_45 
REMARK   15  A    between atoms: C8_33  and  C10_35 
REMARK   16  A    between atoms: C10_35  and  C8'_43 
REMARK   17  A    between atoms: C1'_36  and  O1'_46 
REMARK   18  A    between atoms: C4'_39  and  C9'_44 
REMARK   19  A    between atoms: C7'_42  and  C8'_43 
REMARK   20  A    between atoms: C7'_42  and  O1'_46 
ROOT
HETATM    1  C10   D T 101     -22.712  15.427   1.245  0.50 43.26     0.005 C 
ENDROOT
BRANCH   1   2
HETATM    2  C8    D T 101     -22.092  15.401   2.643  0.50 44.23     0.033 C 
BRANCH   2   3
HETATM    3  C7    D T 101     -20.629  14.962   2.589  0.50 45.07     0.149 C 
BRANCH   3   4
HETATM    4  O1    D T 101     -20.420  13.681   3.199  0.50 45.77    -0.331 OA
BRANCH   4   5
HETATM    5  C1    D T 101     -20.103  12.591   2.420  0.50 45.59     0.094 A 
HETATM    6  C2    D T 101     -19.423  11.505   2.973  0.50 45.41     0.024 A 
HETATM    7  C3    D T 101     -19.106  10.399   2.180  0.50 45.63     0.005 A 
HETATM    8  C4    D T 101     -19.463  10.369   0.827  0.50 45.70     0.040 A 
HETATM    9  C5    D T 101     -20.140  11.459   0.282  0.50 45.73     0.005 A 
HETATM   10  C6    D T 101     -20.458  12.564   1.069  0.50 45.57     0.024 A 
BRANCH   8  11
HETATM   11  C9    D T 101     -19.116   9.181  -0.041  0.50 45.61     0.205 C 
HETATM   12  N1    D T 101     -18.102   9.200  -0.793  0.50 44.78    -0.125 N 
HETATM   13  N2    D T 101     -19.887   8.094  -0.037  0.50 45.85    -0.125 N 
ENDBRANCH   8  11
ENDBRANCH   4   5
ENDBRANCH   3   4
ENDBRANCH   2   3
ENDBRANCH   1   2
BRANCH   1  14
HETATM   14  C8'   D T 101     -23.877  14.448   1.116  0.50 42.61     0.033 C 
BRANCH  14  15
HETATM   15  C7'   D T 101     -24.061  13.555   2.346  0.50 41.92     0.149 C 
BRANCH  15  16
HETATM   16  O1'   D T 101     -24.188  12.177   1.975  0.50 41.20    -0.331 OA
BRANCH  16  17
HETATM   17  C1'   D T 101     -23.517  11.150   2.600  0.50 40.56     0.094 A 
HETATM   18  C2'   D T 101     -23.169  11.237   3.944  0.50 40.10     0.024 A 
HETATM   19  C3'   D T 101     -22.480  10.199   4.564  0.50 39.98     0.005 A 
HETATM   20  C4'   D T 101     -22.138   9.056   3.848  0.50 40.28     0.040 A 
HETATM   21  C5'   D T 101     -22.482   8.964   2.497  0.50 40.14     0.005 A 
HETATM   22  C6'   D T 101     -23.168  10.009   1.875  0.50 40.31     0.024 A 
BRANCH  20  23
HETATM   23  C9'   D T 101     -21.398   7.942   4.539  0.50 40.31     0.205 C 
HETATM   24  N1'   D T 101     -20.138   7.931   4.549  0.50 39.70    -0.125 N 
HETATM   25  N2'   D T 101     -22.061   6.960   5.151  0.50 40.00    -0.125 N 
ENDBRANCH  20  23
ENDBRANCH  16  17
ENDBRANCH  15  16
ENDBRANCH  14  15
ENDBRANCH   1  14
TORSDOF 20
ENDMDL
MODEL 9
REMARK VINA RESULT:    -4.147      4.023      6.813
REMARK INTER + INTRA:          -8.454
REMARK INTER:                  -5.458
REMARK INTRA:                  -2.996
REMARK UNBOUND:                -1.882
REMARK  20 active torsions:
REMARK  status: ('A' for Active; 'I' for Inactive)
REMARK    1  A    between atoms: C1_1  and  O1_20 
REMARK    2  A    between atoms: C4_4  and  C9_9 
REMARK    3  A    between atoms: C7_7  and  C8_8 
REMARK    4  A    between atoms: C7_7  and  O1_20 
REMARK    5  A    between atoms: C8_8  and  C10_10 
REMARK    6  A    between atoms: C10_10  and  C8'_18 
REMARK    7  A    between atoms: C1'_11  and  O1'_21 
REMARK    8  A    between atoms: C4'_14  and  C9'_19 
REMARK    9  A    between atoms: C7'_17  and  C8'_18 
REMARK   10  A    between atoms: C7'_17  and  O1'_21 
REMARK   11  A    between atoms: C1_26  and  O1_45 
REMARK   12  A    between atoms: C4_29  and  C9_34 
REMARK   13  A    between atoms: C7_32  and  C8_33 
REMARK   14  A    between atoms: C7_32  and  O1_45 
REMARK   15  A    between atoms: C8_33  and  C10_35 
REMARK   16  A    between atoms: C10_35  and  C8'_43 
REMARK   17  A    between atoms: C1'_36  and  O1'_46 
REMARK   18  A    between atoms: C4'_39  and  C9'_44 
REMARK   19  A    between atoms: C7'_42  and  C8'_43 
REMARK   20  A    between atoms: C7'_42  and  O1'_46 
ROOT
HETATM    1  C10   D T 101     -22.195  17.944   3.747  0.50 43.26     0.005 C 
ENDROOT
BRANCH   1   2
HETATM    2  C8    D T 101     -23.265  17.409   2.795  0.50 44.23     0.033 C 
BRANCH   2   3
HETATM    3  C7    D T 101     -23.980  16.198   3.395  0.50 45.07     0.149 C 
BRANCH   3   4
HETATM    4  O1    D T 101     -24.071  15.106   2.470  0.50 45.77    -0.331 OA
BRANCH   4   5
HETATM    5  C1    D T 101     -23.803  13.822   2.893  0.50 45.59     0.094 A 
HETATM    6  C2    D T 101     -23.973  12.745   2.022  0.50 45.41     0.024 A 
HETATM    7  C3    D T 101     -23.697  11.445   2.453  0.50 45.63     0.005 A 
HETATM    8  C4    D T 101     -23.252  11.209   3.759  0.50 45.70     0.040 A 
HETATM    9  C5    D T 101     -23.089  12.291   4.623  0.50 45.73     0.005 A 
HETATM   10  C6    D T 101     -23.362  13.589   4.197  0.50 45.57     0.024 A 
BRANCH   8  11
HETATM   11  C9    D T 101     -22.961   9.805   4.238  0.50 45.61     0.205 C 
HETATM   12  N1    D T 101     -21.800   9.317   4.152  0.50 44.78    -0.125 N 
HETATM   13  N2    D T 101     -23.934   9.051   4.749  0.50 45.85    -0.125 N 
ENDBRANCH   8  11
ENDBRANCH   4   5
ENDBRANCH   3   4
ENDBRANCH   2   3
ENDBRANCH   1   2
BRANCH   1  14
HETATM   14  C8'   D T 101     -21.755  16.893   4.765  0.50 42.61     0.033 C 
BRANCH  14  15
HETATM   15  C7'   D T 101     -20.361  16.324   4.489  0.50 41.92     0.149 C 
BRANCH  15  16
HETATM   16  O1'   D T 101     -20.216  15.946   3.115  0.50 41.20    -0.331 OA
BRANCH  16  17
HETATM   17  C1'   D T 101     -20.184  14.641   2.678  0.50 40.56     0.094 A 
HETATM   18  C2'   D T 101     -19.746  13.618   3.513  0.50 40.10     0.024 A 
HETATM   19  C3'   D T 101     -19.705  12.303   3.060  0.50 39.98     0.005 A 
HETATM   20  C4'   D T 101     -20.112  11.993   1.765  0.50 40.28     0.040 A 
HETATM   21  C5'   D T 101     -20.551  13.017   0.920  0.50 40.14     0.005 A 
HETATM   22  C6'   D T 101     -20.585  14.336   1.376  0.50 40.31     0.024 A 
BRANCH  20  23
HETATM   23  C9'   D T 101     -20.067  10.564   1.296  0.50 40.31     0.205 C 
HETATM   24  N1'   D T 101     -20.991  10.108   0.570  0.50 39.70    -0.125 N 
HETATM   25  N2'   D T 101     -19.054   9.767   1.635  0.50 40.00    -0.125 N 
ENDBRANCH  20  23
ENDBRANCH  16  17
ENDBRANCH  15  16
ENDBRANCH  14  15
ENDBRANCH   1  14
TORSDOF 20
ENDMDL
