MODEL 1
REMARK VINA RESULT:    -6.169      0.000      0.000
REMARK INTER + INTRA:         -10.598
REMARK INTER:                  -9.776
REMARK INTRA:                  -0.823
REMARK UNBOUND:                -0.823
REMARK  20 active torsions:
REMARK  status: ('A' for Active; 'I' for Inactive)
REMARK    1  A    between atoms: C1_1  and  O1_20 
REMARK    2  A    between atoms: C4_4  and  C9_9 
REMARK    3  A    between atoms: C7_7  and  C8_8 
REMARK    4  A    between atoms: C7_7  and  O1_20 
REMARK    5  A    between atoms: C8_8  and  C10_10 
REMARK    6  A    between atoms: C10_10  and  C8'_18 
REMARK    7  A    between atoms: C1'_11  and  O1'_21 
REMARK    8  A    between atoms: C4'_14  and  C9'_19 
REMARK    9  A    between atoms: C7'_17  and  C8'_18 
REMARK   10  A    between atoms: C7'_17  and  O1'_21 
REMARK   11  A    between atoms: C1_26  and  O1_45 
REMARK   12  A    between atoms: C4_29  and  C9_34 
REMARK   13  A    between atoms: C7_32  and  C8_33 
REMARK   14  A    between atoms: C7_32  and  O1_45 
REMARK   15  A    between atoms: C8_33  and  C10_35 
REMARK   16  A    between atoms: C10_35  and  C8'_43 
REMARK   17  A    between atoms: C1'_36  and  O1'_46 
REMARK   18  A    between atoms: C4'_39  and  C9'_44 
REMARK   19  A    between atoms: C7'_42  and  C8'_43 
REMARK   20  A    between atoms: C7'_42  and  O1'_46 
ROOT
HETATM    1  C10   D T 101      18.603 -13.172 -14.412  0.50 43.26     0.005 C 
ENDROOT
BRANCH   1   2
HETATM    2  C8    D T 101      19.870 -12.915 -15.228  0.50 44.23     0.033 C 
BRANCH   2   3
HETATM    3  C7    D T 101      20.875 -12.079 -14.438  0.50 45.07     0.149 C 
BRANCH   3   4
HETATM    4  O1    D T 101      20.935 -10.722 -14.895  0.50 45.77    -0.331 OA
BRANCH   4   5
HETATM    5  C1    D T 101      20.855  -9.685 -13.991  0.50 45.59     0.094 A 
HETATM    6  C2    D T 101      21.979  -8.907 -13.712  0.50 45.41     0.024 A 
HETATM    7  C3    D T 101      21.891  -7.853 -12.798  0.50 45.63     0.005 A 
HETATM    8  C4    D T 101      20.682  -7.569 -12.154  0.50 45.70     0.040 A 
HETATM    9  C5    D T 101      19.565  -8.354 -12.438  0.50 45.73     0.005 A 
HETATM   10  C6    D T 101      19.648  -9.406 -13.349  0.50 45.57     0.024 A 
BRANCH   8  11
HETATM   11  C9    D T 101      20.580  -6.439 -11.157  0.50 45.61     0.205 C 
HETATM   12  N1    D T 101      21.292  -5.404 -11.272  0.50 44.78    -0.125 N 
HETATM   13  N2    D T 101      19.740  -6.524 -10.124  0.50 45.85    -0.125 N 
ENDBRANCH   8  11
ENDBRANCH   4   5
ENDBRANCH   3   4
ENDBRANCH   2   3
ENDBRANCH   1   2
BRANCH   1  14
HETATM   14  C8'   D T 101      17.443 -13.646 -15.286  0.50 42.61     0.033 C 
BRANCH  14  15
HETATM   15  C7'   D T 101      17.559 -15.113 -15.708  0.50 41.92     0.149 C 
BRANCH  15  16
HETATM   16  O1'   D T 101      17.291 -15.993 -14.609  0.50 41.20    -0.331 OA
BRANCH  16  17
HETATM   17  C1'   D T 101      16.178 -15.900 -13.808  0.50 40.56     0.094 A 
HETATM   18  C2'   D T 101      14.898 -16.015 -14.342  0.50 40.10     0.024 A 
HETATM   19  C3'   D T 101      13.778 -15.906 -13.525  0.50 39.98     0.005 A 
HETATM   20  C4'   D T 101      13.923 -15.689 -12.158  0.50 40.28     0.040 A 
HETATM   21  C5'   D T 101      15.205 -15.571 -11.615  0.50 40.14     0.005 A 
HETATM   22  C6'   D T 101      16.328 -15.674 -12.437  0.50 40.31     0.024 A 
BRANCH  20  23
HETATM   23  C9'   D T 101      12.698 -15.581 -11.289  0.50 40.31     0.205 C 
HETATM   24  N1'   D T 101      11.849 -16.511 -11.276  0.50 39.70    -0.125 N 
HETATM   25  N2'   D T 101      12.497 -14.509 -10.523  0.50 40.00    -0.125 N 
ENDBRANCH  20  23
ENDBRANCH  16  17
ENDBRANCH  15  16
ENDBRANCH  14  15
ENDBRANCH   1  14
TORSDOF 20
ENDMDL
MODEL 2
REMARK VINA RESULT:    -6.134     19.035     22.251
REMARK INTER + INTRA:         -10.543
REMARK INTER:                  -7.717
REMARK INTRA:                  -2.826
REMARK UNBOUND:                -0.823
REMARK  20 active torsions:
REMARK  status: ('A' for Active; 'I' for Inactive)
REMARK    1  A    between atoms: C1_1  and  O1_20 
REMARK    2  A    between atoms: C4_4  and  C9_9 
REMARK    3  A    between atoms: C7_7  and  C8_8 
REMARK    4  A    between atoms: C7_7  and  O1_20 
REMARK    5  A    between atoms: C8_8  and  C10_10 
REMARK    6  A    between atoms: C10_10  and  C8'_18 
REMARK    7  A    between atoms: C1'_11  and  O1'_21 
REMARK    8  A    between atoms: C4'_14  and  C9'_19 
REMARK    9  A    between atoms: C7'_17  and  C8'_18 
REMARK   10  A    between atoms: C7'_17  and  O1'_21 
REMARK   11  A    between atoms: C1_26  and  O1_45 
REMARK   12  A    between atoms: C4_29  and  C9_34 
REMARK   13  A    between atoms: C7_32  and  C8_33 
REMARK   14  A    between atoms: C7_32  and  O1_45 
REMARK   15  A    between atoms: C8_33  and  C10_35 
REMARK   16  A    between atoms: C10_35  and  C8'_43 
REMARK   17  A    between atoms: C1'_36  and  O1'_46 
REMARK   18  A    between atoms: C4'_39  and  C9'_44 
REMARK   19  A    between atoms: C7'_42  and  C8'_43 
REMARK   20  A    between atoms: C7'_42  and  O1'_46 
ROOT
HETATM    1  C10   D T 101      18.898   5.895  -5.448  0.50 43.26     0.005 C 
ENDROOT
BRANCH   1   2
HETATM    2  C8    D T 101      19.189   4.652  -6.288  0.50 44.23     0.033 C 
BRANCH   2   3
HETATM    3  C7    D T 101      20.081   3.670  -5.530  0.50 45.07     0.149 C 
BRANCH   3   4
HETATM    4  O1    D T 101      20.328   4.086  -4.181  0.50 45.77    -0.331 OA
BRANCH   4   5
HETATM    5  C1    D T 101      21.597   3.999  -3.654  0.50 45.59     0.094 A 
HETATM    6  C2    D T 101      21.806   4.196  -2.288  0.50 45.41     0.024 A 
HETATM    7  C3    D T 101      23.096   4.103  -1.757  0.50 45.63     0.005 A 
HETATM    8  C4    D T 101      24.186   3.813  -2.584  0.50 45.70     0.040 A 
HETATM    9  C5    D T 101      23.968   3.621  -3.948  0.50 45.73     0.005 A 
HETATM   10  C6    D T 101      22.683   3.713  -4.482  0.50 45.57     0.024 A 
BRANCH   8  11
HETATM   11  C9    D T 101      25.585   3.720  -2.020  0.50 45.61     0.205 C 
HETATM   12  N1    D T 101      25.802   3.881  -0.788  0.50 44.78    -0.125 N 
HETATM   13  N2    D T 101      26.621   3.478  -2.825  0.50 45.85    -0.125 N 
ENDBRANCH   8  11
ENDBRANCH   4   5
ENDBRANCH   3   4
ENDBRANCH   2   3
ENDBRANCH   1   2
BRANCH   1  14
HETATM   14  C8'   D T 101      19.857   7.042  -5.768  0.50 42.61     0.033 C 
BRANCH  14  15
HETATM   15  C7'   D T 101      20.804   7.384  -4.616  0.50 41.92     0.149 C 
BRANCH  15  16
HETATM   16  O1'   D T 101      22.171   7.374  -5.045  0.50 41.20    -0.331 OA
BRANCH  16  17
HETATM   17  C1'   D T 101      23.244   7.382  -4.184  0.50 40.56     0.094 A 
HETATM   18  C2'   D T 101      24.528   7.099  -4.637  0.50 40.10     0.024 A 
HETATM   19  C3'   D T 101      25.605   7.097  -3.755  0.50 39.98     0.005 A 
HETATM   20  C4'   D T 101      25.411   7.388  -2.408  0.50 40.28     0.040 A 
HETATM   21  C5'   D T 101      24.123   7.671  -1.947  0.50 40.14     0.005 A 
HETATM   22  C6'   D T 101      23.044   7.666  -2.831  0.50 40.31     0.024 A 
BRANCH  20  23
HETATM   23  C9'   D T 101      26.590   7.387  -1.472  0.50 40.31     0.205 C 
HETATM   24  N1'   D T 101      26.509   7.959  -0.353  0.50 39.70    -0.125 N 
HETATM   25  N2'   D T 101      27.727   6.779  -1.808  0.50 40.00    -0.125 N 
ENDBRANCH  20  23
ENDBRANCH  16  17
ENDBRANCH  15  16
ENDBRANCH  14  15
ENDBRANCH   1  14
TORSDOF 20
ENDMDL
MODEL 3
REMARK VINA RESULT:    -6.094     17.844     22.036
REMARK INTER + INTRA:         -10.479
REMARK INTER:                  -9.301
REMARK INTRA:                  -1.178
REMARK UNBOUND:                -0.823
REMARK  20 active torsions:
REMARK  status: ('A' for Active; 'I' for Inactive)
REMARK    1  A    between atoms: C1_1  and  O1_20 
REMARK    2  A    between atoms: C4_4  and  C9_9 
REMARK    3  A    between atoms: C7_7  and  C8_8 
REMARK    4  A    between atoms: C7_7  and  O1_20 
REMARK    5  A    between atoms: C8_8  and  C10_10 
REMARK    6  A    between atoms: C10_10  and  C8'_18 
REMARK    7  A    between atoms: C1'_11  and  O1'_21 
REMARK    8  A    between atoms: C4'_14  and  C9'_19 
REMARK    9  A    between atoms: C7'_17  and  C8'_18 
REMARK   10  A    between atoms: C7'_17  and  O1'_21 
REMARK   11  A    between atoms: C1_26  and  O1_45 
REMARK   12  A    between atoms: C4_29  and  C9_34 
REMARK   13  A    between atoms: C7_32  and  C8_33 
REMARK   14  A    between atoms: C7_32  and  O1_45 
REMARK   15  A    between atoms: C8_33  and  C10_35 
REMARK   16  A    between atoms: C10_35  and  C8'_43 
REMARK   17  A    between atoms: C1'_36  and  O1'_46 
REMARK   18  A    between atoms: C4'_39  and  C9'_44 
REMARK   19  A    between atoms: C7'_42  and  C8'_43 
REMARK   20  A    between atoms: C7'_42  and  O1'_46 
ROOT
HETATM    1  C10   D T 101      24.295   5.906  -4.329  0.50 43.26     0.005 C 
ENDROOT
BRANCH   1   2
HETATM    2  C8    D T 101      23.894   4.432  -4.375  0.50 44.23     0.033 C 
BRANCH   2   3
HETATM    3  C7    D T 101      22.441   4.242  -3.941  0.50 45.07     0.149 C 
BRANCH   3   4
HETATM    4  O1    D T 101      21.682   3.484  -4.890  0.50 45.77    -0.331 OA
BRANCH   4   5
HETATM    5  C1    D T 101      20.373   3.820  -5.152  0.50 45.59     0.094 A 
HETATM    6  C2    D T 101      19.483   2.860  -5.639  0.50 45.41     0.024 A 
HETATM    7  C3    D T 101      18.155   3.205  -5.899  0.50 45.63     0.005 A 
HETATM    8  C4    D T 101      17.702   4.510  -5.678  0.50 45.70     0.040 A 
HETATM    9  C5    D T 101      18.598   5.463  -5.195  0.50 45.73     0.005 A 
HETATM   10  C6    D T 101      19.925   5.123  -4.933  0.50 45.57     0.024 A 
BRANCH   8  11
HETATM   11  C9    D T 101      16.270   4.895  -5.966  0.50 45.61     0.205 C 
HETATM   12  N1    D T 101      15.783   4.770  -7.123  0.50 44.78    -0.125 N 
HETATM   13  N2    D T 101      15.497   5.389  -4.998  0.50 45.85    -0.125 N 
ENDBRANCH   8  11
ENDBRANCH   4   5
ENDBRANCH   3   4
ENDBRANCH   2   3
ENDBRANCH   1   2
BRANCH   1  14
HETATM   14  C8'   D T 101      23.087   6.825  -4.152  0.50 42.61     0.033 C 
BRANCH  14  15
HETATM   15  C7'   D T 101      23.144   7.668  -2.876  0.50 41.92     0.149 C 
BRANCH  15  16
HETATM   16  O1'   D T 101      22.487   7.008  -1.786  0.50 41.20    -0.331 OA
BRANCH  16  17
HETATM   17  C1'   D T 101      23.153   6.405  -0.744  0.50 40.56     0.094 A 
HETATM   18  C2'   D T 101      22.873   5.092  -0.379  0.50 40.10     0.024 A 
HETATM   19  C3'   D T 101      23.543   4.496   0.685  0.50 39.98     0.005 A 
HETATM   20  C4'   D T 101      24.509   5.204   1.393  0.50 40.28     0.040 A 
HETATM   21  C5'   D T 101      24.793   6.523   1.033  0.50 40.14     0.005 A 
HETATM   22  C6'   D T 101      24.116   7.122  -0.031  0.50 40.31     0.024 A 
BRANCH  20  23
HETATM   23  C9'   D T 101      25.227   4.538   2.537  0.50 40.31     0.205 C 
HETATM   24  N1'   D T 101      26.441   4.793   2.755  0.50 39.70    -0.125 N 
HETATM   25  N2'   D T 101      24.591   3.679   3.333  0.50 40.00    -0.125 N 
ENDBRANCH  20  23
ENDBRANCH  16  17
ENDBRANCH  15  16
ENDBRANCH  14  15
ENDBRANCH   1  14
TORSDOF 20
ENDMDL
MODEL 4
REMARK VINA RESULT:    -6.003      0.982      9.355
REMARK INTER + INTRA:         -10.334
REMARK INTER:                  -9.582
REMARK INTRA:                  -0.752
REMARK UNBOUND:                -0.823
REMARK  20 active torsions:
REMARK  status: ('A' for Active; 'I' for Inactive)
REMARK    1  A    between atoms: C1_1  and  O1_20 
REMARK    2  A    between atoms: C4_4  and  C9_9 
REMARK    3  A    between atoms: C7_7  and  C8_8 
REMARK    4  A    between atoms: C7_7  and  O1_20 
REMARK    5  A    between atoms: C8_8  and  C10_10 
REMARK    6  A    between atoms: C10_10  and  C8'_18 
REMARK    7  A    between atoms: C1'_11  and  O1'_21 
REMARK    8  A    between atoms: C4'_14  and  C9'_19 
REMARK    9  A    between atoms: C7'_17  and  C8'_18 
REMARK   10  A    between atoms: C7'_17  and  O1'_21 
REMARK   11  A    between atoms: C1_26  and  O1_45 
REMARK   12  A    between atoms: C4_29  and  C9_34 
REMARK   13  A    between atoms: C7_32  and  C8_33 
REMARK   14  A    between atoms: C7_32  and  O1_45 
REMARK   15  A    between atoms: C8_33  and  C10_35 
REMARK   16  A    between atoms: C10_35  and  C8'_43 
REMARK   17  A    between atoms: C1'_36  and  O1'_46 
REMARK   18  A    between atoms: C4'_39  and  C9'_44 
REMARK   19  A    between atoms: C7'_42  and  C8'_43 
REMARK   20  A    between atoms: C7'_42  and  O1'_46 
ROOT
HETATM    1  C10   D T 101      18.675 -13.220 -14.837  0.50 43.26     0.005 C 
ENDROOT
BRANCH   1   2
HETATM    2  C8    D T 101      17.448 -14.071 -14.510  0.50 44.23     0.033 C 
BRANCH   2   3
HETATM    3  C7    D T 101      17.851 -15.383 -13.837  0.50 45.07     0.149 C 
BRANCH   3   4
HETATM    4  O1    D T 101      16.752 -16.296 -13.720  0.50 45.77    -0.331 OA
BRANCH   4   5
HETATM    5  C1    D T 101      15.640 -15.946 -12.987  0.50 45.59     0.094 A 
HETATM    6  C2    D T 101      14.373 -15.974 -13.573  0.50 45.41     0.024 A 
HETATM    7  C3    D T 101      13.248 -15.622 -12.824  0.50 45.63     0.005 A 
HETATM    8  C4    D T 101      13.376 -15.238 -11.485  0.50 45.70     0.040 A 
HETATM    9  C5    D T 101      14.646 -15.210 -10.909  0.50 45.73     0.005 A 
HETATM   10  C6    D T 101      15.771 -15.561 -11.652  0.50 45.57     0.024 A 
BRANCH   8  11
HETATM   11  C9    D T 101      12.166 -14.847 -10.670  0.50 45.61     0.205 C 
HETATM   12  N1    D T 101      12.092 -13.715 -10.117  0.50 44.78    -0.125 N 
HETATM   13  N2    D T 101      11.156 -15.703 -10.508  0.50 45.85    -0.125 N 
ENDBRANCH   8  11
ENDBRANCH   4   5
ENDBRANCH   3   4
ENDBRANCH   2   3
ENDBRANCH   1   2
BRANCH   1  14
HETATM   14  C8'   D T 101      19.715 -13.258 -13.718  0.50 42.61     0.033 C 
BRANCH  14  15
HETATM   15  C7'   D T 101      21.024 -12.551 -14.079  0.50 41.92     0.149 C 
BRANCH  15  16
HETATM   16  O1'   D T 101      20.778 -11.331 -14.789  0.50 41.20    -0.331 OA
BRANCH  16  17
HETATM   17  C1'   D T 101      20.831 -10.084 -14.210  0.50 40.56     0.094 A 
HETATM   18  C2'   D T 101      21.928  -9.250 -14.405  0.50 40.10     0.024 A 
HETATM   19  C3'   D T 101      21.977  -7.996 -13.805  0.50 39.98     0.005 A 
HETATM   20  C4'   D T 101      20.924  -7.555 -13.008  0.50 40.28     0.040 A 
HETATM   21  C5'   D T 101      19.822  -8.389 -12.807  0.50 40.14     0.005 A 
HETATM   22  C6'   D T 101      19.776  -9.649 -13.405  0.50 40.31     0.024 A 
BRANCH  20  23
HETATM   23  C9'   D T 101      20.995  -6.192 -12.373  0.50 40.31     0.205 C 
HETATM   24  N1'   D T 101      21.415  -6.066 -11.192  0.50 39.70    -0.125 N 
HETATM   25  N2'   D T 101      20.623  -5.105 -13.048  0.50 40.00    -0.125 N 
ENDBRANCH  20  23
ENDBRANCH  16  17
ENDBRANCH  15  16
ENDBRANCH  14  15
ENDBRANCH   1  14
TORSDOF 20
ENDMDL
MODEL 5
REMARK VINA RESULT:    -5.852     18.339     22.029
REMARK INTER + INTRA:         -10.096
REMARK INTER:                  -8.988
REMARK INTRA:                  -1.108
REMARK UNBOUND:                -0.823
REMARK  20 active torsions:
REMARK  status: ('A' for Active; 'I' for Inactive)
REMARK    1  A    between atoms: C1_1  and  O1_20 
REMARK    2  A    between atoms: C4_4  and  C9_9 
REMARK    3  A    between atoms: C7_7  and  C8_8 
REMARK    4  A    between atoms: C7_7  and  O1_20 
REMARK    5  A    between atoms: C8_8  and  C10_10 
REMARK    6  A    between atoms: C10_10  and  C8'_18 
REMARK    7  A    between atoms: C1'_11  and  O1'_21 
REMARK    8  A    between atoms: C4'_14  and  C9'_19 
REMARK    9  A    between atoms: C7'_17  and  C8'_18 
REMARK   10  A    between atoms: C7'_17  and  O1'_21 
REMARK   11  A    between atoms: C1_26  and  O1_45 
REMARK   12  A    between atoms: C4_29  and  C9_34 
REMARK   13  A    between atoms: C7_32  and  C8_33 
REMARK   14  A    between atoms: C7_32  and  O1_45 
REMARK   15  A    between atoms: C8_33  and  C10_35 
REMARK   16  A    between atoms: C10_35  and  C8'_43 
REMARK   17  A    between atoms: C1'_36  and  O1'_46 
REMARK   18  A    between atoms: C4'_39  and  C9'_44 
REMARK   19  A    between atoms: C7'_42  and  C8'_43 
REMARK   20  A    between atoms: C7'_42  and  O1'_46 
ROOT
HETATM    1  C10   D T 101      24.974   5.267  -3.866  0.50 43.26     0.005 C 
ENDROOT
BRANCH   1   2
HETATM    2  C8    D T 101      24.128   6.439  -3.369  0.50 44.23     0.033 C 
BRANCH   2   3
HETATM    3  C7    D T 101      22.870   5.948  -2.655  0.50 45.07     0.149 C 
BRANCH   3   4
HETATM    4  O1    D T 101      21.687   6.616  -3.111  0.50 45.77    -0.331 OA
BRANCH   4   5
HETATM    5  C1    D T 101      20.768   5.942  -3.884  0.50 45.59     0.094 A 
HETATM    6  C2    D T 101      20.942   4.584  -4.160  0.50 45.41     0.024 A 
HETATM    7  C3    D T 101      20.005   3.903  -4.941  0.50 45.63     0.005 A 
HETATM    8  C4    D T 101      18.888   4.570  -5.454  0.50 45.70     0.040 A 
HETATM    9  C5    D T 101      18.723   5.927  -5.176  0.50 45.73     0.005 A 
HETATM   10  C6    D T 101      19.656   6.610  -4.397  0.50 45.57     0.024 A 
BRANCH   8  11
HETATM   11  C9    D T 101      17.874   3.844  -6.308  0.50 45.61     0.205 C 
HETATM   12  N1    D T 101      17.960   2.601  -6.503  0.50 44.78    -0.125 N 
HETATM   13  N2    D T 101      16.874   4.513  -6.884  0.50 45.85    -0.125 N 
ENDBRANCH   8  11
ENDBRANCH   4   5
ENDBRANCH   3   4
ENDBRANCH   2   3
ENDBRANCH   1   2
BRANCH   1  14
HETATM   14  C8'   D T 101      24.480   3.930  -3.315  0.50 42.61     0.033 C 
BRANCH  14  15
HETATM   15  C7'   D T 101      25.471   3.262  -2.357  0.50 41.92     0.149 C 
BRANCH  15  16
HETATM   16  O1'   D T 101      25.903   4.172  -1.338  0.50 41.20    -0.331 OA
BRANCH  16  17
HETATM   17  C1'   D T 101      25.574   4.043  -0.008  0.50 40.56     0.094 A 
HETATM   18  C2'   D T 101      24.439   4.656   0.512  0.50 40.10     0.024 A 
HETATM   19  C3'   D T 101      24.122   4.530   1.861  0.50 39.98     0.005 A 
HETATM   20  C4'   D T 101      24.934   3.780   2.706  0.50 40.28     0.040 A 
HETATM   21  C5'   D T 101      26.076   3.164   2.191  0.50 40.14     0.005 A 
HETATM   22  C6'   D T 101      26.396   3.296   0.839  0.50 40.31     0.024 A 
BRANCH  20  23
HETATM   23  C9'   D T 101      24.570   3.651   4.162  0.50 40.31     0.205 C 
HETATM   24  N1'   D T 101      25.248   4.249   5.039  0.50 39.70    -0.125 N 
HETATM   25  N2'   D T 101      23.528   2.911   4.541  0.50 40.00    -0.125 N 
ENDBRANCH  20  23
ENDBRANCH  16  17
ENDBRANCH  15  16
ENDBRANCH  14  15
ENDBRANCH   1  14
TORSDOF 20
ENDMDL
MODEL 6
REMARK VINA RESULT:    -5.851     17.691     20.793
REMARK INTER + INTRA:         -10.095
REMARK INTER:                  -9.155
REMARK INTRA:                  -0.939
REMARK UNBOUND:                -0.823
REMARK  20 active torsions:
REMARK  status: ('A' for Active; 'I' for Inactive)
REMARK    1  A    between atoms: C1_1  and  O1_20 
REMARK    2  A    between atoms: C4_4  and  C9_9 
REMARK    3  A    between atoms: C7_7  and  C8_8 
REMARK    4  A    between atoms: C7_7  and  O1_20 
REMARK    5  A    between atoms: C8_8  and  C10_10 
REMARK    6  A    between atoms: C10_10  and  C8'_18 
REMARK    7  A    between atoms: C1'_11  and  O1'_21 
REMARK    8  A    between atoms: C4'_14  and  C9'_19 
REMARK    9  A    between atoms: C7'_17  and  C8'_18 
REMARK   10  A    between atoms: C7'_17  and  O1'_21 
REMARK   11  A    between atoms: C1_26  and  O1_45 
REMARK   12  A    between atoms: C4_29  and  C9_34 
REMARK   13  A    between atoms: C7_32  and  C8_33 
REMARK   14  A    between atoms: C7_32  and  O1_45 
REMARK   15  A    between atoms: C8_33  and  C10_35 
REMARK   16  A    between atoms: C10_35  and  C8'_43 
REMARK   17  A    between atoms: C1'_36  and  O1'_46 
REMARK   18  A    between atoms: C4'_39  and  C9'_44 
REMARK   19  A    between atoms: C7'_42  and  C8'_43 
REMARK   20  A    between atoms: C7'_42  and  O1'_46 
ROOT
HETATM    1  C10   D T 101      21.809   5.720  -2.652  0.50 43.26     0.005 C 
ENDROOT
BRANCH   1   2
HETATM    2  C8    D T 101      21.739   4.238  -3.019  0.50 44.23     0.033 C 
BRANCH   2   3
HETATM    3  C7    D T 101      22.089   4.017  -4.490  0.50 45.07     0.149 C 
BRANCH   3   4
HETATM    4  O1    D T 101      21.183   3.115  -5.138  0.50 45.77    -0.331 OA
BRANCH   4   5
HETATM    5  C1    D T 101      19.874   3.486  -5.349  0.50 45.59     0.094 A 
HETATM    6  C2    D T 101      18.857   2.531  -5.311  0.50 45.41     0.024 A 
HETATM    7  C3    D T 101      17.530   2.913  -5.522  0.50 45.63     0.005 A 
HETATM    8  C4    D T 101      17.206   4.250  -5.774  0.50 45.70     0.040 A 
HETATM    9  C5    D T 101      18.229   5.197  -5.812  0.50 45.73     0.005 A 
HETATM   10  C6    D T 101      19.554   4.821  -5.602  0.50 45.57     0.024 A 
BRANCH   8  11
HETATM   11  C9    D T 101      15.775   4.671  -6.012  0.50 45.61     0.205 C 
HETATM   12  N1    D T 101      15.382   5.021  -7.159  0.50 44.78    -0.125 N 
HETATM   13  N2    D T 101      14.901   4.694  -5.004  0.50 45.85    -0.125 N 
ENDBRANCH   8  11
ENDBRANCH   4   5
ENDBRANCH   3   4
ENDBRANCH   2   3
ENDBRANCH   1   2
BRANCH   1  14
HETATM   14  C8'   D T 101      22.998   6.031  -1.745  0.50 42.61     0.033 C 
BRANCH  14  15
HETATM   15  C7'   D T 101      23.534   4.805  -1.001  0.50 41.92     0.149 C 
BRANCH  15  16
HETATM   16  O1'   D T 101      24.967   4.786  -0.992  0.50 41.20    -0.331 OA
BRANCH  16  17
HETATM   17  C1'   D T 101      25.729   4.123  -1.926  0.50 40.56     0.094 A 
HETATM   18  C2'   D T 101      27.096   4.359  -2.033  0.50 40.10     0.024 A 
HETATM   19  C3'   D T 101      27.856   3.693  -2.989  0.50 39.98     0.005 A 
HETATM   20  C4'   D T 101      27.258   2.773  -3.846  0.50 40.28     0.040 A 
HETATM   21  C5'   D T 101      25.886   2.533  -3.745  0.50 40.14     0.005 A 
HETATM   22  C6'   D T 101      25.124   3.207  -2.789  0.50 40.31     0.024 A 
BRANCH  20  23
HETATM   23  C9'   D T 101      28.100   2.058  -4.869  0.50 40.31     0.205 C 
HETATM   24  N1'   D T 101      28.743   1.024  -4.548  0.50 39.70    -0.125 N 
HETATM   25  N2'   D T 101      28.171   2.502  -6.124  0.50 40.00    -0.125 N 
ENDBRANCH  20  23
ENDBRANCH  16  17
ENDBRANCH  15  16
ENDBRANCH  14  15
ENDBRANCH   1  14
TORSDOF 20
ENDMDL
MODEL 7
REMARK VINA RESULT:    -5.851     18.314     21.048
REMARK INTER + INTRA:         -10.094
REMARK INTER:                  -8.556
REMARK INTRA:                  -1.538
REMARK UNBOUND:                -0.823
REMARK  20 active torsions:
REMARK  status: ('A' for Active; 'I' for Inactive)
REMARK    1  A    between atoms: C1_1  and  O1_20 
REMARK    2  A    between atoms: C4_4  and  C9_9 
REMARK    3  A    between atoms: C7_7  and  C8_8 
REMARK    4  A    between atoms: C7_7  and  O1_20 
REMARK    5  A    between atoms: C8_8  and  C10_10 
REMARK    6  A    between atoms: C10_10  and  C8'_18 
REMARK    7  A    between atoms: C1'_11  and  O1'_21 
REMARK    8  A    between atoms: C4'_14  and  C9'_19 
REMARK    9  A    between atoms: C7'_17  and  C8'_18 
REMARK   10  A    between atoms: C7'_17  and  O1'_21 
REMARK   11  A    between atoms: C1_26  and  O1_45 
REMARK   12  A    between atoms: C4_29  and  C9_34 
REMARK   13  A    between atoms: C7_32  and  C8_33 
REMARK   14  A    between atoms: C7_32  and  O1_45 
REMARK   15  A    between atoms: C8_33  and  C10_35 
REMARK   16  A    between atoms: C10_35  and  C8'_43 
REMARK   17  A    between atoms: C1'_36  and  O1'_46 
REMARK   18  A    between atoms: C4'_39  and  C9'_44 
REMARK   19  A    between atoms: C7'_42  and  C8'_43 
REMARK   20  A    between atoms: C7'_42  and  O1'_46 
ROOT
HETATM    1  C10   D T 101      24.725   6.226  -4.516  0.50 43.26     0.005 C 
ENDROOT
BRANCH   1   2
HETATM    2  C8    D T 101      26.037   5.483  -4.265  0.50 44.23     0.033 C 
BRANCH   2   3
HETATM    3  C7    D T 101      25.880   3.985  -4.521  0.50 45.07     0.149 C 
BRANCH   3   4
HETATM    4  O1    D T 101      26.018   3.209  -3.324  0.50 45.77    -0.331 OA
BRANCH   4   5
HETATM    5  C1    D T 101      25.402   3.618  -2.162  0.50 45.59     0.094 A 
HETATM    6  C2    D T 101      26.165   4.060  -1.080  0.50 45.41     0.024 A 
HETATM    7  C3    D T 101      25.535   4.478   0.096  0.50 45.63     0.005 A 
HETATM    8  C4    D T 101      24.140   4.458   0.201  0.50 45.70     0.040 A 
HETATM    9  C5    D T 101      23.387   4.013  -0.885  0.50 45.73     0.005 A 
HETATM   10  C6    D T 101      24.011   3.595  -2.059  0.50 45.57     0.024 A 
BRANCH   8  11
HETATM   11  C9    D T 101      23.452   4.900   1.471  0.50 45.61     0.205 C 
HETATM   12  N1    D T 101      23.721   4.360   2.579  0.50 44.78    -0.125 N 
HETATM   13  N2    D T 101      22.530   5.864   1.439  0.50 45.85    -0.125 N 
ENDBRANCH   8  11
ENDBRANCH   4   5
ENDBRANCH   3   4
ENDBRANCH   2   3
ENDBRANCH   1   2
BRANCH   1  14
HETATM   14  C8'   D T 101      24.219   6.936  -3.260  0.50 42.61     0.033 C 
BRANCH  14  15
HETATM   15  C7'   D T 101      22.806   7.504  -3.410  0.50 41.92     0.149 C 
BRANCH  15  16
HETATM   16  O1'   D T 101      21.822   6.591  -2.909  0.50 41.20    -0.331 OA
BRANCH  16  17
HETATM   17  C1'   D T 101      20.889   5.961  -3.700  0.50 40.56     0.094 A 
HETATM   18  C2'   D T 101      19.711   6.603  -4.067  0.50 40.10     0.024 A 
HETATM   19  C3'   D T 101      18.768   5.953  -4.858  0.50 39.98     0.005 A 
HETATM   20  C4'   D T 101      18.997   4.653  -5.300  0.50 40.28     0.040 A 
HETATM   21  C5'   D T 101      20.177   4.003  -4.933  0.50 40.14     0.005 A 
HETATM   22  C6'   D T 101      21.119   4.654  -4.135  0.50 40.31     0.024 A 
BRANCH  20  23
HETATM   23  C9'   D T 101      17.966   3.970  -6.159  0.50 40.31     0.205 C 
HETATM   24  N1'   D T 101      18.027   2.727  -6.351  0.50 39.70    -0.125 N 
HETATM   25  N2'   D T 101      16.979   4.666  -6.722  0.50 40.00    -0.125 N 
ENDBRANCH  20  23
ENDBRANCH  16  17
ENDBRANCH  15  16
ENDBRANCH  14  15
ENDBRANCH   1  14
TORSDOF 20
ENDMDL
MODEL 8
REMARK VINA RESULT:    -5.849     18.009     21.447
REMARK INTER + INTRA:         -10.091
REMARK INTER:                  -8.745
REMARK INTRA:                  -1.346
REMARK UNBOUND:                -0.823
REMARK  20 active torsions:
REMARK  status: ('A' for Active; 'I' for Inactive)
REMARK    1  A    between atoms: C1_1  and  O1_20 
REMARK    2  A    between atoms: C4_4  and  C9_9 
REMARK    3  A    between atoms: C7_7  and  C8_8 
REMARK    4  A    between atoms: C7_7  and  O1_20 
REMARK    5  A    between atoms: C8_8  and  C10_10 
REMARK    6  A    between atoms: C10_10  and  C8'_18 
REMARK    7  A    between atoms: C1'_11  and  O1'_21 
REMARK    8  A    between atoms: C4'_14  and  C9'_19 
REMARK    9  A    between atoms: C7'_17  and  C8'_18 
REMARK   10  A    between atoms: C7'_17  and  O1'_21 
REMARK   11  A    between atoms: C1_26  and  O1_45 
REMARK   12  A    between atoms: C4_29  and  C9_34 
REMARK   13  A    between atoms: C7_32  and  C8_33 
REMARK   14  A    between atoms: C7_32  and  O1_45 
REMARK   15  A    between atoms: C8_33  and  C10_35 
REMARK   16  A    between atoms: C10_35  and  C8'_43 
REMARK   17  A    between atoms: C1'_36  and  O1'_46 
REMARK   18  A    between atoms: C4'_39  and  C9'_44 
REMARK   19  A    between atoms: C7'_42  and  C8'_43 
REMARK   20  A    between atoms: C7'_42  and  O1'_46 
ROOT
HETATM    1  C10   D T 101      24.394   7.551  -1.384  0.50 43.26     0.005 C 
ENDROOT
BRANCH   1   2
HETATM    2  C8    D T 101      23.486   7.837  -2.579  0.50 44.23     0.033 C 
BRANCH   2   3
HETATM    3  C7    D T 101      22.359   6.809  -2.674  0.50 45.07     0.149 C 
BRANCH   3   4
HETATM    4  O1    D T 101      22.495   5.955  -3.817  0.50 45.77    -0.331 OA
BRANCH   4   5
HETATM    5  C1    D T 101      21.389   5.321  -4.339  0.50 45.59     0.094 A 
HETATM    6  C2    D T 101      20.236   6.049  -4.637  0.50 45.41     0.024 A 
HETATM    7  C3    D T 101      19.118   5.401  -5.171  0.50 45.63     0.005 A 
HETATM    8  C4    D T 101      19.141   4.023  -5.410  0.50 45.70     0.040 A 
HETATM    9  C5    D T 101      20.297   3.304  -5.106  0.50 45.73     0.005 A 
HETATM   10  C6    D T 101      21.414   3.945  -4.574  0.50 45.57     0.024 A 
BRANCH   8  11
HETATM   11  C9    D T 101      17.934   3.314  -5.977  0.50 45.61     0.205 C 
HETATM   12  N1    D T 101      17.304   3.788  -6.962  0.50 44.78    -0.125 N 
HETATM   13  N2    D T 101      17.504   2.174  -5.433  0.50 45.85    -0.125 N 
ENDBRANCH   8  11
ENDBRANCH   4   5
ENDBRANCH   3   4
ENDBRANCH   2   3
ENDBRANCH   1   2
BRANCH   1  14
HETATM   14  C8'   D T 101      23.639   6.881  -0.236  0.50 42.61     0.033 C 
BRANCH  14  15
HETATM   15  C7'   D T 101      24.455   5.805   0.485  0.50 41.92     0.149 C 
BRANCH  15  16
HETATM   16  O1'   D T 101      24.249   4.514  -0.103  0.50 41.20    -0.331 OA
BRANCH  16  17
HETATM   17  C1'   D T 101      24.949   4.049  -1.191  0.50 40.56     0.094 A 
HETATM   18  C2'   D T 101      24.287   3.571  -2.318  0.50 40.10     0.024 A 
HETATM   19  C3'   D T 101      25.003   3.091  -3.409  0.50 39.98     0.005 A 
HETATM   20  C4'   D T 101      26.395   3.090  -3.391  0.50 40.28     0.040 A 
HETATM   21  C5'   D T 101      27.066   3.565  -2.262  0.50 40.14     0.005 A 
HETATM   22  C6'   D T 101      26.345   4.042  -1.166  0.50 40.31     0.024 A 
BRANCH  20  23
HETATM   23  C9'   D T 101      27.152   2.571  -4.585  0.50 40.31     0.205 C 
HETATM   24  N1'   D T 101      27.388   3.330  -5.562  0.50 39.70    -0.125 N 
HETATM   25  N2'   D T 101      27.586   1.311  -4.623  0.50 40.00    -0.125 N 
ENDBRANCH  20  23
ENDBRANCH  16  17
ENDBRANCH  15  16
ENDBRANCH  14  15
ENDBRANCH   1  14
TORSDOF 20
ENDMDL
MODEL 9
REMARK VINA RESULT:    -5.724     19.040     21.259
REMARK INTER + INTRA:          -9.892
REMARK INTER:                  -8.413
REMARK INTRA:                  -1.479
REMARK UNBOUND:                -0.823
REMARK  20 active torsions:
REMARK  status: ('A' for Active; 'I' for Inactive)
REMARK    1  A    between atoms: C1_1  and  O1_20 
REMARK    2  A    between atoms: C4_4  and  C9_9 
REMARK    3  A    between atoms: C7_7  and  C8_8 
REMARK    4  A    between atoms: C7_7  and  O1_20 
REMARK    5  A    between atoms: C8_8  and  C10_10 
REMARK    6  A    between atoms: C10_10  and  C8'_18 
REMARK    7  A    between atoms: C1'_11  and  O1'_21 
REMARK    8  A    between atoms: C4'_14  and  C9'_19 
REMARK    9  A    between atoms: C7'_17  and  C8'_18 
REMARK   10  A    between atoms: C7'_17  and  O1'_21 
REMARK   11  A    between atoms: C1_26  and  O1_45 
REMARK   12  A    between atoms: C4_29  and  C9_34 
REMARK   13  A    between atoms: C7_32  and  C8_33 
REMARK   14  A    between atoms: C7_32  and  O1_45 
REMARK   15  A    between atoms: C8_33  and  C10_35 
REMARK   16  A    between atoms: C10_35  and  C8'_43 
REMARK   17  A    between atoms: C1'_36  and  O1'_46 
REMARK   18  A    between atoms: C4'_39  and  C9'_44 
REMARK   19  A    between atoms: C7'_42  and  C8'_43 
REMARK   20  A    between atoms: C7'_42  and  O1'_46 
ROOT
HETATM    1  C10   D T 101      24.510   7.579  -0.568  0.50 43.26     0.005 C 
ENDROOT
BRANCH   1   2
HETATM    2  C8    D T 101      23.571   6.764   0.322  0.50 44.23     0.033 C 
BRANCH   2   3
HETATM    3  C7    D T 101      24.320   5.633   1.025  0.50 45.07     0.149 C 
BRANCH   3   4
HETATM    4  O1    D T 101      24.075   4.357   0.420  0.50 45.77    -0.331 OA
BRANCH   4   5
HETATM    5  C1    D T 101      24.758   3.991  -0.718  0.50 45.59     0.094 A 
HETATM    6  C2    D T 101      26.154   4.007  -0.737  0.50 45.41     0.024 A 
HETATM    7  C3    D T 101      26.842   3.631  -1.894  0.50 45.63     0.005 A 
HETATM    8  C4    D T 101      26.145   3.236  -3.040  0.50 45.70     0.040 A 
HETATM    9  C5    D T 101      24.751   3.226  -3.013  0.50 45.73     0.005 A 
HETATM   10  C6    D T 101      24.060   3.600  -1.861  0.50 45.57     0.024 A 
BRANCH   8  11
HETATM   11  C9    D T 101      26.881   2.837  -4.298  0.50 45.61     0.205 C 
HETATM   12  N1    D T 101      27.341   3.707  -5.086  0.50 44.78    -0.125 N 
HETATM   13  N2    D T 101      27.043   1.549  -4.604  0.50 45.85    -0.125 N 
ENDBRANCH   8  11
ENDBRANCH   4   5
ENDBRANCH   3   4
ENDBRANCH   2   3
ENDBRANCH   1   2
BRANCH   1  14
HETATM   14  C8'   D T 101      24.135   7.474  -2.045  0.50 42.61     0.033 C 
BRANCH  14  15
HETATM   15  C7'   D T 101      22.676   7.069  -2.276  0.50 41.92     0.149 C 
BRANCH  15  16
HETATM   16  O1'   D T 101      22.566   6.093  -3.319  0.50 41.20    -0.331 OA
BRANCH  16  17
HETATM   17  C1'   D T 101      21.378   5.747  -3.921  0.50 40.56     0.094 A 
HETATM   18  C2'   D T 101      21.216   4.505  -4.525  0.50 40.10     0.024 A 
HETATM   19  C3'   D T 101      20.015   4.169  -5.142  0.50 39.98     0.005 A 
HETATM   20  C4'   D T 101      18.955   5.072  -5.155  0.50 40.28     0.040 A 
HETATM   21  C5'   D T 101      19.112   6.322  -4.553  0.50 40.14     0.005 A 
HETATM   22  C6'   D T 101      20.320   6.659  -3.939  0.50 40.31     0.024 A 
BRANCH  20  23
HETATM   23  C9'   D T 101      17.662   4.687  -5.823  0.50 40.31     0.205 C 
HETATM   24  N1'   D T 101      16.571   5.163  -5.410  0.50 39.70    -0.125 N 
HETATM   25  N2'   D T 101      17.652   3.847  -6.857  0.50 40.00    -0.125 N 
ENDBRANCH  20  23
ENDBRANCH  16  17
ENDBRANCH  15  16
ENDBRANCH  14  15
ENDBRANCH   1  14
TORSDOF 20
ENDMDL
