MODEL 1
REMARK VINA RESULT:    -3.307      0.000      0.000
REMARK INTER + INTRA:          -7.833
REMARK INTER:                  -5.241
REMARK INTRA:                  -2.592
REMARK UNBOUND:                -2.592
REMARK  20 active torsions:
REMARK  status: ('A' for Active; 'I' for Inactive)
REMARK    1  A    between atoms: C1_1  and  O1_20 
REMARK    2  A    between atoms: C4_4  and  C9_9 
REMARK    3  A    between atoms: C7_7  and  C8_8 
REMARK    4  A    between atoms: C7_7  and  O1_20 
REMARK    5  A    between atoms: C8_8  and  C10_10 
REMARK    6  A    between atoms: C10_10  and  C8'_18 
REMARK    7  A    between atoms: C1'_11  and  O1'_21 
REMARK    8  A    between atoms: C4'_14  and  C9'_19 
REMARK    9  A    between atoms: C7'_17  and  C8'_18 
REMARK   10  A    between atoms: C7'_17  and  O1'_21 
REMARK   11  A    between atoms: C1@A_26  and  O1@A_45 
REMARK   12  A    between atoms: C4@A_29  and  C9@A_34 
REMARK   13  A    between atoms: C7@A_32  and  C8@A_33 
REMARK   14  A    between atoms: C7@A_32  and  O1@A_45 
REMARK   15  A    between atoms: C8@A_33  and  C10@A_35 
REMARK   16  A    between atoms: C10@A_35  and  C8'@A_43 
REMARK   17  A    between atoms: C1'@A_36  and  O1'@A_46 
REMARK   18  A    between atoms: C4'@A_39  and  C9'@A_44 
REMARK   19  A    between atoms: C7'@A_42  and  C8'@A_43 
REMARK   20  A    between atoms: C7'@A_42  and  O1'@A_46 
ROOT
HETATM    1  C10   D T  94     -12.306 -18.911  12.363  0.50 67.66     0.005 C 
ENDROOT
BRANCH   1   2
HETATM    2  C8    D T  94     -11.784 -18.162  11.156  0.50 68.37     0.033 C 
BRANCH   2   3
HETATM    3  C7    D T  94     -12.623 -18.562   9.953  0.50 67.29     0.149 C 
BRANCH   3   4
HETATM    4  O1    D T  94     -12.013 -19.628   9.281  0.50 67.79    -0.331 OA
BRANCH   4   5
HETATM    5  C1    D T  94     -12.625 -20.843   9.127  0.50 68.34     0.094 A 
HETATM    6  C2    D T  94     -12.660 -21.542   7.927  0.50 67.57     0.024 A 
HETATM    7  C3    D T  94     -13.287 -22.771   7.808  0.50 67.80     0.005 A 
HETATM    8  C4    D T  94     -13.884 -23.314   8.927  0.50 68.01     0.040 A 
HETATM    9  C5    D T  94     -13.867 -22.622  10.124  0.50 67.86     0.005 A 
HETATM   10  C6    D T  94     -13.239 -21.396  10.232  0.50 68.10     0.024 A 
BRANCH   8  11
HETATM   11  C9    D T  94     -14.581 -24.632   8.884  0.50 68.61     0.205 C 
HETATM   12  N1    D T  94     -15.813 -24.707   8.643  0.50 69.27    -0.125 N 
HETATM   13  N2    D T  94     -13.882 -25.747   9.082  0.50 69.71    -0.125 N 
ENDBRANCH   8  11
ENDBRANCH   4   5
ENDBRANCH   3   4
ENDBRANCH   2   3
ENDBRANCH   1   2
BRANCH   1  14
HETATM   14  C8'   D T  94     -11.130 -19.328  13.227  0.50 66.82     0.033 C 
BRANCH  14  15
HETATM   15  C7'   D T  94     -10.684 -20.741  12.905  0.50 66.64     0.149 C 
BRANCH  15  16
HETATM   16  O1'   D T  94      -9.589 -20.755  12.019  0.50 65.96    -0.331 OA
BRANCH  16  17
HETATM   17  C1'   D T  94      -9.541 -21.602  10.939  0.50 66.90     0.094 A 
HETATM   18  C2'   D T  94      -8.969 -21.250   9.720  0.50 66.33     0.024 A 
HETATM   19  C3'   D T  94      -8.938 -22.105   8.630  0.50 66.35     0.005 A 
HETATM   20  C4'   D T  94      -9.476 -23.365   8.781  0.50 66.52     0.040 A 
HETATM   21  C5'   D T  94     -10.051 -23.732   9.988  0.50 66.57     0.005 A 
HETATM   22  C6'   D T  94     -10.088 -22.862  11.066  0.50 66.88     0.024 A 
BRANCH  20  23
HETATM   23  C9'   D T  94      -9.492 -24.359   7.669  0.50 67.13     0.205 C 
HETATM   24  N1'   D T  94      -8.471 -24.622   6.974  0.50 67.44    -0.125 N 
HETATM   25  N2'   D T  94     -10.644 -24.977   7.414  0.50 68.12    -0.125 N 
ENDBRANCH  20  23
ENDBRANCH  16  17
ENDBRANCH  15  16
ENDBRANCH  14  15
ENDBRANCH   1  14
TORSDOF 20
ENDMDL
MODEL 2
REMARK VINA RESULT:    -3.301      7.131     10.085
REMARK INTER + INTRA:          -7.823
REMARK INTER:                  -6.921
REMARK INTRA:                  -0.902
REMARK UNBOUND:                -2.592
REMARK  20 active torsions:
REMARK  status: ('A' for Active; 'I' for Inactive)
REMARK    1  A    between atoms: C1_1  and  O1_20 
REMARK    2  A    between atoms: C4_4  and  C9_9 
REMARK    3  A    between atoms: C7_7  and  C8_8 
REMARK    4  A    between atoms: C7_7  and  O1_20 
REMARK    5  A    between atoms: C8_8  and  C10_10 
REMARK    6  A    between atoms: C10_10  and  C8'_18 
REMARK    7  A    between atoms: C1'_11  and  O1'_21 
REMARK    8  A    between atoms: C4'_14  and  C9'_19 
REMARK    9  A    between atoms: C7'_17  and  C8'_18 
REMARK   10  A    between atoms: C7'_17  and  O1'_21 
REMARK   11  A    between atoms: C1@A_26  and  O1@A_45 
REMARK   12  A    between atoms: C4@A_29  and  C9@A_34 
REMARK   13  A    between atoms: C7@A_32  and  C8@A_33 
REMARK   14  A    between atoms: C7@A_32  and  O1@A_45 
REMARK   15  A    between atoms: C8@A_33  and  C10@A_35 
REMARK   16  A    between atoms: C10@A_35  and  C8'@A_43 
REMARK   17  A    between atoms: C1'@A_36  and  O1'@A_46 
REMARK   18  A    between atoms: C4'@A_39  and  C9'@A_44 
REMARK   19  A    between atoms: C7'@A_42  and  C8'@A_43 
REMARK   20  A    between atoms: C7'@A_42  and  O1'@A_46 
ROOT
HETATM    1  C10   D T  94     -19.386 -23.961   5.570  0.50 67.66     0.005 C 
ENDROOT
BRANCH   1   2
HETATM    2  C8    D T  94     -20.008 -23.321   6.792  0.50 68.37     0.033 C 
BRANCH   2   3
HETATM    3  C7    D T  94     -19.221 -23.771   8.012  0.50 67.29     0.149 C 
BRANCH   3   4
HETATM    4  O1    D T  94     -17.865 -23.467   7.842  0.50 67.79    -0.331 OA
BRANCH   4   5
HETATM    5  C1    D T  94     -16.869 -24.334   8.206  0.50 68.34     0.094 A 
HETATM    6  C2    D T  94     -15.609 -23.927   8.627  0.50 67.57     0.024 A 
HETATM    7  C3    D T  94     -14.626 -24.831   8.990  0.50 67.80     0.005 A 
HETATM    8  C4    D T  94     -14.921 -26.178   8.939  0.50 68.01     0.040 A 
HETATM    9  C5    D T  94     -16.168 -26.596   8.510  0.50 67.86     0.005 A 
HETATM   10  C6    D T  94     -17.143 -25.685   8.149  0.50 68.10     0.024 A 
BRANCH   8  11
HETATM   11  C9    D T  94     -13.919 -27.218   9.312  0.50 68.61     0.205 C 
HETATM   12  N1    D T  94     -14.240 -28.200  10.029  0.50 69.27    -0.125 N 
HETATM   13  N2    D T  94     -12.673 -27.116   8.859  0.50 69.71    -0.125 N 
ENDBRANCH   8  11
ENDBRANCH   4   5
ENDBRANCH   3   4
ENDBRANCH   2   3
ENDBRANCH   1   2
BRANCH   1  14
HETATM   14  C8'   D T  94     -19.933 -25.369   5.422  0.50 66.82     0.033 C 
BRANCH  14  15
HETATM   15  C7'   D T  94     -19.185 -26.141   4.352  0.50 66.64     0.149 C 
BRANCH  15  16
HETATM   16  O1'   D T  94     -19.607 -25.784   3.057  0.50 65.96    -0.331 OA
BRANCH  16  17
HETATM   17  C1'   D T  94     -18.867 -26.090   1.942  0.50 66.90     0.094 A 
HETATM   18  C2'   D T  94     -17.486 -25.927   1.876  0.50 66.33     0.024 A 
HETATM   19  C3'   D T  94     -16.747 -26.223   0.741  0.50 66.35     0.005 A 
HETATM   20  C4'   D T  94     -17.419 -26.724  -0.354  0.50 66.52     0.040 A 
HETATM   21  C5'   D T  94     -18.794 -26.891  -0.307  0.50 66.57     0.005 A 
HETATM   22  C6'   D T  94     -19.522 -26.578   0.830  0.50 66.88     0.024 A 
BRANCH  20  23
HETATM   23  C9'   D T  94     -16.715 -27.074  -1.623  0.50 67.13     0.205 C 
HETATM   24  N1'   D T  94     -17.306 -27.133  -2.737  0.50 67.44    -0.125 N 
HETATM   25  N2'   D T  94     -15.411 -27.334  -1.549  0.50 68.12    -0.125 N 
ENDBRANCH  20  23
ENDBRANCH  16  17
ENDBRANCH  15  16
ENDBRANCH  14  15
ENDBRANCH   1  14
TORSDOF 20
ENDMDL
MODEL 3
REMARK VINA RESULT:    -3.299      8.262     11.445
REMARK INTER + INTRA:          -7.819
REMARK INTER:                  -6.821
REMARK INTRA:                  -0.998
REMARK UNBOUND:                -2.592
REMARK  20 active torsions:
REMARK  status: ('A' for Active; 'I' for Inactive)
REMARK    1  A    between atoms: C1_1  and  O1_20 
REMARK    2  A    between atoms: C4_4  and  C9_9 
REMARK    3  A    between atoms: C7_7  and  C8_8 
REMARK    4  A    between atoms: C7_7  and  O1_20 
REMARK    5  A    between atoms: C8_8  and  C10_10 
REMARK    6  A    between atoms: C10_10  and  C8'_18 
REMARK    7  A    between atoms: C1'_11  and  O1'_21 
REMARK    8  A    between atoms: C4'_14  and  C9'_19 
REMARK    9  A    between atoms: C7'_17  and  C8'_18 
REMARK   10  A    between atoms: C7'_17  and  O1'_21 
REMARK   11  A    between atoms: C1@A_26  and  O1@A_45 
REMARK   12  A    between atoms: C4@A_29  and  C9@A_34 
REMARK   13  A    between atoms: C7@A_32  and  C8@A_33 
REMARK   14  A    between atoms: C7@A_32  and  O1@A_45 
REMARK   15  A    between atoms: C8@A_33  and  C10@A_35 
REMARK   16  A    between atoms: C10@A_35  and  C8'@A_43 
REMARK   17  A    between atoms: C1'@A_36  and  O1'@A_46 
REMARK   18  A    between atoms: C4'@A_39  and  C9'@A_44 
REMARK   19  A    between atoms: C7'@A_42  and  C8'@A_43 
REMARK   20  A    between atoms: C7'@A_42  and  O1'@A_46 
ROOT
HETATM    1  C10   D T  94     -22.542 -26.635   4.743  0.50 67.66     0.005 C 
ENDROOT
BRANCH   1   2
HETATM    2  C8    D T  94     -21.045 -26.839   4.667  0.50 68.37     0.033 C 
BRANCH   2   3
HETATM    3  C7    D T  94     -20.679 -27.114   3.217  0.50 67.29     0.149 C 
BRANCH   3   4
HETATM    4  O1    D T  94     -19.824 -26.111   2.745  0.50 67.79    -0.331 OA
BRANCH   4   5
HETATM    5  C1    D T  94     -18.988 -26.304   1.677  0.50 68.34     0.094 A 
HETATM    6  C2    D T  94     -17.606 -26.200   1.752  0.50 67.57     0.024 A 
HETATM    7  C3    D T  94     -16.790 -26.404   0.652  0.50 67.80     0.005 A 
HETATM    8  C4    D T  94     -17.381 -26.732  -0.551  0.50 68.01     0.040 A 
HETATM    9  C5    D T  94     -18.758 -26.827  -0.641  0.50 67.86     0.005 A 
HETATM   10  C6    D T  94     -19.563 -26.621   0.463  0.50 68.10     0.024 A 
BRANCH   8  11
HETATM   11  C9    D T  94     -16.576 -26.968  -1.784  0.50 68.61     0.205 C 
HETATM   12  N1    D T  94     -17.131 -27.107  -2.904  0.50 69.27    -0.125 N 
HETATM   13  N2    D T  94     -15.249 -27.008  -1.700  0.50 69.71    -0.125 N 
ENDBRANCH   8  11
ENDBRANCH   4   5
ENDBRANCH   3   4
ENDBRANCH   2   3
ENDBRANCH   1   2
BRANCH   1  14
HETATM   14  C8'   D T  94     -22.831 -25.145   4.788  0.50 66.82     0.033 C 
BRANCH  14  15
HETATM   15  C7'   D T  94     -22.679 -24.597   6.194  0.50 66.64     0.149 C 
BRANCH  15  16
HETATM   16  O1'   D T  94     -21.700 -23.588   6.260  0.50 65.96    -0.331 OA
BRANCH  16  17
HETATM   17  C1'   D T  94     -20.478 -23.800   6.850  0.50 66.90     0.094 A 
HETATM   18  C2'   D T  94     -19.427 -22.890   6.775  0.50 66.33     0.024 A 
HETATM   19  C3'   D T  94     -18.191 -23.119   7.360  0.50 66.35     0.005 A 
HETATM   20  C4'   D T  94     -18.018 -24.290   8.067  0.50 66.52     0.040 A 
HETATM   21  C5'   D T  94     -19.053 -25.208   8.151  0.50 66.57     0.005 A 
HETATM   22  C6'   D T  94     -20.279 -24.973   7.549  0.50 66.88     0.024 A 
BRANCH  20  23
HETATM   23  C9'   D T  94     -16.727 -24.629   8.733  0.50 67.13     0.205 C 
HETATM   24  N1'   D T  94     -15.651 -24.014   8.491  0.50 67.44    -0.125 N 
HETATM   25  N2'   D T  94     -16.735 -25.629   9.614  0.50 68.12    -0.125 N 
ENDBRANCH  20  23
ENDBRANCH  16  17
ENDBRANCH  15  16
ENDBRANCH  14  15
ENDBRANCH   1  14
TORSDOF 20
ENDMDL
MODEL 4
REMARK VINA RESULT:    -3.270      7.337      9.900
REMARK INTER + INTRA:          -7.774
REMARK INTER:                  -6.974
REMARK INTRA:                  -0.799
REMARK UNBOUND:                -2.592
REMARK  20 active torsions:
REMARK  status: ('A' for Active; 'I' for Inactive)
REMARK    1  A    between atoms: C1_1  and  O1_20 
REMARK    2  A    between atoms: C4_4  and  C9_9 
REMARK    3  A    between atoms: C7_7  and  C8_8 
REMARK    4  A    between atoms: C7_7  and  O1_20 
REMARK    5  A    between atoms: C8_8  and  C10_10 
REMARK    6  A    between atoms: C10_10  and  C8'_18 
REMARK    7  A    between atoms: C1'_11  and  O1'_21 
REMARK    8  A    between atoms: C4'_14  and  C9'_19 
REMARK    9  A    between atoms: C7'_17  and  C8'_18 
REMARK   10  A    between atoms: C7'_17  and  O1'_21 
REMARK   11  A    between atoms: C1@A_26  and  O1@A_45 
REMARK   12  A    between atoms: C4@A_29  and  C9@A_34 
REMARK   13  A    between atoms: C7@A_32  and  C8@A_33 
REMARK   14  A    between atoms: C7@A_32  and  O1@A_45 
REMARK   15  A    between atoms: C8@A_33  and  C10@A_35 
REMARK   16  A    between atoms: C10@A_35  and  C8'@A_43 
REMARK   17  A    between atoms: C1'@A_36  and  O1'@A_46 
REMARK   18  A    between atoms: C4'@A_39  and  C9'@A_44 
REMARK   19  A    between atoms: C7'@A_42  and  C8'@A_43 
REMARK   20  A    between atoms: C7'@A_42  and  O1'@A_46 
ROOT
HETATM    1  C10   D T  94     -19.500 -25.328   5.558  0.50 67.66     0.005 C 
ENDROOT
BRANCH   1   2
HETATM    2  C8    D T  94     -20.751 -25.731   4.810  0.50 68.37     0.033 C 
BRANCH   2   3
HETATM    3  C7    D T  94     -20.332 -26.315   3.470  0.50 67.29     0.149 C 
BRANCH   3   4
HETATM    4  O1    D T  94     -19.119 -25.747   3.062  0.50 67.79    -0.331 OA
BRANCH   4   5
HETATM    5  C1    D T  94     -18.535 -26.052   1.861  0.50 68.34     0.094 A 
HETATM    6  C2    D T  94     -17.164 -26.013   1.639  0.50 67.57     0.024 A 
HETATM    7  C3    D T  94     -16.608 -26.329   0.412  0.50 67.80     0.005 A 
HETATM    8  C4    D T  94     -17.450 -26.705  -0.614  0.50 68.01     0.040 A 
HETATM    9  C5    D T  94     -18.818 -26.736  -0.408  0.50 67.86     0.005 A 
HETATM   10  C6    D T  94     -19.364 -26.417   0.821  0.50 68.10     0.024 A 
BRANCH   8  11
HETATM   11  C9    D T  94     -16.932 -27.061  -1.967  0.50 68.61     0.205 C 
HETATM   12  N1    D T  94     -15.698 -27.180  -2.178  0.50 69.27    -0.125 N 
HETATM   13  N2    D T  94     -17.791 -27.278  -2.959  0.50 69.71    -0.125 N 
ENDBRANCH   8  11
ENDBRANCH   4   5
ENDBRANCH   3   4
ENDBRANCH   2   3
ENDBRANCH   1   2
BRANCH   1  14
HETATM   14  C8'   D T  94     -19.594 -23.855   5.913  0.50 66.82     0.033 C 
BRANCH  14  15
HETATM   15  C7'   D T  94     -18.791 -23.536   7.159  0.50 66.64     0.149 C 
BRANCH  15  16
HETATM   16  O1'   D T  94     -18.423 -24.702   7.857  0.50 65.96    -0.331 OA
BRANCH  16  17
HETATM   17  C1'   D T  94     -17.124 -24.943   8.233  0.50 66.90     0.094 A 
HETATM   18  C2'   D T  94     -16.621 -26.221   8.462  0.50 66.33     0.024 A 
HETATM   19  C3'   D T  94     -15.313 -26.455   8.857  0.50 66.35     0.005 A 
HETATM   20  C4'   D T  94     -14.478 -25.368   9.000  0.50 66.52     0.040 A 
HETATM   21  C5'   D T  94     -14.962 -24.088   8.779  0.50 66.57     0.005 A 
HETATM   22  C6'   D T  94     -16.276 -23.867   8.397  0.50 66.88     0.024 A 
BRANCH  20  23
HETATM   23  C9'   D T  94     -13.054 -25.513   9.421  0.50 67.13     0.205 C 
HETATM   24  N1'   D T  94     -12.614 -26.547   9.997  0.50 67.44    -0.125 N 
HETATM   25  N2'   D T  94     -12.233 -24.494   9.172  0.50 68.12    -0.125 N 
ENDBRANCH  20  23
ENDBRANCH  16  17
ENDBRANCH  15  16
ENDBRANCH  14  15
ENDBRANCH   1  14
TORSDOF 20
ENDMDL
MODEL 5
REMARK VINA RESULT:    -3.260      1.506      2.953
REMARK INTER + INTRA:          -7.759
REMARK INTER:                  -4.743
REMARK INTRA:                  -3.016
REMARK UNBOUND:                -2.592
REMARK  20 active torsions:
REMARK  status: ('A' for Active; 'I' for Inactive)
REMARK    1  A    between atoms: C1_1  and  O1_20 
REMARK    2  A    between atoms: C4_4  and  C9_9 
REMARK    3  A    between atoms: C7_7  and  C8_8 
REMARK    4  A    between atoms: C7_7  and  O1_20 
REMARK    5  A    between atoms: C8_8  and  C10_10 
REMARK    6  A    between atoms: C10_10  and  C8'_18 
REMARK    7  A    between atoms: C1'_11  and  O1'_21 
REMARK    8  A    between atoms: C4'_14  and  C9'_19 
REMARK    9  A    between atoms: C7'_17  and  C8'_18 
REMARK   10  A    between atoms: C7'_17  and  O1'_21 
REMARK   11  A    between atoms: C1@A_26  and  O1@A_45 
REMARK   12  A    between atoms: C4@A_29  and  C9@A_34 
REMARK   13  A    between atoms: C7@A_32  and  C8@A_33 
REMARK   14  A    between atoms: C7@A_32  and  O1@A_45 
REMARK   15  A    between atoms: C8@A_33  and  C10@A_35 
REMARK   16  A    between atoms: C10@A_35  and  C8'@A_43 
REMARK   17  A    between atoms: C1'@A_36  and  O1'@A_46 
REMARK   18  A    between atoms: C4'@A_39  and  C9'@A_44 
REMARK   19  A    between atoms: C7'@A_42  and  C8'@A_43 
REMARK   20  A    between atoms: C7'@A_42  and  O1'@A_46 
ROOT
HETATM    1  C10   D T  94     -11.693 -19.148  12.838  0.50 67.66     0.005 C 
ENDROOT
BRANCH   1   2
HETATM    2  C8    D T  94     -10.416 -19.957  12.779  0.50 68.37     0.033 C 
BRANCH   2   3
HETATM    3  C7    D T  94     -10.758 -21.402  13.108  0.50 67.29     0.149 C 
BRANCH   3   4
HETATM    4  O1    D T  94     -12.128 -21.621  12.922  0.50 67.79    -0.331 OA
BRANCH   4   5
HETATM    5  C1    D T  94     -12.609 -22.655  12.164  0.50 68.34     0.094 A 
HETATM    6  C2    D T  94     -11.899 -23.822  11.914  0.50 67.57     0.024 A 
HETATM    7  C3    D T  94     -12.417 -24.849  11.143  0.50 67.80     0.005 A 
HETATM    8  C4    D T  94     -13.684 -24.702  10.620  0.50 68.01     0.040 A 
HETATM    9  C5    D T  94     -14.397 -23.539  10.852  0.50 67.86     0.005 A 
HETATM   10  C6    D T  94     -13.870 -22.519  11.623  0.50 68.10     0.024 A 
BRANCH   8  11
HETATM   11  C9    D T  94     -14.316 -25.760   9.779  0.50 68.61     0.205 C 
HETATM   12  N1    D T  94     -15.120 -25.462   8.859  0.50 69.27    -0.125 N 
HETATM   13  N2    D T  94     -14.004 -27.035   9.991  0.50 69.71    -0.125 N 
ENDBRANCH   8  11
ENDBRANCH   4   5
ENDBRANCH   3   4
ENDBRANCH   2   3
ENDBRANCH   1   2
BRANCH   1  14
HETATM   14  C8'   D T  94     -11.895 -18.454  11.503  0.50 66.82     0.033 C 
BRANCH  14  15
HETATM   15  C7'   D T  94     -12.956 -19.153  10.674  0.50 66.64     0.149 C 
BRANCH  15  16
HETATM   16  O1'   D T  94     -12.522 -19.383   9.355  0.50 65.96    -0.331 OA
BRANCH  16  17
HETATM   17  C1'   D T  94     -12.110 -20.623   8.931  0.50 66.90     0.094 A 
HETATM   18  C2'   D T  94     -12.899 -21.462   8.149  0.50 66.33     0.024 A 
HETATM   19  C3'   D T  94     -12.482 -22.718   7.739  0.50 66.35     0.005 A 
HETATM   20  C4'   D T  94     -11.219 -23.132   8.106  0.50 66.52     0.040 A 
HETATM   21  C5'   D T  94     -10.420 -22.310   8.886  0.50 66.57     0.005 A 
HETATM   22  C6'   D T  94     -10.855 -21.061   9.301  0.50 66.88     0.024 A 
BRANCH  20  23
HETATM   23  C9'   D T  94     -10.677 -24.466   7.715  0.50 67.13     0.205 C 
HETATM   24  N1'   D T  94     -11.372 -25.519   7.740  0.50 67.44    -0.125 N 
HETATM   25  N2'   D T  94      -9.402 -24.522   7.332  0.50 68.12    -0.125 N 
ENDBRANCH  20  23
ENDBRANCH  16  17
ENDBRANCH  15  16
ENDBRANCH  14  15
ENDBRANCH   1  14
TORSDOF 20
ENDMDL
MODEL 6
REMARK VINA RESULT:    -3.234     10.807     13.767
REMARK INTER + INTRA:          -7.718
REMARK INTER:                  -4.856
REMARK INTRA:                  -2.862
REMARK UNBOUND:                -2.592
REMARK  20 active torsions:
REMARK  status: ('A' for Active; 'I' for Inactive)
REMARK    1  A    between atoms: C1_1  and  O1_20 
REMARK    2  A    between atoms: C4_4  and  C9_9 
REMARK    3  A    between atoms: C7_7  and  C8_8 
REMARK    4  A    between atoms: C7_7  and  O1_20 
REMARK    5  A    between atoms: C8_8  and  C10_10 
REMARK    6  A    between atoms: C10_10  and  C8'_18 
REMARK    7  A    between atoms: C1'_11  and  O1'_21 
REMARK    8  A    between atoms: C4'_14  and  C9'_19 
REMARK    9  A    between atoms: C7'_17  and  C8'_18 
REMARK   10  A    between atoms: C7'_17  and  O1'_21 
REMARK   11  A    between atoms: C1@A_26  and  O1@A_45 
REMARK   12  A    between atoms: C4@A_29  and  C9@A_34 
REMARK   13  A    between atoms: C7@A_32  and  C8@A_33 
REMARK   14  A    between atoms: C7@A_32  and  O1@A_45 
REMARK   15  A    between atoms: C8@A_33  and  C10@A_35 
REMARK   16  A    between atoms: C10@A_35  and  C8'@A_43 
REMARK   17  A    between atoms: C1'@A_36  and  O1'@A_46 
REMARK   18  A    between atoms: C4'@A_39  and  C9'@A_44 
REMARK   19  A    between atoms: C7'@A_42  and  C8'@A_43 
REMARK   20  A    between atoms: C7'@A_42  and  O1'@A_46 
ROOT
HETATM    1  C10   D T  94     -17.139 -27.175  -2.631  0.50 67.66     0.005 C 
ENDROOT
BRANCH   1   2
HETATM    2  C8    D T  94     -16.142 -27.337  -1.505  0.50 68.37     0.033 C 
BRANCH   2   3
HETATM    3  C7    D T  94     -16.685 -26.609  -0.286  0.50 67.29     0.149 C 
BRANCH   3   4
HETATM    4  O1    D T  94     -17.010 -27.533   0.714  0.50 67.79    -0.331 OA
BRANCH   4   5
HETATM    5  C1    D T  94     -17.708 -27.180   1.839  0.50 68.34     0.094 A 
HETATM    6  C2    D T  94     -17.806 -27.983   2.968  0.50 67.57     0.024 A 
HETATM    7  C3    D T  94     -18.519 -27.593   4.089  0.50 67.80     0.005 A 
HETATM    8  C4    D T  94     -19.139 -26.361   4.077  0.50 68.01     0.040 A 
HETATM    9  C5    D T  94     -19.059 -25.558   2.954  0.50 67.86     0.005 A 
HETATM   10  C6    D T  94     -18.345 -25.956   1.839  0.50 68.10     0.024 A 
BRANCH   8  11
HETATM   11  C9    D T  94     -19.928 -25.866   5.243  0.50 68.61     0.205 C 
HETATM   12  N1    D T  94     -20.744 -26.614   5.838  0.50 69.27    -0.125 N 
HETATM   13  N2    D T  94     -19.746 -24.620   5.673  0.50 69.71    -0.125 N 
ENDBRANCH   8  11
ENDBRANCH   4   5
ENDBRANCH   3   4
ENDBRANCH   2   3
ENDBRANCH   1   2
BRANCH   1  14
HETATM   14  C8'   D T  94     -18.309 -26.345  -2.134  0.50 66.82     0.033 C 
BRANCH  14  15
HETATM   15  C7'   D T  94     -19.631 -27.031  -2.419  0.50 66.64     0.149 C 
BRANCH  15  16
HETATM   16  O1'   D T  94     -19.672 -28.332  -1.882  0.50 65.96    -0.331 OA
BRANCH  16  17
HETATM   17  C1'   D T  94     -20.157 -28.582  -0.622  0.50 66.90     0.094 A 
HETATM   18  C2'   D T  94     -19.833 -29.724   0.106  0.50 66.33     0.024 A 
HETATM   19  C3'   D T  94     -20.340 -29.976   1.372  0.50 66.35     0.005 A 
HETATM   20  C4'   D T  94     -21.177 -29.035   1.932  0.50 66.52     0.040 A 
HETATM   21  C5'   D T  94     -21.511 -27.893   1.221  0.50 66.57     0.005 A 
HETATM   22  C6'   D T  94     -21.009 -27.660  -0.049  0.50 66.88     0.024 A 
BRANCH  20  23
HETATM   23  C9'   D T  94     -21.774 -29.213   3.288  0.50 67.13     0.205 C 
HETATM   24  N1'   D T  94     -21.349 -30.069   4.114  0.50 67.44    -0.125 N 
HETATM   25  N2'   D T  94     -22.799 -28.428   3.615  0.50 68.12    -0.125 N 
ENDBRANCH  20  23
ENDBRANCH  16  17
ENDBRANCH  15  16
ENDBRANCH  14  15
ENDBRANCH   1  14
TORSDOF 20
ENDMDL
MODEL 7
REMARK VINA RESULT:    -3.159      8.004     11.174
REMARK INTER + INTRA:          -7.599
REMARK INTER:                  -6.486
REMARK INTRA:                  -1.113
REMARK UNBOUND:                -2.592
REMARK  20 active torsions:
REMARK  status: ('A' for Active; 'I' for Inactive)
REMARK    1  A    between atoms: C1_1  and  O1_20 
REMARK    2  A    between atoms: C4_4  and  C9_9 
REMARK    3  A    between atoms: C7_7  and  C8_8 
REMARK    4  A    between atoms: C7_7  and  O1_20 
REMARK    5  A    between atoms: C8_8  and  C10_10 
REMARK    6  A    between atoms: C10_10  and  C8'_18 
REMARK    7  A    between atoms: C1'_11  and  O1'_21 
REMARK    8  A    between atoms: C4'_14  and  C9'_19 
REMARK    9  A    between atoms: C7'_17  and  C8'_18 
REMARK   10  A    between atoms: C7'_17  and  O1'_21 
REMARK   11  A    between atoms: C1@A_26  and  O1@A_45 
REMARK   12  A    between atoms: C4@A_29  and  C9@A_34 
REMARK   13  A    between atoms: C7@A_32  and  C8@A_33 
REMARK   14  A    between atoms: C7@A_32  and  O1@A_45 
REMARK   15  A    between atoms: C8@A_33  and  C10@A_35 
REMARK   16  A    between atoms: C10@A_35  and  C8'@A_43 
REMARK   17  A    between atoms: C1'@A_36  and  O1'@A_46 
REMARK   18  A    between atoms: C4'@A_39  and  C9'@A_44 
REMARK   19  A    between atoms: C7'@A_42  and  C8'@A_43 
REMARK   20  A    between atoms: C7'@A_42  and  O1'@A_46 
ROOT
HETATM    1  C10   D T  94     -20.472 -26.927   4.442  0.50 67.66     0.005 C 
ENDROOT
BRANCH   1   2
HETATM    2  C8    D T  94     -19.045 -26.451   4.282  0.50 68.37     0.033 C 
BRANCH   2   3
HETATM    3  C7    D T  94     -18.293 -27.484   3.457  0.50 67.29     0.149 C 
BRANCH   3   4
HETATM    4  O1    D T  94     -18.669 -27.384   2.112  0.50 67.79    -0.331 OA
BRANCH   4   5
HETATM    5  C1    D T  94     -17.760 -27.454   1.090  0.50 68.34     0.094 A 
HETATM    6  C2    D T  94     -17.241 -26.341   0.443  0.50 67.57     0.024 A 
HETATM    7  C3    D T  94     -16.321 -26.449  -0.586  0.50 67.80     0.005 A 
HETATM    8  C4    D T  94     -15.905 -27.708  -0.965  0.50 68.01     0.040 A 
HETATM    9  C5    D T  94     -16.423 -28.826  -0.335  0.50 67.86     0.005 A 
HETATM   10  C6    D T  94     -17.342 -28.707   0.690  0.50 68.10     0.024 A 
BRANCH   8  11
HETATM   11  C9    D T  94     -14.917 -27.913  -2.064  0.50 68.61     0.205 C 
HETATM   12  N1    D T  94     -14.475 -26.940  -2.728  0.50 69.27    -0.125 N 
HETATM   13  N2    D T  94     -14.481 -29.141  -2.330  0.50 69.71    -0.125 N 
ENDBRANCH   8  11
ENDBRANCH   4   5
ENDBRANCH   3   4
ENDBRANCH   2   3
ENDBRANCH   1   2
BRANCH   1  14
HETATM   14  C8'   D T  94     -21.347 -25.738   4.796  0.50 66.82     0.033 C 
BRANCH  14  15
HETATM   15  C7'   D T  94     -21.740 -25.760   6.260  0.50 66.64     0.149 C 
BRANCH  15  16
HETATM   16  O1'   D T  94     -21.193 -24.672   6.965  0.50 65.96    -0.331 OA
BRANCH  16  17
HETATM   17  C1'   D T  94     -19.879 -24.653   7.367  0.50 66.90     0.094 A 
HETATM   18  C2'   D T  94     -19.225 -25.767   7.885  0.50 66.33     0.024 A 
HETATM   19  C3'   D T  94     -17.903 -25.736   8.302  0.50 66.35     0.005 A 
HETATM   20  C4'   D T  94     -17.212 -24.551   8.169  0.50 66.52     0.040 A 
HETATM   21  C5'   D T  94     -17.848 -23.431   7.658  0.50 66.57     0.005 A 
HETATM   22  C6'   D T  94     -19.174 -23.472   7.257  0.50 66.88     0.024 A 
BRANCH  20  23
HETATM   23  C9'   D T  94     -15.787 -24.414   8.589  0.50 67.13     0.205 C 
HETATM   24  N1'   D T  94     -15.115 -25.378   9.052  0.50 67.44    -0.125 N 
HETATM   25  N2'   D T  94     -15.223 -23.213   8.466  0.50 68.12    -0.125 N 
ENDBRANCH  20  23
ENDBRANCH  16  17
ENDBRANCH  15  16
ENDBRANCH  14  15
ENDBRANCH   1  14
TORSDOF 20
ENDMDL
MODEL 8
REMARK VINA RESULT:    -3.107      9.477     12.924
REMARK INTER + INTRA:          -7.515
REMARK INTER:                  -6.407
REMARK INTRA:                  -1.108
REMARK UNBOUND:                -2.592
REMARK  20 active torsions:
REMARK  status: ('A' for Active; 'I' for Inactive)
REMARK    1  A    between atoms: C1_1  and  O1_20 
REMARK    2  A    between atoms: C4_4  and  C9_9 
REMARK    3  A    between atoms: C7_7  and  C8_8 
REMARK    4  A    between atoms: C7_7  and  O1_20 
REMARK    5  A    between atoms: C8_8  and  C10_10 
REMARK    6  A    between atoms: C10_10  and  C8'_18 
REMARK    7  A    between atoms: C1'_11  and  O1'_21 
REMARK    8  A    between atoms: C4'_14  and  C9'_19 
REMARK    9  A    between atoms: C7'_17  and  C8'_18 
REMARK   10  A    between atoms: C7'_17  and  O1'_21 
REMARK   11  A    between atoms: C1@A_26  and  O1@A_45 
REMARK   12  A    between atoms: C4@A_29  and  C9@A_34 
REMARK   13  A    between atoms: C7@A_32  and  C8@A_33 
REMARK   14  A    between atoms: C7@A_32  and  O1@A_45 
REMARK   15  A    between atoms: C8@A_33  and  C10@A_35 
REMARK   16  A    between atoms: C10@A_35  and  C8'@A_43 
REMARK   17  A    between atoms: C1'@A_36  and  O1'@A_46 
REMARK   18  A    between atoms: C4'@A_39  and  C9'@A_44 
REMARK   19  A    between atoms: C7'@A_42  and  C8'@A_43 
REMARK   20  A    between atoms: C7'@A_42  and  O1'@A_46 
ROOT
HETATM    1  C10   D T  94     -21.347 -28.282   1.457  0.50 67.66     0.005 C 
ENDROOT
BRANCH   1   2
HETATM    2  C8    D T  94     -21.079 -28.523  -0.012  0.50 68.37     0.033 C 
BRANCH   2   3
HETATM    3  C7    D T  94     -21.006 -27.172  -0.706  0.50 67.29     0.149 C 
BRANCH   3   4
HETATM    4  O1    D T  94     -19.860 -26.484  -0.289  0.50 67.79    -0.331 OA
BRANCH   4   5
HETATM    5  C1    D T  94     -18.623 -26.731  -0.823  0.50 68.34     0.094 A 
HETATM    6  C2    D T  94     -18.422 -27.214  -2.110  0.50 67.57     0.024 A 
HETATM    7  C3    D T  94     -17.156 -27.450  -2.618  0.50 67.80     0.005 A 
HETATM    8  C4    D T  94     -16.066 -27.184  -1.816  0.50 68.01     0.040 A 
HETATM    9  C5    D T  94     -16.254 -26.714  -0.528  0.50 67.86     0.005 A 
HETATM   10  C6    D T  94     -17.522 -26.481  -0.030  0.50 68.10     0.024 A 
BRANCH   8  11
HETATM   11  C9    D T  94     -14.669 -27.411  -2.286  0.50 68.61     0.205 C 
HETATM   12  N1    D T  94     -14.061 -26.539  -2.959  0.50 69.27    -0.125 N 
HETATM   13  N2    D T  94     -14.049 -28.544  -1.968  0.50 69.71    -0.125 N 
ENDBRANCH   8  11
ENDBRANCH   4   5
ENDBRANCH   3   4
ENDBRANCH   2   3
ENDBRANCH   1   2
BRANCH   1  14
HETATM   14  C8'   D T  94     -20.420 -29.163   2.275  0.50 66.82     0.033 C 
BRANCH  14  15
HETATM   15  C7'   D T  94     -19.151 -28.425   2.654  0.50 66.64     0.149 C 
BRANCH  15  16
HETATM   16  O1'   D T  94     -18.899 -28.493   4.037  0.50 65.96    -0.331 OA
BRANCH  16  17
HETATM   17  C1'   D T  94     -18.988 -27.386   4.846  0.50 66.90     0.094 A 
HETATM   18  C2'   D T  94     -19.555 -26.184   4.433  0.50 66.33     0.024 A 
HETATM   19  C3'   D T  94     -19.628 -25.067   5.251  0.50 66.35     0.005 A 
HETATM   20  C4'   D T  94     -19.138 -25.174   6.535  0.50 66.52     0.040 A 
HETATM   21  C5'   D T  94     -18.569 -26.363   6.963  0.50 66.57     0.005 A 
HETATM   22  C6'   D T  94     -18.490 -27.468   6.130  0.50 66.88     0.024 A 
BRANCH  20  23
HETATM   23  C9'   D T  94     -19.169 -24.030   7.493  0.50 67.13     0.205 C 
HETATM   24  N1'   D T  94     -19.793 -24.074   8.589  0.50 67.44    -0.125 N 
HETATM   25  N2'   D T  94     -18.507 -22.925   7.151  0.50 68.12    -0.125 N 
ENDBRANCH  20  23
ENDBRANCH  16  17
ENDBRANCH  15  16
ENDBRANCH  14  15
ENDBRANCH   1  14
TORSDOF 20
ENDMDL
MODEL 9
REMARK VINA RESULT:    -2.910     10.841     13.136
REMARK INTER + INTRA:          -7.203
REMARK INTER:                  -4.247
REMARK INTRA:                  -2.956
REMARK UNBOUND:                -2.592
REMARK  20 active torsions:
REMARK  status: ('A' for Active; 'I' for Inactive)
REMARK    1  A    between atoms: C1_1  and  O1_20 
REMARK    2  A    between atoms: C4_4  and  C9_9 
REMARK    3  A    between atoms: C7_7  and  C8_8 
REMARK    4  A    between atoms: C7_7  and  O1_20 
REMARK    5  A    between atoms: C8_8  and  C10_10 
REMARK    6  A    between atoms: C10_10  and  C8'_18 
REMARK    7  A    between atoms: C1'_11  and  O1'_21 
REMARK    8  A    between atoms: C4'_14  and  C9'_19 
REMARK    9  A    between atoms: C7'_17  and  C8'_18 
REMARK   10  A    between atoms: C7'_17  and  O1'_21 
REMARK   11  A    between atoms: C1@A_26  and  O1@A_45 
REMARK   12  A    between atoms: C4@A_29  and  C9@A_34 
REMARK   13  A    between atoms: C7@A_32  and  C8@A_33 
REMARK   14  A    between atoms: C7@A_32  and  O1@A_45 
REMARK   15  A    between atoms: C8@A_33  and  C10@A_35 
REMARK   16  A    between atoms: C10@A_35  and  C8'@A_43 
REMARK   17  A    between atoms: C1'@A_36  and  O1'@A_46 
REMARK   18  A    between atoms: C4'@A_39  and  C9'@A_44 
REMARK   19  A    between atoms: C7'@A_42  and  C8'@A_43 
REMARK   20  A    between atoms: C7'@A_42  and  O1'@A_46 
ROOT
HETATM    1  C10   D T  94     -18.173 -27.374  -1.410  0.50 67.66     0.005 C 
ENDROOT
BRANCH   1   2
HETATM    2  C8    D T  94     -19.244 -26.306  -1.357  0.50 68.37     0.033 C 
BRANCH   2   3
HETATM    3  C7    D T  94     -20.532 -26.954  -0.874  0.50 67.29     0.149 C 
BRANCH   3   4
HETATM    4  O1    D T  94     -20.251 -28.191  -0.282  0.50 67.79    -0.331 OA
BRANCH   4   5
HETATM    5  C1    D T  94     -20.772 -28.559   0.930  0.50 68.34     0.094 A 
HETATM    6  C2    D T  94     -20.431 -29.731   1.591  0.50 67.57     0.024 A 
HETATM    7  C3    D T  94     -20.977 -30.071   2.817  0.50 67.80     0.005 A 
HETATM    8  C4    D T  94     -21.879 -29.203   3.397  0.50 68.01     0.040 A 
HETATM    9  C5    D T  94     -22.235 -28.038   2.743  0.50 67.86     0.005 A 
HETATM   10  C6    D T  94     -21.685 -27.708   1.518  0.50 68.10     0.024 A 
BRANCH   8  11
HETATM   11  C9    D T  94     -22.513 -29.493   4.716  0.50 68.61     0.205 C 
HETATM   12  N1    D T  94     -22.273 -30.565   5.329  0.50 69.27    -0.125 N 
HETATM   13  N2    D T  94     -23.327 -28.593   5.261  0.50 69.71    -0.125 N 
ENDBRANCH   8  11
ENDBRANCH   4   5
ENDBRANCH   3   4
ENDBRANCH   2   3
ENDBRANCH   1   2
BRANCH   1  14
HETATM   14  C8'   D T  94     -16.826 -26.730  -1.137  0.50 66.82     0.033 C 
BRANCH  14  15
HETATM   15  C7'   D T  94     -16.699 -26.313   0.316  0.50 66.64     0.149 C 
BRANCH  15  16
HETATM   16  O1'   D T  94     -17.165 -27.313   1.190  0.50 65.96    -0.331 OA
BRANCH  16  17
HETATM   17  C1'   D T  94     -17.907 -27.014   2.307  0.50 66.90     0.094 A 
HETATM   18  C2'   D T  94     -18.658 -25.848   2.433  0.50 66.33     0.024 A 
HETATM   19  C3'   D T  94     -19.392 -25.546   3.569  0.50 66.35     0.005 A 
HETATM   20  C4'   D T  94     -19.389 -26.460   4.602  0.50 66.52     0.040 A 
HETATM   21  C5'   D T  94     -18.646 -27.625   4.494  0.50 66.57     0.005 A 
HETATM   22  C6'   D T  94     -17.906 -27.908   3.357  0.50 66.88     0.024 A 
BRANCH  20  23
HETATM   23  C9'   D T  94     -20.146 -26.228   5.866  0.50 67.13     0.205 C 
HETATM   24  N1'   D T  94     -20.472 -27.164   6.649  0.50 67.44    -0.125 N 
HETATM   25  N2'   D T  94     -20.485 -24.973   6.157  0.50 68.12    -0.125 N 
ENDBRANCH  20  23
ENDBRANCH  16  17
ENDBRANCH  15  16
ENDBRANCH  14  15
ENDBRANCH   1  14
TORSDOF 20
ENDMDL
